MODEL 1
REMARK VINA RESULT:      -8.7      0.000      0.000
REMARK  Name = 
REMARK  9 active torsions:
REMARK  status: ('A' for Active; 'I' for Inactive)
REMARK    1  A    between atoms: C_1  and  O_2
REMARK    2  A    between atoms: O_2  and  C_3
REMARK    3  A    between atoms: C_6  and  C_7
REMARK    4  A    between atoms: C_7  and  N_8
REMARK    5  A    between atoms: C_9  and  C_11
REMARK    6  A    between atoms: C_13  and  S_14
REMARK    7  A    between atoms: S_14  and  N_15
REMARK    8  A    between atoms: C_20  and  S_21
REMARK    9  A    between atoms: S_21  and  C_22
REMARK                            x       y       z     vdW  Elec       q    Type
REMARK                         _______ _______ _______ _____ _____    ______ ____
ROOT
ATOM      1  C   UNL     1       3.974   5.518  18.553  0.00  0.00    +0.000 A 
ATOM      2  C   UNL     1       2.902   4.854  19.176  0.00  0.00    +0.000 A 
ATOM      3  C   UNL     1       3.125   3.627  19.784  0.00  0.00    +0.000 A 
ATOM      4  C   UNL     1       4.400   3.111  19.796  0.00  0.00    +0.000 A 
ATOM      5  N   UNL     1       5.456   3.737  19.225  0.00  0.00    +0.000 NA
ATOM      6  C   UNL     1       5.251   4.931  18.608  0.00  0.00    +0.000 A 
ENDROOT
BRANCH   1   8
ATOM      7  N   UNL     1       2.579   7.493  18.448  0.00  0.00    +0.000 N 
ATOM      8  C   UNL     1       3.617   6.805  17.894  0.00  0.00    +0.000 C 
ATOM      9  O   UNL     1       4.214   7.164  16.883  0.00  0.00    +0.000 OA
ATOM     10  H   UNL     1       2.276   7.256  19.377  0.00  0.00    +0.000 HD
BRANCH   7  11
ATOM     11  C   UNL     1       2.100   8.738  17.901  0.00  0.00    +0.000 C 
BRANCH  11  15
ATOM     12  C   UNL     1      -0.617  10.773  20.587  0.00  0.00    +0.000 A 
ATOM     13  C   UNL     1       0.275   9.813  21.062  0.00  0.00    +0.000 A 
ATOM     14  C   UNL     1       1.137   9.147  20.186  0.00  0.00    +0.000 A 
ATOM     15  C   UNL     1       1.120   9.429  18.814  0.00  0.00    +0.000 A 
ATOM     16  C   UNL     1       0.204  10.379  18.339  0.00  0.00    +0.000 A 
ATOM     17  C   UNL     1      -0.663  11.043  19.220  0.00  0.00    +0.000 A 
BRANCH  12  19
ATOM     18  C   UNL     1      -0.721  12.279  22.403  0.00  0.00    +0.000 C 
ATOM     19  O   UNL     1      -1.396  11.369  21.541  0.00  0.00    +0.000 OA
ENDBRANCH  12  19
ENDBRANCH  11  15
ENDBRANCH   7  11
ENDBRANCH   1   8
BRANCH   3  20
ATOM     20  S   UNL     1       1.815   2.713  20.491  0.00  0.00    +0.000 S 
ATOM     21  O   UNL     1       1.439   1.651  19.590  0.00  0.00    +0.000 OA
ATOM     22  O   UNL     1       2.112   2.491  21.891  0.00  0.00    +0.000 OA
BRANCH  20  23
ATOM     23  N   UNL     1       0.562   3.824  20.437  0.00  0.00    +0.000 NA
ATOM     24  H   UNL     1       0.496   4.237  19.506  0.00  0.00    +0.000 HD
ATOM     25  H   UNL     1      -0.308   3.400  20.764  0.00  0.00    +0.000 HD
ENDBRANCH  20  23
ENDBRANCH   3  20
BRANCH   6  26
ATOM     26  S   UNL     1       6.733   5.528  17.796  0.00  0.00    +0.000 S 
BRANCH  26  27
ATOM     27  C   UNL     1       6.649   4.940  16.103  0.00  0.00    +0.000 A 
ATOM     28  C   UNL     1       5.663   3.978  15.801  0.00  0.00    +0.000 A 
ATOM     29  C   UNL     1       5.475   3.520  14.491  0.00  0.00    +0.000 A 
ATOM     30  C   UNL     1       6.287   4.012  13.478  0.00  0.00    +0.000 A 
ATOM     31  F   UNL     1       6.075   3.618  12.214  0.00  0.00    +0.000 F 
ATOM     32  C   UNL     1       7.292   4.924  13.772  0.00  0.00    +0.000 A 
ATOM     33  F   UNL     1       8.079   5.392  12.792  0.00  0.00    +0.000 F 
ATOM     34  C   UNL     1       7.482   5.388  15.075  0.00  0.00    +0.000 A 
ENDBRANCH  26  27
ENDBRANCH   6  26
TORSDOF 8
ENDMDL
MODEL 2
REMARK VINA RESULT:      -8.2      1.083      1.395
REMARK  Name = 
REMARK  9 active torsions:
REMARK  status: ('A' for Active; 'I' for Inactive)
REMARK    1  A    between atoms: C_1  and  O_2
REMARK    2  A    between atoms: O_2  and  C_3
REMARK    3  A    between atoms: C_6  and  C_7
REMARK    4  A    between atoms: C_7  and  N_8
REMARK    5  A    between atoms: C_9  and  C_11
REMARK    6  A    between atoms: C_13  and  S_14
REMARK    7  A    between atoms: S_14  and  N_15
REMARK    8  A    between atoms: C_20  and  S_21
REMARK    9  A    between atoms: S_21  and  C_22
REMARK                            x       y       z     vdW  Elec       q    Type
REMARK                         _______ _______ _______ _____ _____    ______ ____
ROOT
ATOM      1  C   UNL     1       3.875   5.651  18.525  0.00  0.00    +0.000 A 
ATOM      2  C   UNL     1       2.817   4.972  19.156  0.00  0.00    +0.000 A 
ATOM      3  C   UNL     1       3.060   3.744  19.756  0.00  0.00    +0.000 A 
ATOM      4  C   UNL     1       4.341   3.242  19.751  0.00  0.00    +0.000 A 
ATOM      5  N   UNL     1       5.384   3.883  19.172  0.00  0.00    +0.000 NA
ATOM      6  C   UNL     1       5.159   5.078  18.563  0.00  0.00    +0.000 A 
ENDROOT
BRANCH   1   8
ATOM      7  N   UNL     1       2.381   7.548  18.366  0.00  0.00    +0.000 N 
ATOM      8  C   UNL     1       3.496   6.937  17.877  0.00  0.00    +0.000 C 
ATOM      9  O   UNL     1       4.147   7.361  16.927  0.00  0.00    +0.000 OA
ATOM     10  H   UNL     1       2.021   7.264  19.261  0.00  0.00    +0.000 HD
BRANCH   7  11
ATOM     11  C   UNL     1       1.874   8.782  17.819  0.00  0.00    +0.000 C 
BRANCH  11  15
ATOM     12  C   UNL     1       0.742  11.698  20.810  0.00  0.00    +0.000 A 
ATOM     13  C   UNL     1       1.283  12.097  19.589  0.00  0.00    +0.000 A 
ATOM     14  C   UNL     1       1.662  11.149  18.634  0.00  0.00    +0.000 A 
ATOM     15  C   UNL     1       1.510   9.780  18.887  0.00  0.00    +0.000 A 
ATOM     16  C   UNL     1       0.987   9.384  20.127  0.00  0.00    +0.000 A 
ATOM     17  C   UNL     1       0.611  10.338  21.085  0.00  0.00    +0.000 A 
BRANCH  12  19
ATOM     18  C   UNL     1       0.961  13.986  21.352  0.00  0.00    +0.000 C 
ATOM     19  O   UNL     1       0.392  12.716  21.655  0.00  0.00    +0.000 OA
ENDBRANCH  12  19
ENDBRANCH  11  15
ENDBRANCH   7  11
ENDBRANCH   1   8
BRANCH   3  20
ATOM     20  S   UNL     1       1.768   2.812  20.472  0.00  0.00    +0.000 S 
ATOM     21  O   UNL     1       2.207   2.295  21.746  0.00  0.00    +0.000 OA
ATOM     22  O   UNL     1       0.528   3.539  20.302  0.00  0.00    +0.000 OA
BRANCH  20  23
ATOM     23  N   UNL     1       1.695   1.492  19.443  0.00  0.00    +0.000 NA
ATOM     24  H   UNL     1       2.312   0.750  19.776  0.00  0.00    +0.000 HD
ATOM     25  H   UNL     1       0.727   1.195  19.308  0.00  0.00    +0.000 HD
ENDBRANCH  20  23
ENDBRANCH   3  20
BRANCH   6  26
ATOM     26  S   UNL     1       6.625   5.696  17.739  0.00  0.00    +0.000 S 
BRANCH  26  27
ATOM     27  C   UNL     1       6.574   5.043  16.069  0.00  0.00    +0.000 A 
ATOM     28  C   UNL     1       5.575   4.091  15.777  0.00  0.00    +0.000 A 
ATOM     29  C   UNL     1       5.412   3.585  14.481  0.00  0.00    +0.000 A 
ATOM     30  C   UNL     1       6.262   4.019  13.472  0.00  0.00    +0.000 A 
ATOM     31  F   UNL     1       6.076   3.580  12.219  0.00  0.00    +0.000 F 
ATOM     32  C   UNL     1       7.279   4.921  13.758  0.00  0.00    +0.000 A 
ATOM     33  F   UNL     1       8.102   5.332  12.783  0.00  0.00    +0.000 F 
ATOM     34  C   UNL     1       7.444   5.432  15.047  0.00  0.00    +0.000 A 
ENDBRANCH  26  27
ENDBRANCH   6  26
TORSDOF 8
ENDMDL
MODEL 3
REMARK VINA RESULT:      -8.1      4.830      7.655
REMARK  Name = 
REMARK  9 active torsions:
REMARK  status: ('A' for Active; 'I' for Inactive)
REMARK    1  A    between atoms: C_1  and  O_2
REMARK    2  A    between atoms: O_2  and  C_3
REMARK    3  A    between atoms: C_6  and  C_7
REMARK    4  A    between atoms: C_7  and  N_8
REMARK    5  A    between atoms: C_9  and  C_11
REMARK    6  A    between atoms: C_13  and  S_14
REMARK    7  A    between atoms: S_14  and  N_15
REMARK    8  A    between atoms: C_20  and  S_21
REMARK    9  A    between atoms: S_21  and  C_22
REMARK                            x       y       z     vdW  Elec       q    Type
REMARK                         _______ _______ _______ _____ _____    ______ ____
ROOT
ATOM      1  C   UNL     1       1.321   9.025  20.525  0.00  0.00    +0.000 A 
ATOM      2  C   UNL     1       1.826   7.712  20.537  0.00  0.00    +0.000 A 
ATOM      3  C   UNL     1       2.244   7.134  19.347  0.00  0.00    +0.000 A 
ATOM      4  C   UNL     1       2.190   7.877  18.191  0.00  0.00    +0.000 A 
ATOM      5  N   UNL     1       1.730   9.150  18.150  0.00  0.00    +0.000 NA
ATOM      6  C   UNL     1       1.298   9.725  19.305  0.00  0.00    +0.000 A 
ENDROOT
BRANCH   1   8
ATOM      7  N   UNL     1      -0.461   9.858  21.936  0.00  0.00    +0.000 N 
ATOM      8  C   UNL     1       0.860   9.532  21.847  0.00  0.00    +0.000 C 
ATOM      9  O   UNL     1       1.664   9.682  22.762  0.00  0.00    +0.000 OA
ATOM     10  H   UNL     1      -1.095   9.523  21.231  0.00  0.00    +0.000 HD
BRANCH   7  11
ATOM     11  C   UNL     1      -1.044  10.391  23.141  0.00  0.00    +0.000 C 
BRANCH  11  15
ATOM     12  C   UNL     1      -2.528  14.404  22.487  0.00  0.00    +0.000 A 
ATOM     13  C   UNL     1      -1.194  14.084  22.237  0.00  0.00    +0.000 A 
ATOM     14  C   UNL     1      -0.718  12.790  22.468  0.00  0.00    +0.000 A 
ATOM     15  C   UNL     1      -1.570  11.791  22.956  0.00  0.00    +0.000 A 
ATOM     16  C   UNL     1      -2.905  12.126  23.227  0.00  0.00    +0.000 A 
ATOM     17  C   UNL     1      -3.379  13.426  22.998  0.00  0.00    +0.000 A 
BRANCH  12  19
ATOM     18  C   UNL     1      -4.232  16.040  22.499  0.00  0.00    +0.000 C 
ATOM     19  O   UNL     1      -2.881  15.696  22.206  0.00  0.00    +0.000 OA
ENDBRANCH  12  19
ENDBRANCH  11  15
ENDBRANCH   7  11
ENDBRANCH   1   8
BRANCH   3  20
ATOM     20  S   UNL     1       2.793   5.477  19.286  0.00  0.00    +0.000 S 
ATOM     21  O   UNL     1       1.887   4.708  18.467  0.00  0.00    +0.000 OA
ATOM     22  O   UNL     1       4.227   5.475  19.090  0.00  0.00    +0.000 OA
BRANCH  20  23
ATOM     23  N   UNL     1       2.523   4.975  20.861  0.00  0.00    +0.000 NA
ATOM     24  H   UNL     1       1.534   5.064  21.096  0.00  0.00    +0.000 HD
ATOM     25  H   UNL     1       2.900   4.038  21.010  0.00  0.00    +0.000 HD
ENDBRANCH  20  23
ENDBRANCH   3  20
BRANCH   6  26
ATOM     26  S   UNL     1       0.599  11.350  19.023  0.00  0.00    +0.000 S 
BRANCH  26  27
ATOM     27  C   UNL     1      -1.109  11.086  18.544  0.00  0.00    +0.000 A 
ATOM     28  C   UNL     1      -2.092  11.854  19.203  0.00  0.00    +0.000 A 
ATOM     29  C   UNL     1      -3.442  11.770  18.840  0.00  0.00    +0.000 A 
ATOM     30  C   UNL     1      -3.817  10.902  17.823  0.00  0.00    +0.000 A 
ATOM     31  F   UNL     1      -5.100  10.858  17.435  0.00  0.00    +0.000 F 
ATOM     32  C   UNL     1      -2.865  10.107  17.199  0.00  0.00    +0.000 A 
ATOM     33  F   UNL     1      -3.233   9.264  16.223  0.00  0.00    +0.000 F 
ATOM     34  C   UNL     1      -1.517  10.188  17.554  0.00  0.00    +0.000 A 
ENDBRANCH  26  27
ENDBRANCH   6  26
TORSDOF 8
ENDMDL
MODEL 4
REMARK VINA RESULT:      -8.0      4.785      7.620
REMARK  Name = 
REMARK  9 active torsions:
REMARK  status: ('A' for Active; 'I' for Inactive)
REMARK    1  A    between atoms: C_1  and  O_2
REMARK    2  A    between atoms: O_2  and  C_3
REMARK    3  A    between atoms: C_6  and  C_7
REMARK    4  A    between atoms: C_7  and  N_8
REMARK    5  A    between atoms: C_9  and  C_11
REMARK    6  A    between atoms: C_13  and  S_14
REMARK    7  A    between atoms: S_14  and  N_15
REMARK    8  A    between atoms: C_20  and  S_21
REMARK    9  A    between atoms: S_21  and  C_22
REMARK                            x       y       z     vdW  Elec       q    Type
REMARK                         _______ _______ _______ _____ _____    ______ ____
ROOT
ATOM      1  C   UNL     1       1.368   8.917  20.535  0.00  0.00    +0.000 A 
ATOM      2  C   UNL     1       1.834   7.590  20.560  0.00  0.00    +0.000 A 
ATOM      3  C   UNL     1       2.245   6.993  19.377  0.00  0.00    +0.000 A 
ATOM      4  C   UNL     1       2.223   7.730  18.215  0.00  0.00    +0.000 A 
ATOM      5  N   UNL     1       1.801   9.015  18.163  0.00  0.00    +0.000 NA
ATOM      6  C   UNL     1       1.377   9.610  19.311  0.00  0.00    +0.000 A 
ENDROOT
BRANCH   1   8
ATOM      7  N   UNL     1      -0.412   9.758  21.943  0.00  0.00    +0.000 N 
ATOM      8  C   UNL     1       0.911   9.446  21.850  0.00  0.00    +0.000 C 
ATOM      9  O   UNL     1       1.721   9.624  22.756  0.00  0.00    +0.000 OA
ATOM     10  H   UNL     1      -1.048   9.401  21.249  0.00  0.00    +0.000 HD
BRANCH   7  11
ATOM     11  C   UNL     1      -0.993  10.309  23.141  0.00  0.00    +0.000 C 
BRANCH  11  15
ATOM     12  C   UNL     1      -2.435  14.367  22.707  0.00  0.00    +0.000 A 
ATOM     13  C   UNL     1      -3.280  13.349  23.148  0.00  0.00    +0.000 A 
ATOM     14  C   UNL     1      -2.812  12.038  23.268  0.00  0.00    +0.000 A 
ATOM     15  C   UNL     1      -1.487  11.719  22.947  0.00  0.00    +0.000 A 
ATOM     16  C   UNL     1      -0.648  12.743  22.482  0.00  0.00    +0.000 A 
ATOM     17  C   UNL     1      -1.122  14.058  22.358  0.00  0.00    +0.000 A 
BRANCH  12  19
ATOM     18  C   UNL     1      -4.372  15.680  23.025  0.00  0.00    +0.000 C 
ATOM     19  O   UNL     1      -3.001  15.611  22.647  0.00  0.00    +0.000 OA
ENDBRANCH  12  19
ENDBRANCH  11  15
ENDBRANCH   7  11
ENDBRANCH   1   8
BRANCH   3  20
ATOM     20  S   UNL     1       2.745   5.320  19.330  0.00  0.00    +0.000 S 
ATOM     21  O   UNL     1       2.458   4.705  20.604  0.00  0.00    +0.000 OA
ATOM     22  O   UNL     1       2.325   4.749  18.068  0.00  0.00    +0.000 OA
BRANCH  20  23
ATOM     23  N   UNL     1       4.412   5.468  19.259  0.00  0.00    +0.000 NA
ATOM     24  H   UNL     1       4.838   4.567  19.038  0.00  0.00    +0.000 HD
ATOM     25  H   UNL     1       4.679   6.219  18.621  0.00  0.00    +0.000 HD
ENDBRANCH  20  23
ENDBRANCH   3  20
BRANCH   6  26
ATOM     26  S   UNL     1       0.729  11.253  19.013  0.00  0.00    +0.000 S 
BRANCH  26  27
ATOM     27  C   UNL     1      -0.993  11.039  18.555  0.00  0.00    +0.000 A 
ATOM     28  C   UNL     1      -1.944  11.835  19.226  0.00  0.00    +0.000 A 
ATOM     29  C   UNL     1      -3.300  11.790  18.880  0.00  0.00    +0.000 A 
ATOM     30  C   UNL     1      -3.714  10.934  17.868  0.00  0.00    +0.000 A 
ATOM     31  F   UNL     1      -5.001  10.927  17.495  0.00  0.00    +0.000 F 
ATOM     32  C   UNL     1      -2.792  10.112  17.232  0.00  0.00    +0.000 A 
ATOM     33  F   UNL     1      -3.197   9.281  16.261  0.00  0.00    +0.000 F 
ATOM     34  C   UNL     1      -1.438  10.154  17.570  0.00  0.00    +0.000 A 
ENDBRANCH  26  27
ENDBRANCH   6  26
TORSDOF 8
ENDMDL
MODEL 5
REMARK VINA RESULT:      -8.0      0.601      1.481
REMARK  Name = 
REMARK  9 active torsions:
REMARK  status: ('A' for Active; 'I' for Inactive)
REMARK    1  A    between atoms: C_1  and  O_2
REMARK    2  A    between atoms: O_2  and  C_3
REMARK    3  A    between atoms: C_6  and  C_7
REMARK    4  A    between atoms: C_7  and  N_8
REMARK    5  A    between atoms: C_9  and  C_11
REMARK    6  A    between atoms: C_13  and  S_14
REMARK    7  A    between atoms: S_14  and  N_15
REMARK    8  A    between atoms: C_20  and  S_21
REMARK    9  A    between atoms: S_21  and  C_22
REMARK                            x       y       z     vdW  Elec       q    Type
REMARK                         _______ _______ _______ _____ _____    ______ ____
ROOT
ATOM      1  C   UNL     1       3.940   5.672  18.446  0.00  0.00    +0.000 A 
ATOM      2  C   UNL     1       2.910   4.963  19.091  0.00  0.00    +0.000 A 
ATOM      3  C   UNL     1       3.185   3.721  19.647  0.00  0.00    +0.000 A 
ATOM      4  C   UNL     1       4.470   3.234  19.586  0.00  0.00    +0.000 A 
ATOM      5  N   UNL     1       5.487   3.903  18.992  0.00  0.00    +0.000 NA
ATOM      6  C   UNL     1       5.230   5.112  18.426  0.00  0.00    +0.000 A 
ENDROOT
BRANCH   1   8
ATOM      7  N   UNL     1       2.529   7.638  18.494  0.00  0.00    +0.000 N 
ATOM      8  C   UNL     1       3.526   6.972  17.848  0.00  0.00    +0.000 C 
ATOM      9  O   UNL     1       4.044   7.360  16.804  0.00  0.00    +0.000 OA
ATOM     10  H   UNL     1       2.297   7.375  19.437  0.00  0.00    +0.000 HD
BRANCH   7  11
ATOM     11  C   UNL     1       2.002   8.892  18.016  0.00  0.00    +0.000 C 
BRANCH  11  15
ATOM     12  C   UNL     1      -0.585  10.852  20.880  0.00  0.00    +0.000 A 
ATOM     13  C   UNL     1      -0.405  11.376  19.601  0.00  0.00    +0.000 A 
ATOM     14  C   UNL     1       0.446  10.747  18.687  0.00  0.00    +0.000 A 
ATOM     15  C   UNL     1       1.136   9.581  19.039  0.00  0.00    +0.000 A 
ATOM     16  C   UNL     1       0.968   9.071  20.335  0.00  0.00    +0.000 A 
ATOM     17  C   UNL     1       0.117   9.706  21.251  0.00  0.00    +0.000 A 
BRANCH  12  19
ATOM     18  C   UNL     1      -1.373  11.253  23.069  0.00  0.00    +0.000 C 
ATOM     19  O   UNL     1      -1.455  11.544  21.678  0.00  0.00    +0.000 OA
ENDBRANCH  12  19
ENDBRANCH  11  15
ENDBRANCH   7  11
ENDBRANCH   1   8
BRANCH   3  20
ATOM     20  S   UNL     1       1.927   2.754  20.377  0.00  0.00    +0.000 S 
ATOM     21  O   UNL     1       1.569   1.685  19.476  0.00  0.00    +0.000 OA
ATOM     22  O   UNL     1       2.266   2.533  21.767  0.00  0.00    +0.000 OA
BRANCH  20  23
ATOM     23  N   UNL     1       0.633   3.818  20.362  0.00  0.00    +0.000 NA
ATOM     24  H   UNL     1       0.913   4.721  20.747  0.00  0.00    +0.000 HD
ATOM     25  H   UNL     1       0.226   3.876  19.427  0.00  0.00    +0.000 HD
ENDBRANCH  20  23
ENDBRANCH   3  20
BRANCH   6  26
ATOM     26  S   UNL     1       6.661   5.770  17.572  0.00  0.00    +0.000 S 
BRANCH  26  27
ATOM     27  C   UNL     1       6.536   5.206  15.874  0.00  0.00    +0.000 A 
ATOM     28  C   UNL     1       7.658   5.403  15.042  0.00  0.00    +0.000 A 
ATOM     29  C   UNL     1       7.678   4.926  13.726  0.00  0.00    +0.000 A 
ATOM     30  C   UNL     1       6.565   4.262  13.229  0.00  0.00    +0.000 A 
ATOM     31  F   UNL     1       6.599   3.755  11.988  0.00  0.00    +0.000 F 
ATOM     32  C   UNL     1       5.436   4.103  14.023  0.00  0.00    +0.000 A 
ATOM     33  F   UNL     1       4.361   3.468  13.537  0.00  0.00    +0.000 F 
ATOM     34  C   UNL     1       5.412   4.573  15.338  0.00  0.00    +0.000 A 
ENDBRANCH  26  27
ENDBRANCH   6  26
TORSDOF 8
ENDMDL
MODEL 6
REMARK VINA RESULT:      -7.9      5.176      7.701
REMARK  Name = 
REMARK  9 active torsions:
REMARK  status: ('A' for Active; 'I' for Inactive)
REMARK    1  A    between atoms: C_1  and  O_2
REMARK    2  A    between atoms: O_2  and  C_3
REMARK    3  A    between atoms: C_6  and  C_7
REMARK    4  A    between atoms: C_7  and  N_8
REMARK    5  A    between atoms: C_9  and  C_11
REMARK    6  A    between atoms: C_13  and  S_14
REMARK    7  A    between atoms: S_14  and  N_15
REMARK    8  A    between atoms: C_20  and  S_21
REMARK    9  A    between atoms: S_21  and  C_22
REMARK                            x       y       z     vdW  Elec       q    Type
REMARK                         _______ _______ _______ _____ _____    ______ ____
ROOT
ATOM      1  C   UNL     1       1.394   8.882  20.517  0.00  0.00    +0.000 A 
ATOM      2  C   UNL     1       1.794   7.533  20.545  0.00  0.00    +0.000 A 
ATOM      3  C   UNL     1       2.199   6.921  19.368  0.00  0.00    +0.000 A 
ATOM      4  C   UNL     1       2.237   7.662  18.210  0.00  0.00    +0.000 A 
ATOM      5  N   UNL     1       1.880   8.967  18.155  0.00  0.00    +0.000 NA
ATOM      6  C   UNL     1       1.461   9.577  19.296  0.00  0.00    +0.000 A 
ENDROOT
BRANCH   1   8
ATOM      7  N   UNL     1      -0.385   9.750  21.910  0.00  0.00    +0.000 N 
ATOM      8  C   UNL     1       0.937   9.428  21.825  0.00  0.00    +0.000 C 
ATOM      9  O   UNL     1       1.745   9.610  22.731  0.00  0.00    +0.000 OA
ATOM     10  H   UNL     1      -1.021   9.390  21.219  0.00  0.00    +0.000 HD
BRANCH   7  11
ATOM     11  C   UNL     1      -0.965  10.317  23.101  0.00  0.00    +0.000 C 
BRANCH  11  15
ATOM     12  C   UNL     1      -2.412  14.367  22.610  0.00  0.00    +0.000 A 
ATOM     13  C   UNL     1      -3.262  13.350  23.041  0.00  0.00    +0.000 A 
ATOM     14  C   UNL     1      -2.792  12.041  23.181  0.00  0.00    +0.000 A 
ATOM     15  C   UNL     1      -1.460  11.725  22.887  0.00  0.00    +0.000 A 
ATOM     16  C   UNL     1      -0.615  12.748  22.431  0.00  0.00    +0.000 A 
ATOM     17  C   UNL     1      -1.091  14.060  22.288  0.00  0.00    +0.000 A 
BRANCH  12  19
ATOM     18  C   UNL     1      -4.347  15.684  22.923  0.00  0.00    +0.000 C 
ATOM     19  O   UNL     1      -2.980  15.609  22.529  0.00  0.00    +0.000 OA
ENDBRANCH  12  19
ENDBRANCH  11  15
ENDBRANCH   7  11
ENDBRANCH   1   8
BRANCH   3  20
ATOM     20  S   UNL     1       2.617   5.225  19.324  0.00  0.00    +0.000 S 
ATOM     21  O   UNL     1       4.054   5.092  19.307  0.00  0.00    +0.000 OA
ATOM     22  O   UNL     1       1.771   4.519  20.264  0.00  0.00    +0.000 OA
BRANCH  20  23
ATOM     23  N   UNL     1       2.099   4.790  17.792  0.00  0.00    +0.000 NA
ATOM     24  H   UNL     1       2.861   4.890  17.120  0.00  0.00    +0.000 HD
ATOM     25  H   UNL     1       1.680   3.860  17.805  0.00  0.00    +0.000 HD
ENDBRANCH  20  23
ENDBRANCH   3  20
BRANCH   6  26
ATOM     26  S   UNL     1       0.901  11.252  18.993  0.00  0.00    +0.000 S 
BRANCH  26  27
ATOM     27  C   UNL     1      -0.848  11.135  18.613  0.00  0.00    +0.000 A 
ATOM     28  C   UNL     1      -1.247  10.130  17.707  0.00  0.00    +0.000 A 
ATOM     29  C   UNL     1      -2.599   9.917  17.411  0.00  0.00    +0.000 A 
ATOM     30  C   UNL     1      -3.560  10.721  18.011  0.00  0.00    +0.000 A 
ATOM     31  F   UNL     1      -4.858  10.485  17.774  0.00  0.00    +0.000 F 
ATOM     32  C   UNL     1      -3.175  11.744  18.868  0.00  0.00    +0.000 A 
ATOM     33  F   UNL     1      -4.105  12.523  19.439  0.00  0.00    +0.000 F 
ATOM     34  C   UNL     1      -1.829  11.960  19.170  0.00  0.00    +0.000 A 
ENDBRANCH  26  27
ENDBRANCH   6  26
TORSDOF 8
ENDMDL
MODEL 7
REMARK VINA RESULT:      -7.9      5.251      7.846
REMARK  Name = 
REMARK  9 active torsions:
REMARK  status: ('A' for Active; 'I' for Inactive)
REMARK    1  A    between atoms: C_1  and  O_2
REMARK    2  A    between atoms: O_2  and  C_3
REMARK    3  A    between atoms: C_6  and  C_7
REMARK    4  A    between atoms: C_7  and  N_8
REMARK    5  A    between atoms: C_9  and  C_11
REMARK    6  A    between atoms: C_13  and  S_14
REMARK    7  A    between atoms: S_14  and  N_15
REMARK    8  A    between atoms: C_20  and  S_21
REMARK    9  A    between atoms: S_21  and  C_22
REMARK                            x       y       z     vdW  Elec       q    Type
REMARK                         _______ _______ _______ _____ _____    ______ ____
ROOT
ATOM      1  C   UNL     1       1.290   9.022  20.584  0.00  0.00    +0.000 A 
ATOM      2  C   UNL     1       1.709   7.679  20.615  0.00  0.00    +0.000 A 
ATOM      3  C   UNL     1       2.131   7.073  19.440  0.00  0.00    +0.000 A 
ATOM      4  C   UNL     1       2.167   7.815  18.283  0.00  0.00    +0.000 A 
ATOM      5  N   UNL     1       1.792   9.115  18.226  0.00  0.00    +0.000 NA
ATOM      6  C   UNL     1       1.357   9.719  19.364  0.00  0.00    +0.000 A 
ENDROOT
BRANCH   1   8
ATOM      7  N   UNL     1      -0.495   9.933  21.942  0.00  0.00    +0.000 N 
ATOM      8  C   UNL     1       0.815   9.560  21.889  0.00  0.00    +0.000 C 
ATOM      9  O   UNL     1       1.602   9.693  22.822  0.00  0.00    +0.000 OA
ATOM     10  H   UNL     1      -1.123   9.611  21.225  0.00  0.00    +0.000 HD
BRANCH   7  11
ATOM     11  C   UNL     1      -1.088  10.500  23.126  0.00  0.00    +0.000 C 
BRANCH  11  15
ATOM     12  C   UNL     1      -2.567  14.492  22.344  0.00  0.00    +0.000 A 
ATOM     13  C   UNL     1      -1.202  14.210  22.291  0.00  0.00    +0.000 A 
ATOM     14  C   UNL     1      -0.731  12.923  22.562  0.00  0.00    +0.000 A 
ATOM     15  C   UNL     1      -1.619  11.892  22.895  0.00  0.00    +0.000 A 
ATOM     16  C   UNL     1      -2.988  12.187  22.969  0.00  0.00    +0.000 A 
ATOM     17  C   UNL     1      -3.458  13.482  22.700  0.00  0.00    +0.000 A 
BRANCH  12  19
ATOM     18  C   UNL     1      -4.067  15.934  21.226  0.00  0.00    +0.000 C 
ATOM     19  O   UNL     1      -2.909  15.782  22.042  0.00  0.00    +0.000 OA
ENDBRANCH  12  19
ENDBRANCH  11  15
ENDBRANCH   7  11
ENDBRANCH   1   8
BRANCH   3  20
ATOM     20  S   UNL     1       2.573   5.383  19.399  0.00  0.00    +0.000 S 
ATOM     21  O   UNL     1       1.996   4.715  20.540  0.00  0.00    +0.000 OA
ATOM     22  O   UNL     1       2.419   4.901  18.042  0.00  0.00    +0.000 OA
BRANCH  20  23
ATOM     23  N   UNL     1       4.220   5.459  19.698  0.00  0.00    +0.000 NA
ATOM     24  H   UNL     1       4.608   4.518  19.778  0.00  0.00    +0.000 HD
ATOM     25  H   UNL     1       4.685   6.040  18.999  0.00  0.00    +0.000 HD
ENDBRANCH  20  23
ENDBRANCH   3  20
BRANCH   6  26
ATOM     26  S   UNL     1       0.776  11.386  19.058  0.00  0.00    +0.000 S 
BRANCH  26  27
ATOM     27  C   UNL     1      -0.969  11.245  18.665  0.00  0.00    +0.000 A 
ATOM     28  C   UNL     1      -1.350  10.225  17.768  0.00  0.00    +0.000 A 
ATOM     29  C   UNL     1      -2.697   9.993  17.464  0.00  0.00    +0.000 A 
ATOM     30  C   UNL     1      -3.671  10.793  18.046  0.00  0.00    +0.000 A 
ATOM     31  F   UNL     1      -4.964  10.540  17.802  0.00  0.00    +0.000 F 
ATOM     32  C   UNL     1      -3.304  11.830  18.895  0.00  0.00    +0.000 A 
ATOM     33  F   UNL     1      -4.248  12.605  19.449  0.00  0.00    +0.000 F 
ATOM     34  C   UNL     1      -1.963  12.065  19.205  0.00  0.00    +0.000 A 
ENDBRANCH  26  27
ENDBRANCH   6  26
TORSDOF 8
ENDMDL
MODEL 8
REMARK VINA RESULT:      -7.8      4.938      7.847
REMARK  Name = 
REMARK  9 active torsions:
REMARK  status: ('A' for Active; 'I' for Inactive)
REMARK    1  A    between atoms: C_1  and  O_2
REMARK    2  A    between atoms: O_2  and  C_3
REMARK    3  A    between atoms: C_6  and  C_7
REMARK    4  A    between atoms: C_7  and  N_8
REMARK    5  A    between atoms: C_9  and  C_11
REMARK    6  A    between atoms: C_13  and  S_14
REMARK    7  A    between atoms: S_14  and  N_15
REMARK    8  A    between atoms: C_20  and  S_21
REMARK    9  A    between atoms: S_21  and  C_22
REMARK                            x       y       z     vdW  Elec       q    Type
REMARK                         _______ _______ _______ _____ _____    ______ ____
ROOT
ATOM      1  C   UNL     1       0.945   8.937  20.079  0.00  0.00    +0.000 A 
ATOM      2  C   UNL     1       1.595   7.695  19.958  0.00  0.00    +0.000 A 
ATOM      3  C   UNL     1       2.410   7.460  18.860  0.00  0.00    +0.000 A 
ATOM      4  C   UNL     1       2.593   8.464  17.939  0.00  0.00    +0.000 A 
ATOM      5  N   UNL     1       1.999   9.677  18.039  0.00  0.00    +0.000 NA
ATOM      6  C   UNL     1       1.181   9.917  19.099  0.00  0.00    +0.000 A 
ENDROOT
BRANCH   1   8
ATOM      7  N   UNL     1       0.090  10.272  21.908  0.00  0.00    +0.000 N 
ATOM      8  C   UNL     1       0.060   9.068  21.270  0.00  0.00    +0.000 C 
ATOM      9  O   UNL     1      -0.602   8.108  21.653  0.00  0.00    +0.000 OA
ATOM     10  H   UNL     1       0.486  11.067  21.433  0.00  0.00    +0.000 HD
BRANCH   7  11
ATOM     11  C   UNL     1      -0.687  10.538  23.092  0.00  0.00    +0.000 C 
BRANCH  11  15
ATOM     12  C   UNL     1      -2.883  14.246  22.697  0.00  0.00    +0.000 A 
ATOM     13  C   UNL     1      -1.543  14.165  22.324  0.00  0.00    +0.000 A 
ATOM     14  C   UNL     1      -0.835  12.968  22.471  0.00  0.00    +0.000 A 
ATOM     15  C   UNL     1      -1.457  11.830  22.998  0.00  0.00    +0.000 A 
ATOM     16  C   UNL     1      -2.800  11.925  23.393  0.00  0.00    +0.000 A 
ATOM     17  C   UNL     1      -3.507  13.128  23.248  0.00  0.00    +0.000 A 
BRANCH  12  19
ATOM     18  C   UNL     1      -3.941  16.126  23.660  0.00  0.00    +0.000 C 
ATOM     19  O   UNL     1      -3.475  15.463  22.489  0.00  0.00    +0.000 OA
ENDBRANCH  12  19
ENDBRANCH  11  15
ENDBRANCH   7  11
ENDBRANCH   1   8
BRANCH   3  20
ATOM     20  S   UNL     1       3.168   5.906  18.609  0.00  0.00    +0.000 S 
ATOM     21  O   UNL     1       3.891   5.534  19.801  0.00  0.00    +0.000 OA
ATOM     22  O   UNL     1       2.215   5.030  17.959  0.00  0.00    +0.000 OA
BRANCH  20  23
ATOM     23  N   UNL     1       4.333   6.280  17.465  0.00  0.00    +0.000 NA
ATOM     24  H   UNL     1       5.036   6.901  17.867  0.00  0.00    +0.000 HD
ATOM     25  H   UNL     1       4.719   5.430  17.054  0.00  0.00    +0.000 HD
ENDBRANCH  20  23
ENDBRANCH   3  20
BRANCH   6  26
ATOM     26  S   UNL     1       0.384  11.517  18.980  0.00  0.00    +0.000 S 
BRANCH  26  27
ATOM     27  C   UNL     1      -1.314  11.198  18.497  0.00  0.00    +0.000 A 
ATOM     28  C   UNL     1      -2.324  11.917  19.170  0.00  0.00    +0.000 A 
ATOM     29  C   UNL     1      -3.670  11.789  18.806  0.00  0.00    +0.000 A 
ATOM     30  C   UNL     1      -4.014  10.925  17.774  0.00  0.00    +0.000 A 
ATOM     31  F   UNL     1      -5.294  10.840  17.385  0.00  0.00    +0.000 F 
ATOM     32  C   UNL     1      -3.032  10.177  17.136  0.00  0.00    +0.000 A 
ATOM     33  F   UNL     1      -3.370   9.338  16.146  0.00  0.00    +0.000 F 
ATOM     34  C   UNL     1      -1.688  10.303  17.492  0.00  0.00    +0.000 A 
ENDBRANCH  26  27
ENDBRANCH   6  26
TORSDOF 8
ENDMDL
MODEL 9
REMARK VINA RESULT:      -7.7      1.184      1.703
REMARK  Name = 
REMARK  9 active torsions:
REMARK  status: ('A' for Active; 'I' for Inactive)
REMARK    1  A    between atoms: C_1  and  O_2
REMARK    2  A    between atoms: O_2  and  C_3
REMARK    3  A    between atoms: C_6  and  C_7
REMARK    4  A    between atoms: C_7  and  N_8
REMARK    5  A    between atoms: C_9  and  C_11
REMARK    6  A    between atoms: C_13  and  S_14
REMARK    7  A    between atoms: S_14  and  N_15
REMARK    8  A    between atoms: C_20  and  S_21
REMARK    9  A    between atoms: S_21  and  C_22
REMARK                            x       y       z     vdW  Elec       q    Type
REMARK                         _______ _______ _______ _____ _____    ______ ____
ROOT
ATOM      1  C   UNL     1       3.513   5.985  18.484  0.00  0.00    +0.000 A 
ATOM      2  C   UNL     1       2.571   5.155  19.119  0.00  0.00    +0.000 A 
ATOM      3  C   UNL     1       2.944   3.877  19.507  0.00  0.00    +0.000 A 
ATOM      4  C   UNL     1       4.241   3.468  19.296  0.00  0.00    +0.000 A 
ATOM      5  N   UNL     1       5.176   4.251  18.708  0.00  0.00    +0.000 NA
ATOM      6  C   UNL     1       4.821   5.500  18.304  0.00  0.00    +0.000 A 
ENDROOT
BRANCH   1   8
ATOM      7  N   UNL     1       2.189   7.953  18.967  0.00  0.00    +0.000 N 
ATOM      8  C   UNL     1       2.996   7.319  18.070  0.00  0.00    +0.000 C 
ATOM      9  O   UNL     1       3.263   7.763  16.957  0.00  0.00    +0.000 OA
ATOM     10  H   UNL     1       2.179   7.638  19.923  0.00  0.00    +0.000 HD
BRANCH   7  11
ATOM     11  C   UNL     1       1.590   9.235  18.694  0.00  0.00    +0.000 C 
BRANCH  11  15
ATOM     12  C   UNL     1      -0.419  10.807  22.191  0.00  0.00    +0.000 A 
ATOM     13  C   UNL     1      -0.088   9.456  22.102  0.00  0.00    +0.000 A 
ATOM     14  C   UNL     1       0.544   8.952  20.962  0.00  0.00    +0.000 A 
ATOM     15  C   UNL     1       0.856   9.793  19.886  0.00  0.00    +0.000 A 
ATOM     16  C   UNL     1       0.500  11.147  19.973  0.00  0.00    +0.000 A 
ATOM     17  C   UNL     1      -0.139  11.649  21.117  0.00  0.00    +0.000 A 
BRANCH  12  19
ATOM     18  C   UNL     1      -2.271  11.848  23.222  0.00  0.00    +0.000 C 
ATOM     19  O   UNL     1      -1.018  11.186  23.362  0.00  0.00    +0.000 OA
ENDBRANCH  12  19
ENDBRANCH  11  15
ENDBRANCH   7  11
ENDBRANCH   1   8
BRANCH   3  20
ATOM     20  S   UNL     1       1.793   2.770  20.215  0.00  0.00    +0.000 S 
ATOM     21  O   UNL     1       2.317   2.278  21.466  0.00  0.00    +0.000 OA
ATOM     22  O   UNL     1       0.468   3.340  20.086  0.00  0.00    +0.000 OA
BRANCH  20  23
ATOM     23  N   UNL     1       1.867   1.480  19.149  0.00  0.00    +0.000 NA
ATOM     24  H   UNL     1       1.045   1.474  18.544  0.00  0.00    +0.000 HD
ATOM     25  H   UNL     1       2.753   1.483  18.642  0.00  0.00    +0.000 HD
ENDBRANCH  20  23
ENDBRANCH   3  20
BRANCH   6  26
ATOM     26  S   UNL     1       6.149   6.323  17.426  0.00  0.00    +0.000 S 
BRANCH  26  27
ATOM     27  C   UNL     1       6.261   5.526  15.823  0.00  0.00    +0.000 A 
ATOM     28  C   UNL     1       7.518   5.532  15.184  0.00  0.00    +0.000 A 
ATOM     29  C   UNL     1       7.716   4.867  13.967  0.00  0.00    +0.000 A 
ATOM     30  C   UNL     1       6.649   4.206  13.374  0.00  0.00    +0.000 A 
ATOM     31  F   UNL     1       6.846   3.522  12.238  0.00  0.00    +0.000 F 
ATOM     32  C   UNL     1       5.395   4.233  13.971  0.00  0.00    +0.000 A 
ATOM     33  F   UNL     1       4.365   3.599  13.392  0.00  0.00    +0.000 F 
ATOM     34  C   UNL     1       5.191   4.890  15.187  0.00  0.00    +0.000 A 
ENDBRANCH  26  27
ENDBRANCH   6  26
TORSDOF 8
ENDMDL
