MODEL 1
REMARK VINA RESULT:      -6.9      0.000      0.000
REMARK  Name = 
REMARK  6 active torsions:
REMARK  status: ('A' for Active; 'I' for Inactive)
REMARK    1  A    between atoms: C_1  and  N_2
REMARK    2  A    between atoms: C_6  and  C_7
REMARK    3  A    between atoms: C_7  and  C_8
REMARK    4  A    between atoms: C_8  and  N_9
REMARK    5  A    between atoms: C_12  and  C_13
REMARK    6  A    between atoms: C_15  and  N_16
REMARK                            x       y       z     vdW  Elec       q    Type
REMARK                         _______ _______ _______ _____ _____    ______ ____
ROOT
ATOM      1  N   UNL     1       4.979   3.458  17.006  0.00  0.00    +0.000 N 
ATOM      2  C   UNL     1       5.754   3.998  15.969  0.00  0.00    +0.000 A 
ATOM      3  C   UNL     1       5.642   3.462  14.707  0.00  0.00    +0.000 A 
ATOM      4  C   UNL     1       6.384   4.037  13.688  0.00  0.00    +0.000 A 
ATOM      5  N   UNL     1       7.208   5.080  13.933  0.00  0.00    +0.000 NA
ATOM      6  C   UNL     1       7.292   5.495  15.203  0.00  0.00    +0.000 A 
ATOM      7  N   UNL     1       6.599   5.008  16.233  0.00  0.00    +0.000 NA
ATOM      8  H   UNL     1       4.123   3.029  16.666  0.00  0.00    +0.000 HD
ENDROOT
BRANCH   4   9
ATOM      9  C   UNL     1       6.352   3.545  12.204  0.00  0.00    +0.000 C 
ATOM     10  C   UNL     1       5.252   2.510  11.837  0.00  0.00    +0.000 C 
ATOM     11  C   UNL     1       6.283   1.793  10.951  0.00  0.00    +0.000 C 
ATOM     12  C   UNL     1       7.401   2.497  11.736  0.00  0.00    +0.000 C 
BRANCH  11  13
ATOM     13  N   UNL     1       6.279   0.372  11.281  0.00  0.00    +0.000 NA
ATOM     14  H   UNL     1       5.352  -0.041  11.380  0.00  0.00    +0.000 HD
ATOM     15  H   UNL     1       6.769   0.154  12.149  0.00  0.00    +0.000 HD
ENDBRANCH  11  13
ENDBRANCH   4   9
BRANCH   1  16
ATOM     16  C   UNL     1       4.686   4.416  18.080  0.00  0.00    +0.000 C 
BRANCH  16  17
ATOM     17  C   UNL     1       3.254   4.987  17.995  0.00  0.00    +0.000 C 
BRANCH  17  23
ATOM     18  C   UNL     1       1.766   4.956  20.823  0.00  0.00    +0.000 C 
ATOM     19  N   UNL     1       1.612   4.043  19.718  0.00  0.00    +0.000 N 
ATOM     20  N   UNL     1       0.744   3.019  19.839  0.00  0.00    +0.000 NA
ATOM     21  C   UNL     1       0.892   2.401  18.668  0.00  0.00    +0.000 A 
ATOM     22  N   UNL     1       1.773   2.985  17.812  0.00  0.00    +0.000 NA
ATOM     23  C   UNL     1       2.228   4.023  18.491  0.00  0.00    +0.000 A 
ENDBRANCH  17  23
ENDBRANCH  16  17
ENDBRANCH   1  16
TORSDOF 5
ENDMDL
MODEL 2
REMARK VINA RESULT:      -6.9      2.950      7.178
REMARK  Name = 
REMARK  6 active torsions:
REMARK  status: ('A' for Active; 'I' for Inactive)
REMARK    1  A    between atoms: C_1  and  N_2
REMARK    2  A    between atoms: C_6  and  C_7
REMARK    3  A    between atoms: C_7  and  C_8
REMARK    4  A    between atoms: C_8  and  N_9
REMARK    5  A    between atoms: C_12  and  C_13
REMARK    6  A    between atoms: C_15  and  N_16
REMARK                            x       y       z     vdW  Elec       q    Type
REMARK                         _______ _______ _______ _____ _____    ______ ____
ROOT
ATOM      1  N   UNL     1       5.119   4.037  15.824  0.00  0.00    +0.000 N 
ATOM      2  C   UNL     1       4.260   4.681  16.726  0.00  0.00    +0.000 A 
ATOM      3  C   UNL     1       3.321   3.933  17.397  0.00  0.00    +0.000 A 
ATOM      4  C   UNL     1       2.510   4.580  18.316  0.00  0.00    +0.000 A 
ATOM      5  N   UNL     1       2.626   5.910  18.528  0.00  0.00    +0.000 NA
ATOM      6  C   UNL     1       3.530   6.562  17.787  0.00  0.00    +0.000 A 
ATOM      7  N   UNL     1       4.358   6.009  16.900  0.00  0.00    +0.000 NA
ATOM      8  H   UNL     1       5.261   3.058  16.056  0.00  0.00    +0.000 HD
ENDROOT
BRANCH   4   9
ATOM      9  C   UNL     1       1.407   3.863  19.161  0.00  0.00    +0.000 C 
ATOM     10  C   UNL     1       1.225   4.352  20.626  0.00  0.00    +0.000 C 
ATOM     11  C   UNL     1       1.014   2.888  21.042  0.00  0.00    +0.000 C 
ATOM     12  C   UNL     1       1.701   2.450  19.739  0.00  0.00    +0.000 C 
BRANCH  11  13
ATOM     13  N   UNL     1       1.884   2.591  22.175  0.00  0.00    +0.000 NA
ATOM     14  H   UNL     1       2.878   2.729  21.997  0.00  0.00    +0.000 HD
ATOM     15  H   UNL     1       1.799   1.632  22.514  0.00  0.00    +0.000 HD
ENDBRANCH  11  13
ENDBRANCH   4   9
BRANCH   1  16
ATOM     16  C   UNL     1       6.409   4.720  15.653  0.00  0.00    +0.000 C 
BRANCH  16  17
ATOM     17  C   UNL     1       7.279   4.678  16.929  0.00  0.00    +0.000 C 
BRANCH  17  23
ATOM     18  C   UNL     1       8.114   5.558  19.885  0.00  0.00    +0.000 C 
ATOM     19  N   UNL     1       7.976   6.379  18.710  0.00  0.00    +0.000 N 
ATOM     20  N   UNL     1       8.213   7.703  18.812  0.00  0.00    +0.000 NA
ATOM     21  C   UNL     1       7.967   8.118  17.570  0.00  0.00    +0.000 A 
ATOM     22  N   UNL     1       7.619   7.140  16.691  0.00  0.00    +0.000 NA
ATOM     23  C   UNL     1       7.623   6.042  17.426  0.00  0.00    +0.000 A 
ENDBRANCH  17  23
ENDBRANCH  16  17
ENDBRANCH   1  16
TORSDOF 5
ENDMDL
MODEL 3
REMARK VINA RESULT:      -6.8      1.170      1.289
REMARK  Name = 
REMARK  6 active torsions:
REMARK  status: ('A' for Active; 'I' for Inactive)
REMARK    1  A    between atoms: C_1  and  N_2
REMARK    2  A    between atoms: C_6  and  C_7
REMARK    3  A    between atoms: C_7  and  C_8
REMARK    4  A    between atoms: C_8  and  N_9
REMARK    5  A    between atoms: C_12  and  C_13
REMARK    6  A    between atoms: C_15  and  N_16
REMARK                            x       y       z     vdW  Elec       q    Type
REMARK                         _______ _______ _______ _____ _____    ______ ____
ROOT
ATOM      1  N   UNL     1       5.170   3.496  18.139  0.00  0.00    +0.000 N 
ATOM      2  C   UNL     1       5.843   4.215  17.140  0.00  0.00    +0.000 A 
ATOM      3  C   UNL     1       5.557   3.947  15.822  0.00  0.00    +0.000 A 
ATOM      4  C   UNL     1       6.201   4.698  14.851  0.00  0.00    +0.000 A 
ATOM      5  N   UNL     1       7.099   5.649  15.192  0.00  0.00    +0.000 NA
ATOM      6  C   UNL     1       7.352   5.798  16.498  0.00  0.00    +0.000 A 
ATOM      7  N   UNL     1       6.762   5.130  17.490  0.00  0.00    +0.000 NA
ATOM      8  H   UNL     1       4.259   3.166  17.831  0.00  0.00    +0.000 HD
ENDROOT
BRANCH   4   9
ATOM      9  C   UNL     1       5.971   4.516  13.315  0.00  0.00    +0.000 C 
ATOM     10  C   UNL     1       4.925   3.447  12.890  0.00  0.00    +0.000 C 
ATOM     11  C   UNL     1       5.858   3.059  11.731  0.00  0.00    +0.000 C 
ATOM     12  C   UNL     1       7.020   3.724  12.485  0.00  0.00    +0.000 C 
BRANCH  11  13
ATOM     13  N   UNL     1       6.039   1.611  11.739  0.00  0.00    +0.000 NA
ATOM     14  H   UNL     1       6.038   1.176  10.817  0.00  0.00    +0.000 HD
ATOM     15  H   UNL     1       5.327   1.115  12.276  0.00  0.00    +0.000 HD
ENDBRANCH  11  13
ENDBRANCH   4   9
BRANCH   1  16
ATOM     16  C   UNL     1       5.053   4.225  19.409  0.00  0.00    +0.000 C 
BRANCH  16  17
ATOM     17  C   UNL     1       3.727   5.008  19.527  0.00  0.00    +0.000 C 
BRANCH  17  23
ATOM     18  C   UNL     1       2.103   3.394  21.756  0.00  0.00    +0.000 C 
ATOM     19  N   UNL     1       1.863   3.451  20.337  0.00  0.00    +0.000 N 
ATOM     20  N   UNL     1       0.834   2.747  19.824  0.00  0.00    +0.000 NA
ATOM     21  C   UNL     1       0.942   3.018  18.524  0.00  0.00    +0.000 A 
ATOM     22  N   UNL     1       1.952   3.867  18.192  0.00  0.00    +0.000 NA
ATOM     23  C   UNL     1       2.532   4.131  19.350  0.00  0.00    +0.000 A 
ENDBRANCH  17  23
ENDBRANCH  16  17
ENDBRANCH   1  16
TORSDOF 5
ENDMDL
MODEL 4
REMARK VINA RESULT:      -6.8      3.128      4.744
REMARK  Name = 
REMARK  6 active torsions:
REMARK  status: ('A' for Active; 'I' for Inactive)
REMARK    1  A    between atoms: C_1  and  N_2
REMARK    2  A    between atoms: C_6  and  C_7
REMARK    3  A    between atoms: C_7  and  C_8
REMARK    4  A    between atoms: C_8  and  N_9
REMARK    5  A    between atoms: C_12  and  C_13
REMARK    6  A    between atoms: C_15  and  N_16
REMARK                            x       y       z     vdW  Elec       q    Type
REMARK                         _______ _______ _______ _____ _____    ______ ____
ROOT
ATOM      1  N   UNL     1       2.971   5.214  20.605  0.00  0.00    +0.000 N 
ATOM      2  C   UNL     1       3.160   6.068  19.508  0.00  0.00    +0.000 A 
ATOM      3  C   UNL     1       4.260   5.883  18.704  0.00  0.00    +0.000 A 
ATOM      4  C   UNL     1       4.407   6.709  17.602  0.00  0.00    +0.000 A 
ATOM      5  N   UNL     1       3.505   7.681  17.338  0.00  0.00    +0.000 NA
ATOM      6  C   UNL     1       2.497   7.820  18.209  0.00  0.00    +0.000 A 
ATOM      7  N   UNL     1       2.278   7.055  19.279  0.00  0.00    +0.000 NA
ATOM      8  H   UNL     1       3.402   4.304  20.466  0.00  0.00    +0.000 HD
ENDROOT
BRANCH   4   9
ATOM      9  C   UNL     1       5.597   6.613  16.593  0.00  0.00    +0.000 C 
ATOM     10  C   UNL     1       5.775   5.256  15.854  0.00  0.00    +0.000 C 
ATOM     11  C   UNL     1       7.295   5.418  16.011  0.00  0.00    +0.000 C 
ATOM     12  C   UNL     1       7.039   6.424  17.145  0.00  0.00    +0.000 C 
BRANCH  11  13
ATOM     13  N   UNL     1       7.843   4.187  16.569  0.00  0.00    +0.000 NA
ATOM     14  H   UNL     1       8.671   4.313  17.151  0.00  0.00    +0.000 HD
ATOM     15  H   UNL     1       8.110   3.502  15.861  0.00  0.00    +0.000 HD
ENDBRANCH  11  13
ENDBRANCH   4   9
BRANCH   1  16
ATOM     16  C   UNL     1       1.563   5.063  20.995  0.00  0.00    +0.000 C 
BRANCH  16  17
ATOM     17  C   UNL     1       0.955   3.722  20.529  0.00  0.00    +0.000 C 
BRANCH  17  23
ATOM     18  C   UNL     1       1.127   4.097  17.360  0.00  0.00    +0.000 C 
ATOM     19  N   UNL     1       1.877   3.196  18.199  0.00  0.00    +0.000 N 
ATOM     20  N   UNL     1       2.780   2.375  17.626  0.00  0.00    +0.000 NA
ATOM     21  C   UNL     1       3.236   1.698  18.679  0.00  0.00    +0.000 A 
ATOM     22  N   UNL     1       2.699   2.059  19.876  0.00  0.00    +0.000 NA
ATOM     23  C   UNL     1       1.834   3.007  19.558  0.00  0.00    +0.000 A 
ENDBRANCH  17  23
ENDBRANCH  16  17
ENDBRANCH   1  16
TORSDOF 5
ENDMDL
MODEL 5
REMARK VINA RESULT:      -6.7      1.266      1.732
REMARK  Name = 
REMARK  6 active torsions:
REMARK  status: ('A' for Active; 'I' for Inactive)
REMARK    1  A    between atoms: C_1  and  N_2
REMARK    2  A    between atoms: C_6  and  C_7
REMARK    3  A    between atoms: C_7  and  C_8
REMARK    4  A    between atoms: C_8  and  N_9
REMARK    5  A    between atoms: C_12  and  C_13
REMARK    6  A    between atoms: C_15  and  N_16
REMARK                            x       y       z     vdW  Elec       q    Type
REMARK                         _______ _______ _______ _____ _____    ______ ____
ROOT
ATOM      1  N   UNL     1       5.176   3.563  18.182  0.00  0.00    +0.000 N 
ATOM      2  C   UNL     1       5.861   4.249  17.167  0.00  0.00    +0.000 A 
ATOM      3  C   UNL     1       5.539   3.988  15.856  0.00  0.00    +0.000 A 
ATOM      4  C   UNL     1       6.197   4.705  14.870  0.00  0.00    +0.000 A 
ATOM      5  N   UNL     1       7.140   5.619  15.189  0.00  0.00    +0.000 NA
ATOM      6  C   UNL     1       7.424   5.763  16.489  0.00  0.00    +0.000 A 
ATOM      7  N   UNL     1       6.824   5.125  17.495  0.00  0.00    +0.000 NA
ATOM      8  H   UNL     1       4.247   3.271  17.892  0.00  0.00    +0.000 HD
ENDROOT
BRANCH   4   9
ATOM      9  C   UNL     1       5.931   4.527  13.339  0.00  0.00    +0.000 C 
ATOM     10  C   UNL     1       4.910   3.427  12.934  0.00  0.00    +0.000 C 
ATOM     11  C   UNL     1       5.822   3.077  11.748  0.00  0.00    +0.000 C 
ATOM     12  C   UNL     1       6.983   3.775  12.475  0.00  0.00    +0.000 C 
BRANCH  11  13
ATOM     13  N   UNL     1       6.050   1.636  11.739  0.00  0.00    +0.000 NA
ATOM     14  H   UNL     1       6.521   1.274  12.567  0.00  0.00    +0.000 HD
ATOM     15  H   UNL     1       6.607   1.317  10.946  0.00  0.00    +0.000 HD
ENDBRANCH  11  13
ENDBRANCH   4   9
BRANCH   1  16
ATOM     16  C   UNL     1       5.113   4.303  19.449  0.00  0.00    +0.000 C 
BRANCH  16  17
ATOM     17  C   UNL     1       3.821   5.136  19.590  0.00  0.00    +0.000 C 
BRANCH  17  23
ATOM     18  C   UNL     1       1.446   4.114  17.712  0.00  0.00    +0.000 C 
ATOM     19  N   UNL     1       1.639   3.881  19.120  0.00  0.00    +0.000 N 
ATOM     20  N   UNL     1       0.727   3.147  19.788  0.00  0.00    +0.000 NA
ATOM     21  C   UNL     1       1.214   3.172  21.027  0.00  0.00    +0.000 A 
ATOM     22  N   UNL     1       2.385   3.848  21.176  0.00  0.00    +0.000 NA
ATOM     23  C   UNL     1       2.642   4.299  19.960  0.00  0.00    +0.000 A 
ENDBRANCH  17  23
ENDBRANCH  16  17
ENDBRANCH   1  16
TORSDOF 5
ENDMDL
MODEL 6
REMARK VINA RESULT:      -6.7      1.296      1.421
REMARK  Name = 
REMARK  6 active torsions:
REMARK  status: ('A' for Active; 'I' for Inactive)
REMARK    1  A    between atoms: C_1  and  N_2
REMARK    2  A    between atoms: C_6  and  C_7
REMARK    3  A    between atoms: C_7  and  C_8
REMARK    4  A    between atoms: C_8  and  N_9
REMARK    5  A    between atoms: C_12  and  C_13
REMARK    6  A    between atoms: C_15  and  N_16
REMARK                            x       y       z     vdW  Elec       q    Type
REMARK                         _______ _______ _______ _____ _____    ______ ____
ROOT
ATOM      1  N   UNL     1       6.092   3.864  16.736  0.00  0.00    +0.000 N 
ATOM      2  C   UNL     1       6.585   4.288  15.494  0.00  0.00    +0.000 A 
ATOM      3  C   UNL     1       6.264   3.563  14.369  0.00  0.00    +0.000 A 
ATOM      4  C   UNL     1       6.725   4.021  13.146  0.00  0.00    +0.000 A 
ATOM      5  N   UNL     1       7.487   5.135  13.065  0.00  0.00    +0.000 NA
ATOM      6  C   UNL     1       7.793   5.741  14.219  0.00  0.00    +0.000 A 
ATOM      7  N   UNL     1       7.373   5.373  15.430  0.00  0.00    +0.000 NA
ATOM      8  H   UNL     1       5.225   3.340  16.650  0.00  0.00    +0.000 HD
ENDROOT
BRANCH   4   9
ATOM      9  C   UNL     1       6.433   3.312  11.784  0.00  0.00    +0.000 C 
ATOM     10  C   UNL     1       5.296   2.252  11.781  0.00  0.00    +0.000 C 
ATOM     11  C   UNL     1       6.158   1.392  10.844  0.00  0.00    +0.000 C 
ATOM     12  C   UNL     1       7.392   2.187  11.299  0.00  0.00    +0.000 C 
BRANCH  11  13
ATOM     13  N   UNL     1       6.228   0.037  11.381  0.00  0.00    +0.000 NA
ATOM     14  H   UNL     1       5.537  -0.609  11.000  0.00  0.00    +0.000 HD
ATOM     15  H   UNL     1       6.112  -0.006  12.394  0.00  0.00    +0.000 HD
ENDBRANCH  11  13
ENDBRANCH   4   9
BRANCH   1  16
ATOM     16  C   UNL     1       5.941   4.954  17.710  0.00  0.00    +0.000 C 
BRANCH  16  17
ATOM     17  C   UNL     1       4.995   4.588  18.873  0.00  0.00    +0.000 C 
BRANCH  17  23
ATOM     18  C   UNL     1       2.199   5.940  18.118  0.00  0.00    +0.000 C 
ATOM     19  N   UNL     1       2.558   4.545  18.088  0.00  0.00    +0.000 N 
ATOM     20  N   UNL     1       1.631   3.645  17.704  0.00  0.00    +0.000 NA
ATOM     21  C   UNL     1       2.301   2.499  17.825  0.00  0.00    +0.000 A 
ATOM     22  N   UNL     1       3.593   2.624  18.232  0.00  0.00    +0.000 NA
ATOM     23  C   UNL     1       3.743   3.926  18.401  0.00  0.00    +0.000 A 
ENDBRANCH  17  23
ENDBRANCH  16  17
ENDBRANCH   1  16
TORSDOF 5
ENDMDL
MODEL 7
REMARK VINA RESULT:      -6.6      1.420      1.608
REMARK  Name = 
REMARK  6 active torsions:
REMARK  status: ('A' for Active; 'I' for Inactive)
REMARK    1  A    between atoms: C_1  and  N_2
REMARK    2  A    between atoms: C_6  and  C_7
REMARK    3  A    between atoms: C_7  and  C_8
REMARK    4  A    between atoms: C_8  and  N_9
REMARK    5  A    between atoms: C_12  and  C_13
REMARK    6  A    between atoms: C_15  and  N_16
REMARK                            x       y       z     vdW  Elec       q    Type
REMARK                         _______ _______ _______ _____ _____    ______ ____
ROOT
ATOM      1  N   UNL     1       3.870   4.968  17.453  0.00  0.00    +0.000 N 
ATOM      2  C   UNL     1       5.026   4.813  16.675  0.00  0.00    +0.000 A 
ATOM      3  C   UNL     1       4.893   4.609  15.321  0.00  0.00    +0.000 A 
ATOM      4  C   UNL     1       6.047   4.501  14.563  0.00  0.00    +0.000 A 
ATOM      5  N   UNL     1       7.267   4.572  15.141  0.00  0.00    +0.000 NA
ATOM      6  C   UNL     1       7.294   4.715  16.472  0.00  0.00    +0.000 A 
ATOM      7  N   UNL     1       6.231   4.846  17.266  0.00  0.00    +0.000 NA
ATOM      8  H   UNL     1       3.089   5.337  16.917  0.00  0.00    +0.000 HD
ENDROOT
BRANCH   4   9
ATOM      9  C   UNL     1       6.055   4.279  13.015  0.00  0.00    +0.000 C 
ATOM     10  C   UNL     1       4.956   3.340  12.441  0.00  0.00    +0.000 C 
ATOM     11  C   UNL     1       6.005   2.776  11.470  0.00  0.00    +0.000 C 
ATOM     12  C   UNL     1       7.107   3.314  12.397  0.00  0.00    +0.000 C 
BRANCH  11  13
ATOM     13  N   UNL     1       5.977   1.319  11.544  0.00  0.00    +0.000 NA
ATOM     14  H   UNL     1       6.866   0.887  11.792  0.00  0.00    +0.000 HD
ATOM     15  H   UNL     1       5.692   0.873  10.671  0.00  0.00    +0.000 HD
ENDBRANCH  11  13
ENDBRANCH   4   9
BRANCH   1  16
ATOM     16  C   UNL     1       4.084   5.766  18.668  0.00  0.00    +0.000 C 
BRANCH  16  17
ATOM     17  C   UNL     1       3.264   5.251  19.871  0.00  0.00    +0.000 C 
BRANCH  17  23
ATOM     18  C   UNL     1       4.281   2.228  20.069  0.00  0.00    +0.000 C 
ATOM     19  N   UNL     1       2.991   2.715  19.652  0.00  0.00    +0.000 N 
ATOM     20  N   UNL     1       2.050   1.824  19.279  0.00  0.00    +0.000 NA
ATOM     21  C   UNL     1       1.038   2.623  18.946  0.00  0.00    +0.000 A 
ATOM     22  N   UNL     1       1.271   3.953  19.112  0.00  0.00    +0.000 NA
ATOM     23  C   UNL     1       2.515   4.000  19.555  0.00  0.00    +0.000 A 
ENDBRANCH  17  23
ENDBRANCH  16  17
ENDBRANCH   1  16
TORSDOF 5
ENDMDL
MODEL 8
REMARK VINA RESULT:      -6.6      3.598      8.901
REMARK  Name = 
REMARK  6 active torsions:
REMARK  status: ('A' for Active; 'I' for Inactive)
REMARK    1  A    between atoms: C_1  and  N_2
REMARK    2  A    between atoms: C_6  and  C_7
REMARK    3  A    between atoms: C_7  and  C_8
REMARK    4  A    between atoms: C_8  and  N_9
REMARK    5  A    between atoms: C_12  and  C_13
REMARK    6  A    between atoms: C_15  and  N_16
REMARK                            x       y       z     vdW  Elec       q    Type
REMARK                         _______ _______ _______ _____ _____    ______ ____
ROOT
ATOM      1  N   UNL     1       3.396   5.593  19.837  0.00  0.00    +0.000 N 
ATOM      2  C   UNL     1       2.773   6.765  19.384  0.00  0.00    +0.000 A 
ATOM      3  C   UNL     1       1.865   7.394  20.203  0.00  0.00    +0.000 A 
ATOM      4  C   UNL     1       1.292   8.574  19.755  0.00  0.00    +0.000 A 
ATOM      5  N   UNL     1       1.602   9.078  18.540  0.00  0.00    +0.000 NA
ATOM      6  C   UNL     1       2.453   8.364  17.792  0.00  0.00    +0.000 A 
ATOM      7  N   UNL     1       3.059   7.235  18.158  0.00  0.00    +0.000 NA
ATOM      8  H   UNL     1       3.451   5.552  20.851  0.00  0.00    +0.000 HD
ENDROOT
BRANCH   4   9
ATOM      9  C   UNL     1       0.255   9.406  20.577  0.00  0.00    +0.000 C 
ATOM     10  C   UNL     1       0.831  10.365  21.657  0.00  0.00    +0.000 C 
ATOM     11  C   UNL     1      -0.339   9.968  22.572  0.00  0.00    +0.000 C 
ATOM     12  C   UNL     1      -0.538   8.706  21.718  0.00  0.00    +0.000 C 
BRANCH  11  13
ATOM     13  N   UNL     1       0.193   9.592  23.878  0.00  0.00    +0.000 NA
ATOM     14  H   UNL     1       0.511   8.626  23.947  0.00  0.00    +0.000 HD
ATOM     15  H   UNL     1      -0.475   9.714  24.640  0.00  0.00    +0.000 HD
ENDBRANCH  11  13
ENDBRANCH   4   9
BRANCH   1  16
ATOM     16  C   UNL     1       4.717   5.362  19.238  0.00  0.00    +0.000 C 
BRANCH  16  17
ATOM     17  C   UNL     1       4.751   4.113  18.331  0.00  0.00    +0.000 C 
BRANCH  17  23
ATOM     18  C   UNL     1       7.887   4.633  18.007  0.00  0.00    +0.000 C 
ATOM     19  N   UNL     1       6.878   4.565  16.980  0.00  0.00    +0.000 N 
ATOM     20  N   UNL     1       7.246   4.741  15.695  0.00  0.00    +0.000 NA
ATOM     21  C   UNL     1       6.078   4.639  15.063  0.00  0.00    +0.000 A 
ATOM     22  N   UNL     1       5.008   4.381  15.862  0.00  0.00    +0.000 NA
ATOM     23  C   UNL     1       5.526   4.342  17.077  0.00  0.00    +0.000 A 
ENDBRANCH  17  23
ENDBRANCH  16  17
ENDBRANCH   1  16
TORSDOF 5
ENDMDL
MODEL 9
REMARK VINA RESULT:      -6.6      3.125      4.740
REMARK  Name = 
REMARK  6 active torsions:
REMARK  status: ('A' for Active; 'I' for Inactive)
REMARK    1  A    between atoms: C_1  and  N_2
REMARK    2  A    between atoms: C_6  and  C_7
REMARK    3  A    between atoms: C_7  and  C_8
REMARK    4  A    between atoms: C_8  and  N_9
REMARK    5  A    between atoms: C_12  and  C_13
REMARK    6  A    between atoms: C_15  and  N_16
REMARK                            x       y       z     vdW  Elec       q    Type
REMARK                         _______ _______ _______ _____ _____    ______ ____
ROOT
ATOM      1  N   UNL     1       2.944   5.189  20.543  0.00  0.00    +0.000 N 
ATOM      2  C   UNL     1       3.088   6.059  19.453  0.00  0.00    +0.000 A 
ATOM      3  C   UNL     1       4.192   5.932  18.643  0.00  0.00    +0.000 A 
ATOM      4  C   UNL     1       4.295   6.773  17.547  0.00  0.00    +0.000 A 
ATOM      5  N   UNL     1       3.348   7.704  17.295  0.00  0.00    +0.000 NA
ATOM      6  C   UNL     1       2.339   7.789  18.171  0.00  0.00    +0.000 A 
ATOM      7  N   UNL     1       2.161   7.006  19.236  0.00  0.00    +0.000 NA
ATOM      8  H   UNL     1       3.417   4.301  20.395  0.00  0.00    +0.000 HD
ENDROOT
BRANCH   4   9
ATOM      9  C   UNL     1       5.484   6.740  16.532  0.00  0.00    +0.000 C 
ATOM     10  C   UNL     1       5.701   5.408  15.758  0.00  0.00    +0.000 C 
ATOM     11  C   UNL     1       7.216   5.615  15.915  0.00  0.00    +0.000 C 
ATOM     12  C   UNL     1       6.933   6.584  17.074  0.00  0.00    +0.000 C 
BRANCH  11  13
ATOM     13  N   UNL     1       7.806   4.388  16.439  0.00  0.00    +0.000 NA
ATOM     14  H   UNL     1       7.898   4.359  17.454  0.00  0.00    +0.000 HD
ATOM     15  H   UNL     1       8.740   4.197  16.075  0.00  0.00    +0.000 HD
ENDBRANCH  11  13
ENDBRANCH   4   9
BRANCH   1  16
ATOM     16  C   UNL     1       1.546   4.970  20.938  0.00  0.00    +0.000 C 
BRANCH  16  17
ATOM     17  C   UNL     1       1.049   3.546  20.607  0.00  0.00    +0.000 C 
BRANCH  17  23
ATOM     18  C   UNL     1       3.850   2.010  20.693  0.00  0.00    +0.000 C 
ATOM     19  N   UNL     1       3.009   2.278  19.554  0.00  0.00    +0.000 N 
ATOM     20  N   UNL     1       3.407   1.854  18.338  0.00  0.00    +0.000 NA
ATOM     21  C   UNL     1       2.419   2.294  17.561  0.00  0.00    +0.000 A 
ATOM     22  N   UNL     1       1.415   2.941  18.212  0.00  0.00    +0.000 NA
ATOM     23  C   UNL     1       1.803   2.930  19.476  0.00  0.00    +0.000 A 
ENDBRANCH  17  23
ENDBRANCH  16  17
ENDBRANCH   1  16
TORSDOF 5
ENDMDL
