MODEL 1
REMARK VINA RESULT:      -7.5      0.000      0.000
REMARK  Name = 
REMARK  3 active torsions:
REMARK  status: ('A' for Active; 'I' for Inactive)
REMARK    1  A    between atoms: C_1  and  C_2
REMARK    2  A    between atoms: C_11  and  N_12
REMARK    3  A    between atoms: C_13  and  C_15
REMARK                            x       y       z     vdW  Elec       q    Type
REMARK                         _______ _______ _______ _____ _____    ______ ____
ROOT
ATOM      1  C   UNL     1       1.362   3.692  20.859  0.00  0.00    +0.000 C 
ATOM      2  C   UNL     1       2.149   4.626  19.988  0.00  0.00    +0.000 A 
ATOM      3  C   UNL     1       3.151   4.176  19.221  0.00  0.00    +0.000 A 
ATOM      4  C   UNL     1       3.866   5.154  18.391  0.00  0.00    +0.000 A 
ATOM      5  O   UNL     1       4.821   4.828  17.698  0.00  0.00    +0.000 OA
ATOM      6  N   UNL     1       3.390   6.425  18.459  0.00  0.00    +0.000 N 
ATOM      7  C   UNL     1       2.373   6.803  19.289  0.00  0.00    +0.000 A 
ATOM      8  N   UNL     1       2.046   8.148  19.295  0.00  0.00    +0.000 N 
ATOM      9  C   UNL     1       1.693   8.783  18.015  0.00  0.00    +0.000 C 
ATOM     10  C   UNL     1       1.855  10.292  18.122  0.00  0.00    +0.000 C 
ATOM     11  C   UNL     1       1.000  10.869  19.256  0.00  0.00    +0.000 C 
ATOM     12  C   UNL     1       1.328  10.138  20.563  0.00  0.00    +0.000 C 
ATOM     13  C   UNL     1       1.214   8.623  20.413  0.00  0.00    +0.000 C 
ATOM     14  N   UNL     1       1.764   5.942  20.048  0.00  0.00    +0.000 NA
ATOM     15  H   UNL     1       3.894   7.121  17.938  0.00  0.00    +0.000 HD
ENDROOT
BRANCH  11  16
ATOM     16  N   UNL     1      -0.435  10.821  18.967  0.00  0.00    +0.000 N 
ATOM     17  C   UNL     1      -1.128  11.921  18.505  0.00  0.00    +0.000 C 
ATOM     18  O   UNL     1      -0.610  13.009  18.287  0.00  0.00    +0.000 OA
ATOM     19  H   UNL     1      -0.916   9.937  19.068  0.00  0.00    +0.000 HD
BRANCH  17  20
ATOM     20  C   UNL     1      -2.577  11.734  18.223  0.00  0.00    +0.000 A 
ATOM     21  C   UNL     1      -3.036  11.212  17.006  0.00  0.00    +0.000 A 
ATOM     22  C   UNL     1      -4.405  11.021  16.803  0.00  0.00    +0.000 A 
ATOM     23  C   UNL     1      -5.308  11.350  17.811  0.00  0.00    +0.000 A 
ATOM     24  F   UNL     1      -6.615  11.147  17.592  0.00  0.00    +0.000 F 
ATOM     25  C   UNL     1      -4.859  11.868  19.023  0.00  0.00    +0.000 A 
ATOM     26 CL   UNL     1      -5.975  12.272  20.270  0.00  0.00    +0.000 Cl
ATOM     27  C   UNL     1      -3.493  12.058  19.235  0.00  0.00    +0.000 A 
ENDBRANCH  17  20
ENDBRANCH  11  16
TORSDOF 2
ENDMDL
MODEL 2
REMARK VINA RESULT:      -7.5      3.980      8.337
REMARK  Name = 
REMARK  3 active torsions:
REMARK  status: ('A' for Active; 'I' for Inactive)
REMARK    1  A    between atoms: C_1  and  C_2
REMARK    2  A    between atoms: C_11  and  N_12
REMARK    3  A    between atoms: C_13  and  C_15
REMARK                            x       y       z     vdW  Elec       q    Type
REMARK                         _______ _______ _______ _____ _____    ______ ____
ROOT
ATOM      1  C   UNL     1      -3.605  10.061  14.831  0.00  0.00    +0.000 C 
ATOM      2  C   UNL     1      -3.378  10.585  16.218  0.00  0.00    +0.000 A 
ATOM      3  C   UNL     1      -4.291  11.356  16.824  0.00  0.00    +0.000 A 
ATOM      4  C   UNL     1      -3.995  11.821  18.185  0.00  0.00    +0.000 A 
ATOM      5  O   UNL     1      -4.759  12.565  18.787  0.00  0.00    +0.000 OA
ATOM      6  N   UNL     1      -2.825  11.368  18.708  0.00  0.00    +0.000 N 
ATOM      7  C   UNL     1      -1.938  10.600  18.009  0.00  0.00    +0.000 A 
ATOM      8  N   UNL     1      -0.759  10.273  18.655  0.00  0.00    +0.000 N 
ATOM      9  C   UNL     1      -0.844   9.593  19.958  0.00  0.00    +0.000 C 
ATOM     10  C   UNL     1       0.462   9.765  20.719  0.00  0.00    +0.000 C 
ATOM     11  C   UNL     1       1.653   9.229  19.917  0.00  0.00    +0.000 C 
ATOM     12  C   UNL     1       1.676   9.894  18.535  0.00  0.00    +0.000 C 
ATOM     13  C   UNL     1       0.337   9.758  17.816  0.00  0.00    +0.000 C 
ATOM     14  N   UNL     1      -2.187  10.217  16.792  0.00  0.00    +0.000 NA
ATOM     15  H   UNL     1      -2.578  11.713  19.619  0.00  0.00    +0.000 HD
ENDROOT
BRANCH  11  16
ATOM     16  N   UNL     1       1.653   7.769  19.804  0.00  0.00    +0.000 N 
ATOM     17  C   UNL     1       2.476   7.101  18.921  0.00  0.00    +0.000 C 
ATOM     18  O   UNL     1       3.274   7.659  18.179  0.00  0.00    +0.000 OA
ATOM     19  H   UNL     1       1.060   7.240  20.429  0.00  0.00    +0.000 HD
BRANCH  17  20
ATOM     20  C   UNL     1       2.398   5.615  18.922  0.00  0.00    +0.000 A 
ATOM     21  C   UNL     1       2.704   4.854  17.785  0.00  0.00    +0.000 A 
ATOM     22  C   UNL     1       2.652   3.460  17.846  0.00  0.00    +0.000 A 
ATOM     23  C   UNL     1       2.297   2.831  19.037  0.00  0.00    +0.000 A 
ATOM     24  F   UNL     1       2.265   1.491  19.069  0.00  0.00    +0.000 F 
ATOM     25  C   UNL     1       1.993   3.579  20.171  0.00  0.00    +0.000 A 
ATOM     26 CL   UNL     1       1.556   2.802  21.644  0.00  0.00    +0.000 Cl
ATOM     27  C   UNL     1       2.046   4.973  20.119  0.00  0.00    +0.000 A 
ENDBRANCH  17  20
ENDBRANCH  11  16
TORSDOF 2
ENDMDL
MODEL 3
REMARK VINA RESULT:      -7.4      3.852      8.347
REMARK  Name = 
REMARK  3 active torsions:
REMARK  status: ('A' for Active; 'I' for Inactive)
REMARK    1  A    between atoms: C_1  and  C_2
REMARK    2  A    between atoms: C_11  and  N_12
REMARK    3  A    between atoms: C_13  and  C_15
REMARK                            x       y       z     vdW  Elec       q    Type
REMARK                         _______ _______ _______ _____ _____    ______ ____
ROOT
ATOM      1  C   UNL     1      -4.598  10.944  16.672  0.00  0.00    +0.000 C 
ATOM      2  C   UNL     1      -3.853  11.386  17.896  0.00  0.00    +0.000 A 
ATOM      3  C   UNL     1      -4.396  12.253  18.761  0.00  0.00    +0.000 A 
ATOM      4  C   UNL     1      -3.603  12.628  19.939  0.00  0.00    +0.000 A 
ATOM      5  O   UNL     1      -4.013  13.447  20.750  0.00  0.00    +0.000 OA
ATOM      6  N   UNL     1      -2.401  12.003  20.047  0.00  0.00    +0.000 N 
ATOM      7  C   UNL     1      -1.912  11.146  19.103  0.00  0.00    +0.000 A 
ATOM      8  N   UNL     1      -0.642  10.641  19.322  0.00  0.00    +0.000 N 
ATOM      9  C   UNL     1      -0.383   9.936  20.588  0.00  0.00    +0.000 C 
ATOM     10  C   UNL     1       1.112   9.904  20.868  0.00  0.00    +0.000 C 
ATOM     11  C   UNL     1       1.883   9.239  19.721  0.00  0.00    +0.000 C 
ATOM     12  C   UNL     1       1.536   9.940  18.402  0.00  0.00    +0.000 C 
ATOM     13  C   UNL     1       0.029  10.011  18.173  0.00  0.00    +0.000 C 
ATOM     14  N   UNL     1      -2.601  10.841  18.044  0.00  0.00    +0.000 NA
ATOM     15  H   UNL     1      -1.820  12.281  20.818  0.00  0.00    +0.000 HD
ENDROOT
BRANCH  11  16
ATOM     16  N   UNL     1       1.642   7.797  19.635  0.00  0.00    +0.000 N 
ATOM     17  C   UNL     1       2.469   6.956  18.919  0.00  0.00    +0.000 C 
ATOM     18  O   UNL     1       3.466   7.333  18.316  0.00  0.00    +0.000 OA
ATOM     19  H   UNL     1       0.869   7.407  20.157  0.00  0.00    +0.000 HD
BRANCH  17  20
ATOM     20  C   UNL     1       2.131   5.508  18.932  0.00  0.00    +0.000 A 
ATOM     21  C   UNL     1       2.057   4.751  17.754  0.00  0.00    +0.000 A 
ATOM     22  C   UNL     1       1.772   3.386  17.821  0.00  0.00    +0.000 A 
ATOM     23  C   UNL     1       1.562   2.781  19.058  0.00  0.00    +0.000 A 
ATOM     24  F   UNL     1       1.300   1.466  19.093  0.00  0.00    +0.000 F 
ATOM     25  C   UNL     1       1.635   3.525  20.233  0.00  0.00    +0.000 A 
ATOM     26 CL   UNL     1       1.378   2.777  21.762  0.00  0.00    +0.000 Cl
ATOM     27  C   UNL     1       1.923   4.889  20.175  0.00  0.00    +0.000 A 
ENDBRANCH  17  20
ENDBRANCH  11  16
TORSDOF 2
ENDMDL
MODEL 4
REMARK VINA RESULT:      -7.3      1.759      2.070
REMARK  Name = 
REMARK  3 active torsions:
REMARK  status: ('A' for Active; 'I' for Inactive)
REMARK    1  A    between atoms: C_1  and  C_2
REMARK    2  A    between atoms: C_11  and  N_12
REMARK    3  A    between atoms: C_13  and  C_15
REMARK                            x       y       z     vdW  Elec       q    Type
REMARK                         _______ _______ _______ _____ _____    ______ ____
ROOT
ATOM      1  C   UNL     1       1.171   2.392  18.745  0.00  0.00    +0.000 C 
ATOM      2  C   UNL     1       2.121   3.461  18.291  0.00  0.00    +0.000 A 
ATOM      3  C   UNL     1       3.180   3.165  17.527  0.00  0.00    +0.000 A 
ATOM      4  C   UNL     1       4.056   4.272  17.119  0.00  0.00    +0.000 A 
ATOM      5  O   UNL     1       5.068   4.076  16.458  0.00  0.00    +0.000 OA
ATOM      6  N   UNL     1       3.658   5.504  17.532  0.00  0.00    +0.000 N 
ATOM      7  C   UNL     1       2.571   5.714  18.332  0.00  0.00    +0.000 A 
ATOM      8  N   UNL     1       2.334   7.020  18.724  0.00  0.00    +0.000 N 
ATOM      9  C   UNL     1       2.187   8.044  17.677  0.00  0.00    +0.000 C 
ATOM     10  C   UNL     1       2.432   9.426  18.265  0.00  0.00    +0.000 C 
ATOM     11  C   UNL     1       1.479   9.716  19.430  0.00  0.00    +0.000 C 
ATOM     12  C   UNL     1       1.592   8.595  20.470  0.00  0.00    +0.000 C 
ATOM     13  C   UNL     1       1.400   7.217  19.845  0.00  0.00    +0.000 C 
ATOM     14  N   UNL     1       1.817   4.730  18.719  0.00  0.00    +0.000 NA
ATOM     15  H   UNL     1       4.269   6.270  17.307  0.00  0.00    +0.000 HD
ENDROOT
BRANCH  11  16
ATOM     16  N   UNL     1       0.092   9.902  18.998  0.00  0.00    +0.000 N 
ATOM     17  C   UNL     1      -0.436  11.151  18.742  0.00  0.00    +0.000 C 
ATOM     18  O   UNL     1       0.202  12.192  18.838  0.00  0.00    +0.000 OA
ATOM     19  H   UNL     1      -0.476   9.081  18.840  0.00  0.00    +0.000 HD
BRANCH  17  20
ATOM     20  C   UNL     1      -1.850  11.203  18.283  0.00  0.00    +0.000 A 
ATOM     21  C   UNL     1      -2.868  11.750  19.076  0.00  0.00    +0.000 A 
ATOM     22  C   UNL     1      -4.175  11.809  18.587  0.00  0.00    +0.000 A 
ATOM     23  C   UNL     1      -4.461  11.325  17.312  0.00  0.00    +0.000 A 
ATOM     24  F   UNL     1      -5.722  11.404  16.864  0.00  0.00    +0.000 F 
ATOM     25  C   UNL     1      -3.454  10.782  16.518  0.00  0.00    +0.000 A 
ATOM     26 CL   UNL     1      -3.807  10.185  14.942  0.00  0.00    +0.000 Cl
ATOM     27  C   UNL     1      -2.146  10.722  16.998  0.00  0.00    +0.000 A 
ENDBRANCH  17  20
ENDBRANCH  11  16
TORSDOF 2
ENDMDL
MODEL 5
REMARK VINA RESULT:      -7.2      1.311      1.627
REMARK  Name = 
REMARK  3 active torsions:
REMARK  status: ('A' for Active; 'I' for Inactive)
REMARK    1  A    between atoms: C_1  and  C_2
REMARK    2  A    between atoms: C_11  and  N_12
REMARK    3  A    between atoms: C_13  and  C_15
REMARK                            x       y       z     vdW  Elec       q    Type
REMARK                         _______ _______ _______ _____ _____    ______ ____
ROOT
ATOM      1  C   UNL     1       1.274   3.415  21.112  0.00  0.00    +0.000 C 
ATOM      2  C   UNL     1       2.158   4.296  20.279  0.00  0.00    +0.000 A 
ATOM      3  C   UNL     1       3.196   3.791  19.601  0.00  0.00    +0.000 A 
ATOM      4  C   UNL     1       4.006   4.720  18.803  0.00  0.00    +0.000 A 
ATOM      5  O   UNL     1       4.997   4.342  18.192  0.00  0.00    +0.000 OA
ATOM      6  N   UNL     1       3.574   6.009  18.805  0.00  0.00    +0.000 N 
ATOM      7  C   UNL     1       2.514   6.445  19.547  0.00  0.00    +0.000 A 
ATOM      8  N   UNL     1       2.237   7.800  19.496  0.00  0.00    +0.000 N 
ATOM      9  C   UNL     1       2.004   8.413  18.178  0.00  0.00    +0.000 C 
ATOM     10  C   UNL     1       2.215   9.918  18.261  0.00  0.00    +0.000 C 
ATOM     11  C   UNL     1       1.300  10.555  19.314  0.00  0.00    +0.000 C 
ATOM     12  C   UNL     1       1.503   9.848  20.659  0.00  0.00    +0.000 C 
ATOM     13  C   UNL     1       1.344   8.335  20.537  0.00  0.00    +0.000 C 
ATOM     14  N   UNL     1       1.818   5.627  20.278  0.00  0.00    +0.000 NA
ATOM     15  H   UNL     1       4.142   6.672  18.307  0.00  0.00    +0.000 HD
ENDROOT
BRANCH  11  16
ATOM     16  N   UNL     1      -0.111  10.550  18.918  0.00  0.00    +0.000 N 
ATOM     17  C   UNL     1      -0.781  11.706  18.577  0.00  0.00    +0.000 C 
ATOM     18  O   UNL     1      -0.262  12.815  18.562  0.00  0.00    +0.000 OA
ATOM     19  H   UNL     1      -0.588   9.661  18.852  0.00  0.00    +0.000 HD
BRANCH  17  20
ATOM     20  C   UNL     1      -2.204  11.563  18.169  0.00  0.00    +0.000 A 
ATOM     21  C   UNL     1      -3.260  11.961  19.001  0.00  0.00    +0.000 A 
ATOM     22  C   UNL     1      -4.579  11.840  18.558  0.00  0.00    +0.000 A 
ATOM     23  C   UNL     1      -4.840  11.326  17.290  0.00  0.00    +0.000 A 
ATOM     24  F   UNL     1      -6.116  11.231  16.887  0.00  0.00    +0.000 F 
ATOM     25  C   UNL     1      -3.797  10.930  16.457  0.00  0.00    +0.000 A 
ATOM     26 CL   UNL     1      -4.120  10.297  14.889  0.00  0.00    +0.000 Cl
ATOM     27  C   UNL     1      -2.477  11.051  16.891  0.00  0.00    +0.000 A 
ENDBRANCH  17  20
ENDBRANCH  11  16
TORSDOF 2
ENDMDL
MODEL 6
REMARK VINA RESULT:      -7.2      1.127      1.178
REMARK  Name = 
REMARK  3 active torsions:
REMARK  status: ('A' for Active; 'I' for Inactive)
REMARK    1  A    between atoms: C_1  and  C_2
REMARK    2  A    between atoms: C_11  and  N_12
REMARK    3  A    between atoms: C_13  and  C_15
REMARK                            x       y       z     vdW  Elec       q    Type
REMARK                         _______ _______ _______ _____ _____    ______ ____
ROOT
ATOM      1  C   UNL     1       1.295   2.461  19.385  0.00  0.00    +0.000 C 
ATOM      2  C   UNL     1       2.176   3.505  18.765  0.00  0.00    +0.000 A 
ATOM      3  C   UNL     1       3.183   3.165  17.950  0.00  0.00    +0.000 A 
ATOM      4  C   UNL     1       3.993   4.248  17.378  0.00  0.00    +0.000 A 
ATOM      5  O   UNL     1       4.957   4.016  16.660  0.00  0.00    +0.000 OA
ATOM      6  N   UNL     1       3.593   5.504  17.710  0.00  0.00    +0.000 N 
ATOM      7  C   UNL     1       2.564   5.762  18.571  0.00  0.00    +0.000 A 
ATOM      8  N   UNL     1       2.319   7.092  18.863  0.00  0.00    +0.000 N 
ATOM      9  C   UNL     1       2.064   8.015  17.744  0.00  0.00    +0.000 C 
ATOM     10  C   UNL     1       2.313   9.449  18.186  0.00  0.00    +0.000 C 
ATOM     11  C   UNL     1       1.444   9.822  19.393  0.00  0.00    +0.000 C 
ATOM     12  C   UNL     1       1.667   8.803  20.516  0.00  0.00    +0.000 C 
ATOM     13  C   UNL     1       1.469   7.370  20.032  0.00  0.00    +0.000 C 
ATOM     14  N   UNL     1       1.870   4.801  19.102  0.00  0.00    +0.000 NA
ATOM     15  H   UNL     1       4.162   6.260  17.371  0.00  0.00    +0.000 HD
ENDROOT
BRANCH  11  16
ATOM     16  N   UNL     1       0.023   9.938  19.055  0.00  0.00    +0.000 N 
ATOM     17  C   UNL     1      -0.541  11.133  18.657  0.00  0.00    +0.000 C 
ATOM     18  O   UNL     1       0.087  12.177  18.540  0.00  0.00    +0.000 OA
ATOM     19  H   UNL     1      -0.544   9.102  19.073  0.00  0.00    +0.000 HD
BRANCH  17  20
ATOM     20  C   UNL     1      -1.989  11.112  18.317  0.00  0.00    +0.000 A 
ATOM     21  C   UNL     1      -2.498  10.316  17.280  0.00  0.00    +0.000 A 
ATOM     22  C   UNL     1      -3.870  10.303  17.023  0.00  0.00    +0.000 A 
ATOM     23  C   UNL     1      -4.729  11.079  17.797  0.00  0.00    +0.000 A 
ATOM     24  F   UNL     1      -6.043  11.039  17.534  0.00  0.00    +0.000 F 
ATOM     25  C   UNL     1      -4.232  11.871  18.829  0.00  0.00    +0.000 A 
ATOM     26 CL   UNL     1      -5.293  12.830  19.788  0.00  0.00    +0.000 Cl
ATOM     27  C   UNL     1      -2.862  11.887  19.095  0.00  0.00    +0.000 A 
ENDBRANCH  17  20
ENDBRANCH  11  16
TORSDOF 2
ENDMDL
MODEL 7
REMARK VINA RESULT:      -7.0      4.121      8.395
REMARK  Name = 
REMARK  3 active torsions:
REMARK  status: ('A' for Active; 'I' for Inactive)
REMARK    1  A    between atoms: C_1  and  C_2
REMARK    2  A    between atoms: C_11  and  N_12
REMARK    3  A    between atoms: C_13  and  C_15
REMARK                            x       y       z     vdW  Elec       q    Type
REMARK                         _______ _______ _______ _____ _____    ______ ____
ROOT
ATOM      1  C   UNL     1      -3.653   9.855  14.843  0.00  0.00    +0.000 C 
ATOM      2  C   UNL     1      -3.500  10.497  16.190  0.00  0.00    +0.000 A 
ATOM      3  C   UNL     1      -4.452  11.299  16.686  0.00  0.00    +0.000 A 
ATOM      4  C   UNL     1      -4.227  11.881  18.016  0.00  0.00    +0.000 A 
ATOM      5  O   UNL     1      -5.029  12.658  18.517  0.00  0.00    +0.000 OA
ATOM      6  N   UNL     1      -3.077  11.494  18.628  0.00  0.00    +0.000 N 
ATOM      7  C   UNL     1      -2.147  10.686  18.038  0.00  0.00    +0.000 A 
ATOM      8  N   UNL     1      -0.995  10.436  18.762  0.00  0.00    +0.000 N 
ATOM      9  C   UNL     1      -1.133   9.865  20.113  0.00  0.00    +0.000 C 
ATOM     10  C   UNL     1       0.133  10.123  20.917  0.00  0.00    +0.000 C 
ATOM     11  C   UNL     1       1.369   9.544  20.218  0.00  0.00    +0.000 C 
ATOM     12  C   UNL     1       1.447  10.092  18.788  0.00  0.00    +0.000 C 
ATOM     13  C   UNL     1       0.146   9.873  18.022  0.00  0.00    +0.000 C 
ATOM     14  N   UNL     1      -2.332  10.199  16.847  0.00  0.00    +0.000 NA
ATOM     15  H   UNL     1      -2.879  11.918  19.517  0.00  0.00    +0.000 HD
ENDROOT
BRANCH  11  16
ATOM     16  N   UNL     1       1.394   8.080  20.228  0.00  0.00    +0.000 N 
ATOM     17  C   UNL     1       2.208   7.354  19.384  0.00  0.00    +0.000 C 
ATOM     18  O   UNL     1       2.977   7.861  18.577  0.00  0.00    +0.000 OA
ATOM     19  H   UNL     1       0.827   7.595  20.911  0.00  0.00    +0.000 HD
BRANCH  17  20
ATOM     20  C   UNL     1       2.160   5.873  19.512  0.00  0.00    +0.000 A 
ATOM     21  C   UNL     1       1.776   5.242  20.703  0.00  0.00    +0.000 A 
ATOM     22  C   UNL     1       1.711   3.848  20.763  0.00  0.00    +0.000 A 
ATOM     23  C   UNL     1       2.027   3.090  19.638  0.00  0.00    +0.000 A 
ATOM     24  F   UNL     1       1.947   1.755  19.721  0.00  0.00    +0.000 F 
ATOM     25  C   UNL     1       2.408   3.710  18.450  0.00  0.00    +0.000 A 
ATOM     26 CL   UNL     1       2.798   2.773  17.059  0.00  0.00    +0.000 Cl
ATOM     27  C   UNL     1       2.472   5.102  18.381  0.00  0.00    +0.000 A 
ENDBRANCH  17  20
ENDBRANCH  11  16
TORSDOF 2
ENDMDL
MODEL 8
REMARK VINA RESULT:      -7.0      4.669      8.478
REMARK  Name = 
REMARK  3 active torsions:
REMARK  status: ('A' for Active; 'I' for Inactive)
REMARK    1  A    between atoms: C_1  and  C_2
REMARK    2  A    between atoms: C_11  and  N_12
REMARK    3  A    between atoms: C_13  and  C_15
REMARK                            x       y       z     vdW  Elec       q    Type
REMARK                         _______ _______ _______ _____ _____    ______ ____
ROOT
ATOM      1  C   UNL     1      -3.305  12.176  23.891  0.00  0.00    +0.000 C 
ATOM      2  C   UNL     1      -2.145  12.816  23.187  0.00  0.00    +0.000 A 
ATOM      3  C   UNL     1      -1.629  13.975  23.617  0.00  0.00    +0.000 A 
ATOM      4  C   UNL     1      -0.489  14.530  22.876  0.00  0.00    +0.000 A 
ATOM      5  O   UNL     1       0.008  15.606  23.180  0.00  0.00    +0.000 OA
ATOM      6  N   UNL     1      -0.045  13.765  21.843  0.00  0.00    +0.000 N 
ATOM      7  C   UNL     1      -0.648  12.602  21.457  0.00  0.00    +0.000 A 
ATOM      8  N   UNL     1      -0.120  11.970  20.345  0.00  0.00    +0.000 N 
ATOM      9  C   UNL     1       1.312  11.625  20.355  0.00  0.00    +0.000 C 
ATOM     10  C   UNL     1       1.805  11.417  18.931  0.00  0.00    +0.000 C 
ATOM     11  C   UNL     1       1.000  10.328  18.211  0.00  0.00    +0.000 C 
ATOM     12  C   UNL     1      -0.493  10.669  18.282  0.00  0.00    +0.000 C 
ATOM     13  C   UNL     1      -0.950  10.931  19.715  0.00  0.00    +0.000 C 
ATOM     14  N   UNL     1      -1.677  12.129  22.094  0.00  0.00    +0.000 NA
ATOM     15  H   UNL     1       0.701  14.148  21.291  0.00  0.00    +0.000 HD
ENDROOT
BRANCH  11  16
ATOM     16  N   UNL     1       1.264   8.986  18.736  0.00  0.00    +0.000 N 
ATOM     17  C   UNL     1       2.191   8.142  18.159  0.00  0.00    +0.000 C 
ATOM     18  O   UNL     1       2.872   8.442  17.186  0.00  0.00    +0.000 OA
ATOM     19  H   UNL     1       0.780   8.694  19.574  0.00  0.00    +0.000 HD
BRANCH  17  20
ATOM     20  C   UNL     1       2.384   6.815  18.803  0.00  0.00    +0.000 A 
ATOM     21  C   UNL     1       2.008   6.572  20.131  0.00  0.00    +0.000 A 
ATOM     22  C   UNL     1       2.176   5.298  20.680  0.00  0.00    +0.000 A 
ATOM     23  C   UNL     1       2.716   4.275  19.904  0.00  0.00    +0.000 A 
ATOM     24  F   UNL     1       2.857   3.060  20.454  0.00  0.00    +0.000 F 
ATOM     25  C   UNL     1       3.091   4.509  18.584  0.00  0.00    +0.000 A 
ATOM     26 CL   UNL     1       3.757   3.244  17.625  0.00  0.00    +0.000 Cl
ATOM     27  C   UNL     1       2.923   5.777  18.027  0.00  0.00    +0.000 A 
ENDBRANCH  17  20
ENDBRANCH  11  16
TORSDOF 2
ENDMDL
MODEL 9
REMARK VINA RESULT:      -6.9      4.820      8.839
REMARK  Name = 
REMARK  3 active torsions:
REMARK  status: ('A' for Active; 'I' for Inactive)
REMARK    1  A    between atoms: C_1  and  C_2
REMARK    2  A    between atoms: C_11  and  N_12
REMARK    3  A    between atoms: C_13  and  C_15
REMARK                            x       y       z     vdW  Elec       q    Type
REMARK                         _______ _______ _______ _____ _____    ______ ____
ROOT
ATOM      1  C   UNL     1       3.567  16.729  18.699  0.00  0.00    +0.000 C 
ATOM      2  C   UNL     1       2.105  16.394  18.659  0.00  0.00    +0.000 A 
ATOM      3  C   UNL     1       1.212  17.254  18.153  0.00  0.00    +0.000 A 
ATOM      4  C   UNL     1      -0.198  16.846  18.144  0.00  0.00    +0.000 A 
ATOM      5  O   UNL     1      -1.078  17.594  17.740  0.00  0.00    +0.000 OA
ATOM      6  N   UNL     1      -0.439  15.594  18.616  0.00  0.00    +0.000 N 
ATOM      7  C   UNL     1       0.533  14.788  19.137  0.00  0.00    +0.000 A 
ATOM      8  N   UNL     1       0.120  13.566  19.640  0.00  0.00    +0.000 N 
ATOM      9  C   UNL     1      -0.628  12.664  18.749  0.00  0.00    +0.000 C 
ATOM     10  C   UNL     1      -1.404  11.647  19.572  0.00  0.00    +0.000 C 
ATOM     11  C   UNL     1      -0.475  10.841  20.488  0.00  0.00    +0.000 C 
ATOM     12  C   UNL     1       0.350  11.804  21.350  0.00  0.00    +0.000 C 
ATOM     13  C   UNL     1       1.072  12.849  20.505  0.00  0.00    +0.000 C 
ATOM     14  N   UNL     1       1.776  15.165  19.175  0.00  0.00    +0.000 NA
ATOM     15  H   UNL     1      -1.402  15.312  18.666  0.00  0.00    +0.000 HD
ENDROOT
BRANCH  11  16
ATOM     16  N   UNL     1       0.388   9.916  19.750  0.00  0.00    +0.000 N 
ATOM     17  C   UNL     1       1.058   8.882  20.373  0.00  0.00    +0.000 C 
ATOM     18  O   UNL     1       0.979   8.644  21.571  0.00  0.00    +0.000 OA
ATOM     19  H   UNL     1       0.453  10.017  18.746  0.00  0.00    +0.000 HD
BRANCH  17  20
ATOM     20  C   UNL     1       1.882   7.997  19.507  0.00  0.00    +0.000 A 
ATOM     21  C   UNL     1       2.364   8.418  18.260  0.00  0.00    +0.000 A 
ATOM     22  C   UNL     1       3.165   7.563  17.499  0.00  0.00    +0.000 A 
ATOM     23  C   UNL     1       3.482   6.296  17.984  0.00  0.00    +0.000 A 
ATOM     24  F   UNL     1       4.261   5.500  17.237  0.00  0.00    +0.000 F 
ATOM     25  C   UNL     1       3.008   5.871  19.222  0.00  0.00    +0.000 A 
ATOM     26 CL   UNL     1       3.401   4.306  19.822  0.00  0.00    +0.000 Cl
ATOM     27  C   UNL     1       2.210   6.721  19.989  0.00  0.00    +0.000 A 
ENDBRANCH  17  20
ENDBRANCH  11  16
TORSDOF 2
ENDMDL
