MODEL 1
REMARK VINA RESULT:      -6.9      0.000      0.000
REMARK  Name = 
REMARK  10 active torsions:
REMARK  status: ('A' for Active; 'I' for Inactive)
REMARK    1  A    between atoms: C_1  and  C_2
REMARK    2  A    between atoms: C_2  and  C_4
REMARK    3  A    between atoms: C_4  and  C_5
REMARK    4  A    between atoms: C_7  and  O_8
REMARK    5  A    between atoms: C_7  and  C_9
REMARK    6  A    between atoms: C_9  and  S_10
REMARK    7  A    between atoms: S_10  and  C_11
REMARK    8  A    between atoms: C_14  and  S_15
REMARK    9  A    between atoms: S_15  and  C_16
REMARK   10  A    between atoms: C_16  and  C_17
REMARK                            x       y       z     vdW  Elec       q    Type
REMARK                         _______ _______ _______ _____ _____    ______ ____
ROOT
ATOM      1  C   UNL     1       5.746   5.448  17.154  0.00  0.00    +0.000 A 
ATOM      2  N   UNL     1       5.844   6.453  16.309  0.00  0.00    +0.000 NA
ATOM      3  N   UNL     1       6.776   7.389  16.716  0.00  0.00    +0.000 NA
ATOM      4  C   UNL     1       7.347   7.057  17.853  0.00  0.00    +0.000 A 
ATOM      5  S   UNL     1       6.811   5.560  18.499  0.00  0.00    +0.000 S 
ENDROOT
BRANCH   1   6
ATOM      6  S   UNL     1       4.633   4.114  16.928  0.00  0.00    +0.000 S 
BRANCH   6   7
ATOM      7  C   UNL     1       3.124   4.794  17.701  0.00  0.00    +0.000 C 
BRANCH   7   9
ATOM      8  C   UNL     1       2.477   3.441  19.749  0.00  0.00    +0.000 C 
ATOM      9  C   UNL     1       3.015   4.565  19.208  0.00  0.00    +0.000 C 
BRANCH   8  11
ATOM     10  C   UNL     1       0.448   2.283  18.618  0.00  0.00    +0.000 C 
ATOM     11  C   UNL     1       1.938   2.322  18.901  0.00  0.00    +0.000 C 
ATOM     12  N   UNL     1       2.704   1.406  18.395  0.00  0.00    +0.000 NA
ATOM     13  H   UNL     1       2.172   0.722  17.846  0.00  0.00    +0.000 HD
ENDBRANCH   8  11
BRANCH   8  14
ATOM     14  C   UNL     1       2.434   3.253  21.163  0.00  0.00    +0.000 C 
ATOM     15  N   UNL     1       2.361   3.081  22.308  0.00  0.00    +0.000 NA
ENDBRANCH   8  14
BRANCH   9  16
ATOM     16  O   UNL     1       3.521   5.600  19.998  0.00  0.00    +0.000 OA
ATOM     17  H   UNL     1       3.382   6.478  19.600  0.00  0.00    +0.000 HD
ENDBRANCH   9  16
ENDBRANCH   7   9
ENDBRANCH   6   7
ENDBRANCH   1   6
BRANCH   4  18
ATOM     18  S   UNL     1       8.559   8.059  18.629  0.00  0.00    +0.000 S 
BRANCH  18  19
ATOM     19  C   UNL     1       8.168   9.672  17.888  0.00  0.00    +0.000 C 
BRANCH  19  20
ATOM     20  C   UNL     1       9.009  10.794  18.458  0.00  0.00    +0.000 A 
ATOM     21  C   UNL     1       9.247  11.955  17.705  0.00  0.00    +0.000 A 
ATOM     22  C   UNL     1       9.998  13.009  18.235  0.00  0.00    +0.000 A 
ATOM     23  C   UNL     1      10.526  12.906  19.519  0.00  0.00    +0.000 A 
ATOM     24 CL   UNL     1      11.447  14.205  20.173  0.00  0.00    +0.000 Cl
ATOM     25  C   UNL     1      10.311  11.757  20.278  0.00  0.00    +0.000 A 
ATOM     26  C   UNL     1       9.558  10.703  19.750  0.00  0.00    +0.000 A 
ENDBRANCH  19  20
ENDBRANCH  18  19
ENDBRANCH   4  18
TORSDOF 9
ENDMDL
MODEL 2
REMARK VINA RESULT:      -6.8      6.583      8.380
REMARK  Name = 
REMARK  10 active torsions:
REMARK  status: ('A' for Active; 'I' for Inactive)
REMARK    1  A    between atoms: C_1  and  C_2
REMARK    2  A    between atoms: C_2  and  C_4
REMARK    3  A    between atoms: C_4  and  C_5
REMARK    4  A    between atoms: C_7  and  O_8
REMARK    5  A    between atoms: C_7  and  C_9
REMARK    6  A    between atoms: C_9  and  S_10
REMARK    7  A    between atoms: S_10  and  C_11
REMARK    8  A    between atoms: C_14  and  S_15
REMARK    9  A    between atoms: S_15  and  C_16
REMARK   10  A    between atoms: C_16  and  C_17
REMARK                            x       y       z     vdW  Elec       q    Type
REMARK                         _______ _______ _______ _____ _____    ______ ____
ROOT
ATOM      1  C   UNL     1       3.041   7.110  18.512  0.00  0.00    +0.000 A 
ATOM      2  N   UNL     1       2.658   6.851  19.745  0.00  0.00    +0.000 NA
ATOM      3  N   UNL     1       1.734   7.769  20.208  0.00  0.00    +0.000 NA
ATOM      4  C   UNL     1       1.453   8.686  19.308  0.00  0.00    +0.000 A 
ATOM      5  S   UNL     1       2.276   8.482  17.816  0.00  0.00    +0.000 S 
ENDROOT
BRANCH   1   6
ATOM      6  S   UNL     1       4.224   6.141  17.656  0.00  0.00    +0.000 S 
BRANCH   6   7
ATOM      7  C   UNL     1       3.560   4.463  17.938  0.00  0.00    +0.000 C 
BRANCH   7   9
ATOM      8  C   UNL     1       3.804   2.703  19.751  0.00  0.00    +0.000 C 
ATOM      9  C   UNL     1       4.370   3.607  18.911  0.00  0.00    +0.000 C 
BRANCH   8  11
ATOM     10  C   UNL     1       1.485   3.305  20.752  0.00  0.00    +0.000 C 
ATOM     11  C   UNL     1       2.318   2.473  19.796  0.00  0.00    +0.000 C 
ATOM     12  N   UNL     1       1.730   1.600  19.037  0.00  0.00    +0.000 NA
ATOM     13  H   UNL     1       0.717   1.573  19.198  0.00  0.00    +0.000 HD
ENDBRANCH   8  11
BRANCH   8  14
ATOM     14  C   UNL     1       4.604   1.896  20.613  0.00  0.00    +0.000 C 
ATOM     15  N   UNL     1       5.288   1.264  21.305  0.00  0.00    +0.000 NA
ENDBRANCH   8  14
BRANCH   9  16
ATOM     16  O   UNL     1       5.751   3.815  18.867  0.00  0.00    +0.000 OA
ATOM     17  H   UNL     1       5.990   4.655  18.436  0.00  0.00    +0.000 HD
ENDBRANCH   9  16
ENDBRANCH   7   9
ENDBRANCH   6   7
ENDBRANCH   1   6
BRANCH   4  18
ATOM     18  S   UNL     1       0.327   9.994  19.614  0.00  0.00    +0.000 S 
BRANCH  18  19
ATOM     19  C   UNL     1      -0.227  10.347  17.918  0.00  0.00    +0.000 C 
BRANCH  19  20
ATOM     20  C   UNL     1      -1.695  10.711  17.849  0.00  0.00    +0.000 A 
ATOM     21  C   UNL     1      -2.297  11.430  18.894  0.00  0.00    +0.000 A 
ATOM     22  C   UNL     1      -3.645  11.795  18.825  0.00  0.00    +0.000 A 
ATOM     23  C   UNL     1      -4.404  11.438  17.714  0.00  0.00    +0.000 A 
ATOM     24 CL   UNL     1      -6.061  11.892  17.627  0.00  0.00    +0.000 Cl
ATOM     25  C   UNL     1      -3.828  10.715  16.672  0.00  0.00    +0.000 A 
ATOM     26  C   UNL     1      -2.479  10.350  16.739  0.00  0.00    +0.000 A 
ENDBRANCH  19  20
ENDBRANCH  18  19
ENDBRANCH   4  18
TORSDOF 9
ENDMDL
MODEL 3
REMARK VINA RESULT:      -6.6      6.132      8.801
REMARK  Name = 
REMARK  10 active torsions:
REMARK  status: ('A' for Active; 'I' for Inactive)
REMARK    1  A    between atoms: C_1  and  C_2
REMARK    2  A    between atoms: C_2  and  C_4
REMARK    3  A    between atoms: C_4  and  C_5
REMARK    4  A    between atoms: C_7  and  O_8
REMARK    5  A    between atoms: C_7  and  C_9
REMARK    6  A    between atoms: C_9  and  S_10
REMARK    7  A    between atoms: S_10  and  C_11
REMARK    8  A    between atoms: C_14  and  S_15
REMARK    9  A    between atoms: S_15  and  C_16
REMARK   10  A    between atoms: C_16  and  C_17
REMARK                            x       y       z     vdW  Elec       q    Type
REMARK                         _______ _______ _______ _____ _____    ______ ____
ROOT
ATOM      1  C   UNL     1       2.381   5.887  19.727  0.00  0.00    +0.000 A 
ATOM      2  N   UNL     1       1.720   6.065  20.851  0.00  0.00    +0.000 NA
ATOM      3  N   UNL     1       1.231   7.352  20.972  0.00  0.00    +0.000 NA
ATOM      4  C   UNL     1       1.541   8.099  19.936  0.00  0.00    +0.000 A 
ATOM      5  S   UNL     1       2.430   7.278  18.719  0.00  0.00    +0.000 S 
ENDROOT
BRANCH   1   6
ATOM      6  S   UNL     1       3.142   4.369  19.295  0.00  0.00    +0.000 S 
BRANCH   6   7
ATOM      7  C   UNL     1       4.874   4.906  19.075  0.00  0.00    +0.000 C 
BRANCH   7   9
ATOM      8  C   UNL     1       6.594   5.340  17.258  0.00  0.00    +0.000 C 
ATOM      9  C   UNL     1       5.388   4.843  17.636  0.00  0.00    +0.000 C 
BRANCH   8  11
ATOM     10  C   UNL     1       7.851   7.472  18.043  0.00  0.00    +0.000 C 
ATOM     11  C   UNL     1       7.529   6.002  18.234  0.00  0.00    +0.000 C 
ATOM     12  N   UNL     1       8.053   5.362  19.233  0.00  0.00    +0.000 NA
ATOM     13  H   UNL     1       8.665   5.964  19.795  0.00  0.00    +0.000 HD
ENDBRANCH   8  11
BRANCH   8  14
ATOM     14  C   UNL     1       7.050   5.221  15.912  0.00  0.00    +0.000 C 
ATOM     15  N   UNL     1       7.452   5.152  14.826  0.00  0.00    +0.000 NA
ENDBRANCH   8  14
BRANCH   9  16
ATOM     16  O   UNL     1       4.524   4.224  16.730  0.00  0.00    +0.000 OA
ATOM     17  H   UNL     1       4.981   3.591  16.148  0.00  0.00    +0.000 HD
ENDBRANCH   9  16
ENDBRANCH   7   9
ENDBRANCH   6   7
ENDBRANCH   1   6
BRANCH   4  18
ATOM     18  S   UNL     1       1.074   9.784  19.813  0.00  0.00    +0.000 S 
BRANCH  18  19
ATOM     19  C   UNL     1       0.420   9.816  18.116  0.00  0.00    +0.000 C 
BRANCH  19  20
ATOM     20  C   UNL     1      -0.989  10.364  18.045  0.00  0.00    +0.000 A 
ATOM     21  C   UNL     1      -1.889   9.882  17.082  0.00  0.00    +0.000 A 
ATOM     22  C   UNL     1      -3.202  10.362  17.028  0.00  0.00    +0.000 A 
ATOM     23  C   UNL     1      -3.622  11.333  17.932  0.00  0.00    +0.000 A 
ATOM     24 CL   UNL     1      -5.239  11.919  17.869  0.00  0.00    +0.000 Cl
ATOM     25  C   UNL     1      -2.741  11.832  18.888  0.00  0.00    +0.000 A 
ATOM     26  C   UNL     1      -1.428  11.352  18.945  0.00  0.00    +0.000 A 
ENDBRANCH  19  20
ENDBRANCH  18  19
ENDBRANCH   4  18
TORSDOF 9
ENDMDL
MODEL 4
REMARK VINA RESULT:      -6.5      1.519      2.319
REMARK  Name = 
REMARK  10 active torsions:
REMARK  status: ('A' for Active; 'I' for Inactive)
REMARK    1  A    between atoms: C_1  and  C_2
REMARK    2  A    between atoms: C_2  and  C_4
REMARK    3  A    between atoms: C_4  and  C_5
REMARK    4  A    between atoms: C_7  and  O_8
REMARK    5  A    between atoms: C_7  and  C_9
REMARK    6  A    between atoms: C_9  and  S_10
REMARK    7  A    between atoms: S_10  and  C_11
REMARK    8  A    between atoms: C_14  and  S_15
REMARK    9  A    between atoms: S_15  and  C_16
REMARK   10  A    between atoms: C_16  and  C_17
REMARK                            x       y       z     vdW  Elec       q    Type
REMARK                         _______ _______ _______ _____ _____    ______ ____
ROOT
ATOM      1  C   UNL     1       6.377   5.735  17.044  0.00  0.00    +0.000 A 
ATOM      2  N   UNL     1       6.199   6.854  16.375  0.00  0.00    +0.000 NA
ATOM      3  N   UNL     1       6.951   7.895  16.889  0.00  0.00    +0.000 NA
ATOM      4  C   UNL     1       7.669   7.522  17.925  0.00  0.00    +0.000 A 
ATOM      5  S   UNL     1       7.503   5.865  18.336  0.00  0.00    +0.000 S 
ENDROOT
BRANCH   1   6
ATOM      6  S   UNL     1       5.544   4.244  16.652  0.00  0.00    +0.000 S 
BRANCH   6   7
ATOM      7  C   UNL     1       5.085   3.661  18.320  0.00  0.00    +0.000 C 
BRANCH   7   9
ATOM      8  C   UNL     1       2.600   3.521  18.823  0.00  0.00    +0.000 C 
ATOM      9  C   UNL     1       3.746   2.927  18.399  0.00  0.00    +0.000 C 
BRANCH   8  11
ATOM     10  C   UNL     1       2.377   6.031  18.198  0.00  0.00    +0.000 C 
ATOM     11  C   UNL     1       2.557   4.960  19.258  0.00  0.00    +0.000 C 
ATOM     12  N   UNL     1       2.654   5.310  20.503  0.00  0.00    +0.000 NA
ATOM     13  H   UNL     1       2.607   6.329  20.620  0.00  0.00    +0.000 HD
ENDBRANCH   8  11
BRANCH   8  14
ATOM     14  C   UNL     1       1.365   2.808  18.841  0.00  0.00    +0.000 C 
ATOM     15  N   UNL     1       0.365   2.219  18.814  0.00  0.00    +0.000 NA
ENDBRANCH   8  14
BRANCH   9  16
ATOM     16  O   UNL     1       3.782   1.592  17.991  0.00  0.00    +0.000 OA
ATOM     17  H   UNL     1       2.895   1.227  17.822  0.00  0.00    +0.000 HD
ENDBRANCH   9  16
ENDBRANCH   7   9
ENDBRANCH   6   7
ENDBRANCH   1   6
BRANCH   4  18
ATOM     18  S   UNL     1       8.711   8.630  18.798  0.00  0.00    +0.000 S 
BRANCH  18  19
ATOM     19  C   UNL     1       8.534  10.119  17.771  0.00  0.00    +0.000 C 
BRANCH  19  20
ATOM     20  C   UNL     1       9.372  11.276  18.273  0.00  0.00    +0.000 A 
ATOM     21  C   UNL     1      10.263  11.093  19.342  0.00  0.00    +0.000 A 
ATOM     22  C   UNL     1      11.062  12.149  19.793  0.00  0.00    +0.000 A 
ATOM     23  C   UNL     1      10.971  13.397  19.184  0.00  0.00    +0.000 A 
ATOM     24 CL   UNL     1      11.958  14.694  19.736  0.00  0.00    +0.000 Cl
ATOM     25  C   UNL     1      10.084  13.601  18.129  0.00  0.00    +0.000 A 
ATOM     26  C   UNL     1       9.285  12.546  17.675  0.00  0.00    +0.000 A 
ENDBRANCH  19  20
ENDBRANCH  18  19
ENDBRANCH   4  18
TORSDOF 9
ENDMDL
MODEL 5
REMARK VINA RESULT:      -6.5      6.602      8.940
REMARK  Name = 
REMARK  10 active torsions:
REMARK  status: ('A' for Active; 'I' for Inactive)
REMARK    1  A    between atoms: C_1  and  C_2
REMARK    2  A    between atoms: C_2  and  C_4
REMARK    3  A    between atoms: C_4  and  C_5
REMARK    4  A    between atoms: C_7  and  O_8
REMARK    5  A    between atoms: C_7  and  C_9
REMARK    6  A    between atoms: C_9  and  S_10
REMARK    7  A    between atoms: S_10  and  C_11
REMARK    8  A    between atoms: C_14  and  S_15
REMARK    9  A    between atoms: S_15  and  C_16
REMARK   10  A    between atoms: C_16  and  C_17
REMARK                            x       y       z     vdW  Elec       q    Type
REMARK                         _______ _______ _______ _____ _____    ______ ____
ROOT
ATOM      1  C   UNL     1       2.471   6.728  19.647  0.00  0.00    +0.000 A 
ATOM      2  N   UNL     1       2.510   7.370  18.499  0.00  0.00    +0.000 NA
ATOM      3  N   UNL     1       1.895   8.606  18.570  0.00  0.00    +0.000 NA
ATOM      4  C   UNL     1       1.414   8.851  19.769  0.00  0.00    +0.000 A 
ATOM      5  S   UNL     1       1.701   7.603  20.910  0.00  0.00    +0.000 S 
ENDROOT
BRANCH   1   6
ATOM      6  S   UNL     1       3.144   5.125  19.870  0.00  0.00    +0.000 S 
BRANCH   6   7
ATOM      7  C   UNL     1       4.786   5.335  19.099  0.00  0.00    +0.000 C 
BRANCH   7   9
ATOM      8  C   UNL     1       6.059   4.697  16.997  0.00  0.00    +0.000 C 
ATOM      9  C   UNL     1       4.879   4.866  17.646  0.00  0.00    +0.000 C 
BRANCH   8  11
ATOM     10  C   UNL     1       7.639   6.344  18.233  0.00  0.00    +0.000 C 
ATOM     11  C   UNL     1       7.383   4.963  17.659  0.00  0.00    +0.000 C 
ATOM     12  N   UNL     1       8.300   4.052  17.764  0.00  0.00    +0.000 NA
ATOM     13  H   UNL     1       9.137   4.404  18.241  0.00  0.00    +0.000 HD
ENDBRANCH   8  11
BRANCH   8  14
ATOM     14  C   UNL     1       6.098   4.217  15.654  0.00  0.00    +0.000 C 
ATOM     15  N   UNL     1       6.088   3.830  14.560  0.00  0.00    +0.000 NA
ENDBRANCH   8  14
BRANCH   9  16
ATOM     16  O   UNL     1       3.650   4.612  17.031  0.00  0.00    +0.000 OA
ATOM     17  H   UNL     1       3.483   5.199  16.272  0.00  0.00    +0.000 HD
ENDBRANCH   9  16
ENDBRANCH   7   9
ENDBRANCH   6   7
ENDBRANCH   1   6
BRANCH   4  18
ATOM     18  S   UNL     1       0.564  10.334  20.160  0.00  0.00    +0.000 S 
BRANCH  18  19
ATOM     19  C   UNL     1       0.047  10.859  18.498  0.00  0.00    +0.000 C 
BRANCH  19  20
ATOM     20  C   UNL     1      -1.459  10.873  18.334  0.00  0.00    +0.000 A 
ATOM     21  C   UNL     1      -2.238  11.814  19.025  0.00  0.00    +0.000 A 
ATOM     22  C   UNL     1      -3.625  11.853  18.857  0.00  0.00    +0.000 A 
ATOM     23  C   UNL     1      -4.246  10.946  18.003  0.00  0.00    +0.000 A 
ATOM     24 CL   UNL     1      -5.953  10.998  17.793  0.00  0.00    +0.000 Cl
ATOM     25  C   UNL     1      -3.491   9.996  17.318  0.00  0.00    +0.000 A 
ATOM     26  C   UNL     1      -2.103   9.957  17.483  0.00  0.00    +0.000 A 
ENDBRANCH  19  20
ENDBRANCH  18  19
ENDBRANCH   4  18
TORSDOF 9
ENDMDL
MODEL 6
REMARK VINA RESULT:      -6.5      5.801      7.768
REMARK  Name = 
REMARK  10 active torsions:
REMARK  status: ('A' for Active; 'I' for Inactive)
REMARK    1  A    between atoms: C_1  and  C_2
REMARK    2  A    between atoms: C_2  and  C_4
REMARK    3  A    between atoms: C_4  and  C_5
REMARK    4  A    between atoms: C_7  and  O_8
REMARK    5  A    between atoms: C_7  and  C_9
REMARK    6  A    between atoms: C_9  and  S_10
REMARK    7  A    between atoms: S_10  and  C_11
REMARK    8  A    between atoms: C_14  and  S_15
REMARK    9  A    between atoms: S_15  and  C_16
REMARK   10  A    between atoms: C_16  and  C_17
REMARK                            x       y       z     vdW  Elec       q    Type
REMARK                         _______ _______ _______ _____ _____    ______ ____
ROOT
ATOM      1  C   UNL     1       2.255   4.918  18.834  0.00  0.00    +0.000 A 
ATOM      2  N   UNL     1       2.489   6.008  18.134  0.00  0.00    +0.000 NA
ATOM      3  N   UNL     1       2.287   7.158  18.875  0.00  0.00    +0.000 NA
ATOM      4  C   UNL     1       1.909   6.894  20.106  0.00  0.00    +0.000 A 
ATOM      5  S   UNL     1       1.797   5.219  20.463  0.00  0.00    +0.000 S 
ENDROOT
BRANCH   1   6
ATOM      6  S   UNL     1       2.399   3.304  18.166  0.00  0.00    +0.000 S 
BRANCH   6   7
ATOM      7  C   UNL     1       4.009   3.431  17.313  0.00  0.00    +0.000 C 
BRANCH   7   9
ATOM      8  C   UNL     1       6.023   4.869  17.880  0.00  0.00    +0.000 C 
ATOM      9  C   UNL     1       5.176   3.857  18.203  0.00  0.00    +0.000 C 
BRANCH   8  11
ATOM     10  C   UNL     1       6.620   5.174  15.372  0.00  0.00    +0.000 C 
ATOM     11  C   UNL     1       5.881   5.656  16.606  0.00  0.00    +0.000 C 
ATOM     12  N   UNL     1       5.140   6.718  16.528  0.00  0.00    +0.000 NA
ATOM     13  H   UNL     1       5.159   7.130  15.588  0.00  0.00    +0.000 HD
ENDBRANCH   8  11
BRANCH   8  14
ATOM     14  C   UNL     1       7.074   5.259  18.762  0.00  0.00    +0.000 C 
ATOM     15  N   UNL     1       7.913   5.551  19.508  0.00  0.00    +0.000 NA
ENDBRANCH   8  14
BRANCH   9  16
ATOM     16  O   UNL     1       5.307   3.131  19.389  0.00  0.00    +0.000 OA
ATOM     17  H   UNL     1       4.657   3.396  20.065  0.00  0.00    +0.000 HD
ENDBRANCH   9  16
ENDBRANCH   7   9
ENDBRANCH   6   7
ENDBRANCH   1   6
BRANCH   4  18
ATOM     18  S   UNL     1       1.560   8.151  21.277  0.00  0.00    +0.000 S 
BRANCH  18  19
ATOM     19  C   UNL     1       0.845   9.419  20.187  0.00  0.00    +0.000 C 
BRANCH  19  20
ATOM     20  C   UNL     1      -0.104  10.346  20.918  0.00  0.00    +0.000 A 
ATOM     21  C   UNL     1      -0.868  11.283  20.204  0.00  0.00    +0.000 A 
ATOM     22  C   UNL     1      -1.768  12.123  20.868  0.00  0.00    +0.000 A 
ATOM     23  C   UNL     1      -1.905  12.038  22.250  0.00  0.00    +0.000 A 
ATOM     24 CL   UNL     1      -3.017  13.068  23.065  0.00  0.00    +0.000 Cl
ATOM     25  C   UNL     1      -1.148  11.122  22.977  0.00  0.00    +0.000 A 
ATOM     26  C   UNL     1      -0.248  10.280  22.315  0.00  0.00    +0.000 A 
ENDBRANCH  19  20
ENDBRANCH  18  19
ENDBRANCH   4  18
TORSDOF 9
ENDMDL
MODEL 7
REMARK VINA RESULT:      -6.5      6.934      8.651
REMARK  Name = 
REMARK  10 active torsions:
REMARK  status: ('A' for Active; 'I' for Inactive)
REMARK    1  A    between atoms: C_1  and  C_2
REMARK    2  A    between atoms: C_2  and  C_4
REMARK    3  A    between atoms: C_4  and  C_5
REMARK    4  A    between atoms: C_7  and  O_8
REMARK    5  A    between atoms: C_7  and  C_9
REMARK    6  A    between atoms: C_9  and  S_10
REMARK    7  A    between atoms: S_10  and  C_11
REMARK    8  A    between atoms: C_14  and  S_15
REMARK    9  A    between atoms: S_15  and  C_16
REMARK   10  A    between atoms: C_16  and  C_17
REMARK                            x       y       z     vdW  Elec       q    Type
REMARK                         _______ _______ _______ _____ _____    ______ ____
ROOT
ATOM      1  C   UNL     1       2.769   7.914  18.077  0.00  0.00    +0.000 A 
ATOM      2  N   UNL     1       2.397   8.945  17.348  0.00  0.00    +0.000 NA
ATOM      3  N   UNL     1       1.438   9.714  17.980  0.00  0.00    +0.000 NA
ATOM      4  C   UNL     1       1.121   9.235  19.163  0.00  0.00    +0.000 A 
ATOM      5  S   UNL     1       1.992   7.825  19.607  0.00  0.00    +0.000 S 
ENDROOT
BRANCH   1   6
ATOM      6  S   UNL     1       3.953   6.739  17.539  0.00  0.00    +0.000 S 
BRANCH   6   7
ATOM      7  C   UNL     1       3.065   5.180  17.881  0.00  0.00    +0.000 C 
BRANCH   7   9
ATOM      8  C   UNL     1       3.624   3.459  19.663  0.00  0.00    +0.000 C 
ATOM      9  C   UNL     1       3.925   4.071  18.488  0.00  0.00    +0.000 C 
BRANCH   8  11
ATOM     10  C   UNL     1       1.122   3.066  20.232  0.00  0.00    +0.000 C 
ATOM     11  C   UNL     1       2.411   3.830  20.471  0.00  0.00    +0.000 C 
ATOM     12  N   UNL     1       2.437   4.766  21.369  0.00  0.00    +0.000 NA
ATOM     13  H   UNL     1       1.525   4.887  21.823  0.00  0.00    +0.000 HD
ENDBRANCH   8  11
BRANCH   8  14
ATOM     14  C   UNL     1       4.434   2.400  20.169  0.00  0.00    +0.000 C 
ATOM     15  N   UNL     1       5.059   1.514  20.581  0.00  0.00    +0.000 NA
ENDBRANCH   8  14
BRANCH   9  16
ATOM     16  O   UNL     1       5.049   3.721  17.736  0.00  0.00    +0.000 OA
ATOM     17  H   UNL     1       5.368   4.452  17.176  0.00  0.00    +0.000 HD
ENDBRANCH   9  16
ENDBRANCH   7   9
ENDBRANCH   6   7
ENDBRANCH   1   6
BRANCH   4  18
ATOM     18  S   UNL     1      -0.080   9.988  20.195  0.00  0.00    +0.000 S 
BRANCH  18  19
ATOM     19  C   UNL     1      -0.593  11.374  19.136  0.00  0.00    +0.000 C 
BRANCH  19  20
ATOM     20  C   UNL     1      -2.079  11.364  18.843  0.00  0.00    +0.000 A 
ATOM     21  C   UNL     1      -2.607  10.473  17.895  0.00  0.00    +0.000 A 
ATOM     22  C   UNL     1      -3.982  10.437  17.639  0.00  0.00    +0.000 A 
ATOM     23  C   UNL     1      -4.837  11.297  18.323  0.00  0.00    +0.000 A 
ATOM     24 CL   UNL     1      -6.529  11.249  18.011  0.00  0.00    +0.000 Cl
ATOM     25  C   UNL     1      -4.330  12.196  19.258  0.00  0.00    +0.000 A 
ATOM     26  C   UNL     1      -2.955  12.233  19.517  0.00  0.00    +0.000 A 
ENDBRANCH  19  20
ENDBRANCH  18  19
ENDBRANCH   4  18
TORSDOF 9
ENDMDL
MODEL 8
REMARK VINA RESULT:      -6.5      6.229      8.324
REMARK  Name = 
REMARK  10 active torsions:
REMARK  status: ('A' for Active; 'I' for Inactive)
REMARK    1  A    between atoms: C_1  and  C_2
REMARK    2  A    between atoms: C_2  and  C_4
REMARK    3  A    between atoms: C_4  and  C_5
REMARK    4  A    between atoms: C_7  and  O_8
REMARK    5  A    between atoms: C_7  and  C_9
REMARK    6  A    between atoms: C_9  and  S_10
REMARK    7  A    between atoms: S_10  and  C_11
REMARK    8  A    between atoms: C_14  and  S_15
REMARK    9  A    between atoms: S_15  and  C_16
REMARK   10  A    between atoms: C_16  and  C_17
REMARK                            x       y       z     vdW  Elec       q    Type
REMARK                         _______ _______ _______ _____ _____    ______ ____
ROOT
ATOM      1  C   UNL     1       2.480   6.677  18.534  0.00  0.00    +0.000 A 
ATOM      2  N   UNL     1       3.161   7.121  17.499  0.00  0.00    +0.000 NA
ATOM      3  N   UNL     1       2.989   8.479  17.304  0.00  0.00    +0.000 NA
ATOM      4  C   UNL     1       2.186   9.010  18.200  0.00  0.00    +0.000 A 
ATOM      5  S   UNL     1       1.600   7.896  19.367  0.00  0.00    +0.000 S 
ENDROOT
BRANCH   1   6
ATOM      6  S   UNL     1       2.473   4.994  19.023  0.00  0.00    +0.000 S 
BRANCH   6   7
ATOM      7  C   UNL     1       3.469   4.247  17.687  0.00  0.00    +0.000 C 
BRANCH   7   9
ATOM      8  C   UNL     1       5.941   4.535  17.182  0.00  0.00    +0.000 C 
ATOM      9  C   UNL     1       4.957   4.091  18.005  0.00  0.00    +0.000 C 
BRANCH   8  11
ATOM     10  C   UNL     1       5.508   4.368  14.628  0.00  0.00    +0.000 C 
ATOM     11  C   UNL     1       5.644   5.220  15.876  0.00  0.00    +0.000 C 
ATOM     12  N   UNL     1       5.489   6.504  15.788  0.00  0.00    +0.000 NA
ATOM     13  H   UNL     1       5.294   6.802  14.826  0.00  0.00    +0.000 HD
ENDBRANCH   8  11
BRANCH   8  14
ATOM     14  C   UNL     1       7.315   4.404  17.540  0.00  0.00    +0.000 C 
ATOM     15  N   UNL     1       8.442   4.331  17.809  0.00  0.00    +0.000 NA
ENDBRANCH   8  14
BRANCH   9  16
ATOM     16  O   UNL     1       5.234   3.460  19.221  0.00  0.00    +0.000 OA
ATOM     17  H   UNL     1       4.948   3.985  19.990  0.00  0.00    +0.000 HD
ENDBRANCH   9  16
ENDBRANCH   7   9
ENDBRANCH   6   7
ENDBRANCH   1   6
BRANCH   4  18
ATOM     18  S   UNL     1       1.765  10.712  18.199  0.00  0.00    +0.000 S 
BRANCH  18  19
ATOM     19  C   UNL     1       0.515  10.737  19.519  0.00  0.00    +0.000 C 
BRANCH  19  20
ATOM     20  C   UNL     1      -0.892  10.910  18.986  0.00  0.00    +0.000 A 
ATOM     21  C   UNL     1      -1.781  11.800  19.609  0.00  0.00    +0.000 A 
ATOM     22  C   UNL     1      -3.072  11.988  19.105  0.00  0.00    +0.000 A 
ATOM     23  C   UNL     1      -3.487  11.282  17.980  0.00  0.00    +0.000 A 
ATOM     24 CL   UNL     1      -5.074  11.518  17.357  0.00  0.00    +0.000 Cl
ATOM     25  C   UNL     1      -2.623  10.386  17.354  0.00  0.00    +0.000 A 
ATOM     26  C   UNL     1      -1.330  10.198  17.855  0.00  0.00    +0.000 A 
ENDBRANCH  19  20
ENDBRANCH  18  19
ENDBRANCH   4  18
TORSDOF 9
ENDMDL
MODEL 9
REMARK VINA RESULT:      -6.4      6.203      8.548
REMARK  Name = 
REMARK  10 active torsions:
REMARK  status: ('A' for Active; 'I' for Inactive)
REMARK    1  A    between atoms: C_1  and  C_2
REMARK    2  A    between atoms: C_2  and  C_4
REMARK    3  A    between atoms: C_4  and  C_5
REMARK    4  A    between atoms: C_7  and  O_8
REMARK    5  A    between atoms: C_7  and  C_9
REMARK    6  A    between atoms: C_9  and  S_10
REMARK    7  A    between atoms: S_10  and  C_11
REMARK    8  A    between atoms: C_14  and  S_15
REMARK    9  A    between atoms: S_15  and  C_16
REMARK   10  A    between atoms: C_16  and  C_17
REMARK                            x       y       z     vdW  Elec       q    Type
REMARK                         _______ _______ _______ _____ _____    ______ ____
ROOT
ATOM      1  C   UNL     1       2.534   6.245  19.058  0.00  0.00    +0.000 A 
ATOM      2  N   UNL     1       2.728   6.571  17.797  0.00  0.00    +0.000 NA
ATOM      3  N   UNL     1       2.421   7.896  17.547  0.00  0.00    +0.000 NA
ATOM      4  C   UNL     1       2.007   8.521  18.627  0.00  0.00    +0.000 A 
ATOM      5  S   UNL     1       1.987   7.546  20.039  0.00  0.00    +0.000 S 
ENDROOT
BRANCH   1   6
ATOM      6  S   UNL     1       2.810   4.631  19.682  0.00  0.00    +0.000 S 
BRANCH   6   7
ATOM      7  C   UNL     1       4.595   4.437  19.347  0.00  0.00    +0.000 C 
BRANCH   7   9
ATOM      8  C   UNL     1       5.673   4.676  17.061  0.00  0.00    +0.000 C 
ATOM      9  C   UNL     1       4.935   3.949  17.939  0.00  0.00    +0.000 C 
BRANCH   8  11
ATOM     10  C   UNL     1       7.554   6.122  18.117  0.00  0.00    +0.000 C 
ATOM     11  C   UNL     1       6.217   6.036  17.406  0.00  0.00    +0.000 C 
ATOM     12  N   UNL     1       5.588   7.130  17.102  0.00  0.00    +0.000 NA
ATOM     13  H   UNL     1       6.099   7.964  17.412  0.00  0.00    +0.000 HD
ENDBRANCH   8  11
BRANCH   8  14
ATOM     14  C   UNL     1       6.001   4.162  15.772  0.00  0.00    +0.000 C 
ATOM     15  N   UNL     1       6.283   3.710  14.741  0.00  0.00    +0.000 NA
ENDBRANCH   8  14
BRANCH   9  16
ATOM     16  O   UNL     1       4.436   2.684  17.619  0.00  0.00    +0.000 OA
ATOM     17  H   UNL     1       4.394   2.530  16.658  0.00  0.00    +0.000 HD
ENDBRANCH   9  16
ENDBRANCH   7   9
ENDBRANCH   6   7
ENDBRANCH   1   6
BRANCH   4  18
ATOM     18  S   UNL     1       1.528  10.207  18.616  0.00  0.00    +0.000 S 
BRANCH  18  19
ATOM     19  C   UNL     1       0.042  10.129  19.661  0.00  0.00    +0.000 C 
BRANCH  19  20
ATOM     20  C   UNL     1      -1.209  10.563  18.927  0.00  0.00    +0.000 A 
ATOM     21  C   UNL     1      -1.553   9.972  17.701  0.00  0.00    +0.000 A 
ATOM     22  C   UNL     1      -2.722  10.347  17.031  0.00  0.00    +0.000 A 
ATOM     23  C   UNL     1      -3.552  11.321  17.578  0.00  0.00    +0.000 A 
ATOM     24 CL   UNL     1      -4.993  11.779  16.756  0.00  0.00    +0.000 Cl
ATOM     25  C   UNL     1      -3.222  11.928  18.788  0.00  0.00    +0.000 A 
ATOM     26  C   UNL     1      -2.054  11.553  19.460  0.00  0.00    +0.000 A 
ENDBRANCH  19  20
ENDBRANCH  18  19
ENDBRANCH   4  18
TORSDOF 9
ENDMDL
