MODEL 1
REMARK VINA RESULT:      -6.8      0.000      0.000
REMARK  Name = 
REMARK  6 active torsions:
REMARK  status: ('A' for Active; 'I' for Inactive)
REMARK    1  A    between atoms: C_1  and  C_2
REMARK    2  A    between atoms: C_2  and  C_3
REMARK    3  A    between atoms: C_3  and  C_4
REMARK    4  A    between atoms: C_3  and  N_6
REMARK    5  A    between atoms: C_4  and  C_5
REMARK    6  A    between atoms: C_13  and  C_14
REMARK                            x       y       z     vdW  Elec       q    Type
REMARK                         _______ _______ _______ _____ _____    ______ ____
ROOT
ATOM      1  N   UNL     1      -1.503  11.819  20.656  0.00  0.00    +0.000 N 
ATOM      2  C   UNL     1      -2.034  12.243  21.914  0.00  0.00    +0.000 A 
ATOM      3  S   UNL     1      -3.151  13.415  22.268  0.00  0.00    +0.000 S 
ATOM      4  N   UNL     1      -1.422  11.462  22.905  0.00  0.00    +0.000 N 
ATOM      5  C   UNL     1      -0.562  10.558  22.302  0.00  0.00    +0.000 A 
ATOM      6  C   UNL     1       0.244   9.620  22.901  0.00  0.00    +0.000 A 
ATOM      7  C   UNL     1       1.025   8.823  22.058  0.00  0.00    +0.000 A 
ATOM      8  C   UNL     1       0.969   8.942  20.644  0.00  0.00    +0.000 A 
ATOM      9  C   UNL     1       0.102   9.913  20.089  0.00  0.00    +0.000 A 
ATOM     10  C   UNL     1      -0.629  10.738  20.918  0.00  0.00    +0.000 A 
ATOM     11  H   UNL     1      -1.602  11.554  23.893  0.00  0.00    +0.000 HD
ENDROOT
BRANCH   8  12
ATOM     12  C   UNL     1       1.786   8.076  19.758  0.00  0.00    +0.000 A 
ATOM     13  C   UNL     1       2.193   8.512  18.479  0.00  0.00    +0.000 A 
ATOM     14  C   UNL     1       2.924   7.681  17.623  0.00  0.00    +0.000 A 
ATOM     15  C   UNL     1       3.278   6.407  18.042  0.00  0.00    +0.000 A 
ATOM     16  F   UNL     1       3.980   5.625  17.208  0.00  0.00    +0.000 F 
ATOM     17  C   UNL     1       2.910   5.954  19.303  0.00  0.00    +0.000 A 
ATOM     18 CL   UNL     1       3.357   4.380  19.838  0.00  0.00    +0.000 Cl
ATOM     19  C   UNL     1       2.165   6.778  20.152  0.00  0.00    +0.000 A 
ENDBRANCH   8  12
BRANCH   1  20
ATOM     20  C   UNL     1      -1.834  12.417  19.356  0.00  0.00    +0.000 C 
BRANCH  20  22
ATOM     21  C   UNL     1      -0.099  14.290  18.955  0.00  0.00    +0.000 C 
ATOM     22  C   UNL     1      -0.667  12.954  18.496  0.00  0.00    +0.000 C 
ENDBRANCH  20  22
BRANCH  20  23
ATOM     23  C   UNL     1      -2.785  11.526  18.523  0.00  0.00    +0.000 C 
ATOM     24  C   UNL     1      -2.143  10.768  17.371  0.00  0.00    +0.000 C 
ENDBRANCH  20  23
ENDBRANCH   1  20
TORSDOF 4
ENDMDL
MODEL 2
REMARK VINA RESULT:      -6.8      6.543      8.868
REMARK  Name = 
REMARK  6 active torsions:
REMARK  status: ('A' for Active; 'I' for Inactive)
REMARK    1  A    between atoms: C_1  and  C_2
REMARK    2  A    between atoms: C_2  and  C_3
REMARK    3  A    between atoms: C_3  and  C_4
REMARK    4  A    between atoms: C_3  and  N_6
REMARK    5  A    between atoms: C_4  and  C_5
REMARK    6  A    between atoms: C_13  and  C_14
REMARK                            x       y       z     vdW  Elec       q    Type
REMARK                         _______ _______ _______ _____ _____    ______ ____
ROOT
ATOM      1  N   UNL     1       3.294   4.068  19.036  0.00  0.00    +0.000 N 
ATOM      2  C   UNL     1       2.862   5.049  19.982  0.00  0.00    +0.000 A 
ATOM      3  S   UNL     1       2.085   4.870  21.436  0.00  0.00    +0.000 S 
ATOM      4  N   UNL     1       3.212   6.304  19.466  0.00  0.00    +0.000 N 
ATOM      5  C   UNL     1       3.868   6.129  18.258  0.00  0.00    +0.000 A 
ATOM      6  C   UNL     1       4.367   7.091  17.413  0.00  0.00    +0.000 A 
ATOM      7  C   UNL     1       4.991   6.647  16.243  0.00  0.00    +0.000 A 
ATOM      8  C   UNL     1       5.141   5.266  15.947  0.00  0.00    +0.000 A 
ATOM      9  C   UNL     1       4.624   4.326  16.869  0.00  0.00    +0.000 A 
ATOM     10  C   UNL     1       3.960   4.760  17.998  0.00  0.00    +0.000 A 
ATOM     11  H   UNL     1       3.017   7.181  19.924  0.00  0.00    +0.000 HD
ENDROOT
BRANCH   8  12
ATOM     12  C   UNL     1       5.824   4.805  14.713  0.00  0.00    +0.000 A 
ATOM     13  C   UNL     1       7.125   5.247  14.387  0.00  0.00    +0.000 A 
ATOM     14  C   UNL     1       7.754   4.852  13.202  0.00  0.00    +0.000 A 
ATOM     15  C   UNL     1       7.100   3.989  12.333  0.00  0.00    +0.000 A 
ATOM     16  F   UNL     1       7.720   3.620  11.202  0.00  0.00    +0.000 F 
ATOM     17  C   UNL     1       5.827   3.521  12.634  0.00  0.00    +0.000 A 
ATOM     18 CL   UNL     1       5.013   2.439  11.570  0.00  0.00    +0.000 Cl
ATOM     19  C   UNL     1       5.192   3.929  13.810  0.00  0.00    +0.000 A 
ENDBRANCH   8  12
BRANCH   1  20
ATOM     20  C   UNL     1       3.072   2.621  19.159  0.00  0.00    +0.000 C 
BRANCH  20  22
ATOM     21  C   UNL     1       0.590   2.230  18.555  0.00  0.00    +0.000 C 
ATOM     22  C   UNL     1       2.047   1.970  18.202  0.00  0.00    +0.000 C 
ENDBRANCH  20  22
BRANCH  20  23
ATOM     23  C   UNL     1       4.397   1.824  19.196  0.00  0.00    +0.000 C 
ATOM     24  C   UNL     1       5.013   1.629  20.573  0.00  0.00    +0.000 C 
ENDBRANCH  20  23
ENDBRANCH   1  20
TORSDOF 4
ENDMDL
MODEL 3
REMARK VINA RESULT:      -6.7      6.425      8.724
REMARK  Name = 
REMARK  6 active torsions:
REMARK  status: ('A' for Active; 'I' for Inactive)
REMARK    1  A    between atoms: C_1  and  C_2
REMARK    2  A    between atoms: C_2  and  C_3
REMARK    3  A    between atoms: C_3  and  C_4
REMARK    4  A    between atoms: C_3  and  N_6
REMARK    5  A    between atoms: C_4  and  C_5
REMARK    6  A    between atoms: C_13  and  C_14
REMARK                            x       y       z     vdW  Elec       q    Type
REMARK                         _______ _______ _______ _____ _____    ______ ____
ROOT
ATOM      1  N   UNL     1       3.144   4.445  18.580  0.00  0.00    +0.000 N 
ATOM      2  C   UNL     1       2.748   5.490  19.473  0.00  0.00    +0.000 A 
ATOM      3  S   UNL     1       1.885   5.423  20.887  0.00  0.00    +0.000 S 
ATOM      4  N   UNL     1       3.229   6.694  18.940  0.00  0.00    +0.000 N 
ATOM      5  C   UNL     1       3.929   6.426  17.775  0.00  0.00    +0.000 A 
ATOM      6  C   UNL     1       4.549   7.315  16.930  0.00  0.00    +0.000 A 
ATOM      7  C   UNL     1       5.194   6.782  15.809  0.00  0.00    +0.000 A 
ATOM      8  C   UNL     1       5.242   5.384  15.562  0.00  0.00    +0.000 A 
ATOM      9  C   UNL     1       4.601   4.521  16.482  0.00  0.00    +0.000 A 
ATOM     10  C   UNL     1       3.919   5.046  17.559  0.00  0.00    +0.000 A 
ATOM     11  H   UNL     1       3.085   7.599  19.361  0.00  0.00    +0.000 HD
ENDROOT
BRANCH   8  12
ATOM     12  C   UNL     1       5.947   4.828  14.381  0.00  0.00    +0.000 A 
ATOM     13  C   UNL     1       7.235   5.278  14.017  0.00  0.00    +0.000 A 
ATOM     14  C   UNL     1       7.884   4.790  12.878  0.00  0.00    +0.000 A 
ATOM     15  C   UNL     1       7.263   3.827  12.094  0.00  0.00    +0.000 A 
ATOM     16  F   UNL     1       7.901   3.370  11.007  0.00  0.00    +0.000 F 
ATOM     17  C   UNL     1       6.003   3.349  12.436  0.00  0.00    +0.000 A 
ATOM     18 CL   UNL     1       5.231   2.144  11.480  0.00  0.00    +0.000 Cl
ATOM     19  C   UNL     1       5.348   3.849  13.565  0.00  0.00    +0.000 A 
ENDBRANCH   8  12
BRANCH   1  20
ATOM     20  C   UNL     1       2.797   3.027  18.732  0.00  0.00    +0.000 C 
BRANCH  20  22
ATOM     21  C   UNL     1       4.652   2.004  20.212  0.00  0.00    +0.000 C 
ATOM     22  C   UNL     1       3.174   2.335  20.062  0.00  0.00    +0.000 C 
ENDBRANCH  20  22
BRANCH  20  23
ATOM     23  C   UNL     1       1.329   2.735  18.339  0.00  0.00    +0.000 C 
ATOM     24  C   UNL     1       0.454   2.153  19.438  0.00  0.00    +0.000 C 
ENDBRANCH  20  23
ENDBRANCH   1  20
TORSDOF 4
ENDMDL
MODEL 4
REMARK VINA RESULT:      -6.6      5.083      7.967
REMARK  Name = 
REMARK  6 active torsions:
REMARK  status: ('A' for Active; 'I' for Inactive)
REMARK    1  A    between atoms: C_1  and  C_2
REMARK    2  A    between atoms: C_2  and  C_3
REMARK    3  A    between atoms: C_3  and  C_4
REMARK    4  A    between atoms: C_3  and  N_6
REMARK    5  A    between atoms: C_4  and  C_5
REMARK    6  A    between atoms: C_13  and  C_14
REMARK                            x       y       z     vdW  Elec       q    Type
REMARK                         _______ _______ _______ _____ _____    ______ ____
ROOT
ATOM      1  N   UNL     1       3.232   5.034  18.861  0.00  0.00    +0.000 N 
ATOM      2  C   UNL     1       3.952   4.923  17.631  0.00  0.00    +0.000 A 
ATOM      3  S   UNL     1       4.697   3.614  16.937  0.00  0.00    +0.000 S 
ATOM      4  N   UNL     1       3.947   6.190  17.032  0.00  0.00    +0.000 N 
ATOM      5  C   UNL     1       3.228   7.065  17.832  0.00  0.00    +0.000 A 
ATOM      6  C   UNL     1       2.988   8.403  17.629  0.00  0.00    +0.000 A 
ATOM      7  C   UNL     1       2.225   9.065  18.596  0.00  0.00    +0.000 A 
ATOM      8  C   UNL     1       1.687   8.389  19.722  0.00  0.00    +0.000 A 
ATOM      9  C   UNL     1       1.953   7.007  19.862  0.00  0.00    +0.000 A 
ATOM     10  C   UNL     1       2.750   6.362  18.939  0.00  0.00    +0.000 A 
ATOM     11  H   UNL     1       4.394   6.406  16.155  0.00  0.00    +0.000 HD
ENDROOT
BRANCH   8  12
ATOM     12  C   UNL     1       0.861   9.098  20.732  0.00  0.00    +0.000 A 
ATOM     13  C   UNL     1       0.880   8.720  22.091  0.00  0.00    +0.000 A 
ATOM     14  C   UNL     1       0.069   9.355  23.037  0.00  0.00    +0.000 A 
ATOM     15  C   UNL     1      -0.762  10.394  22.642  0.00  0.00    +0.000 A 
ATOM     16  F   UNL     1      -1.531  10.991  23.563  0.00  0.00    +0.000 F 
ATOM     17  C   UNL     1      -0.790  10.803  21.314  0.00  0.00    +0.000 A 
ATOM     18 CL   UNL     1      -1.806  12.101  20.815  0.00  0.00    +0.000 Cl
ATOM     19  C   UNL     1       0.009  10.157  20.365  0.00  0.00    +0.000 A 
ENDBRANCH   8  12
BRANCH   1  20
ATOM     20  C   UNL     1       3.046   3.948  19.832  0.00  0.00    +0.000 C 
BRANCH  20  22
ATOM     21  C   UNL     1       1.860   3.114  21.972  0.00  0.00    +0.000 C 
ATOM     22  C   UNL     1       2.400   4.304  21.191  0.00  0.00    +0.000 C 
ENDBRANCH  20  22
BRANCH  20  23
ATOM     23  C   UNL     1       2.383   2.701  19.200  0.00  0.00    +0.000 C 
ATOM     24  C   UNL     1       1.073   2.949  18.467  0.00  0.00    +0.000 C 
ENDBRANCH  20  23
ENDBRANCH   1  20
TORSDOF 4
ENDMDL
MODEL 5
REMARK VINA RESULT:      -6.5      2.119      3.977
REMARK  Name = 
REMARK  6 active torsions:
REMARK  status: ('A' for Active; 'I' for Inactive)
REMARK    1  A    between atoms: C_1  and  C_2
REMARK    2  A    between atoms: C_2  and  C_3
REMARK    3  A    between atoms: C_3  and  C_4
REMARK    4  A    between atoms: C_3  and  N_6
REMARK    5  A    between atoms: C_4  and  C_5
REMARK    6  A    between atoms: C_13  and  C_14
REMARK                            x       y       z     vdW  Elec       q    Type
REMARK                         _______ _______ _______ _____ _____    ______ ____
ROOT
ATOM      1  N   UNL     1       0.090  10.514  20.239  0.00  0.00    +0.000 N 
ATOM      2  C   UNL     1       0.080  11.688  19.422  0.00  0.00    +0.000 A 
ATOM      3  S   UNL     1      -0.696  13.137  19.633  0.00  0.00    +0.000 S 
ATOM      4  N   UNL     1       0.889  11.422  18.308  0.00  0.00    +0.000 N 
ATOM      5  C   UNL     1       1.417  10.146  18.426  0.00  0.00    +0.000 A 
ATOM      6  C   UNL     1       2.246   9.484  17.553  0.00  0.00    +0.000 A 
ATOM      7  C   UNL     1       2.641   8.190  17.910  0.00  0.00    +0.000 A 
ATOM      8  C   UNL     1       2.239   7.591  19.133  0.00  0.00    +0.000 A 
ATOM      9  C   UNL     1       1.402   8.335  19.998  0.00  0.00    +0.000 A 
ATOM     10  C   UNL     1       0.967   9.590  19.625  0.00  0.00    +0.000 A 
ATOM     11  H   UNL     1       1.054  12.075  17.558  0.00  0.00    +0.000 HD
ENDROOT
BRANCH   8  12
ATOM     12  C   UNL     1       2.681   6.226  19.511  0.00  0.00    +0.000 A 
ATOM     13  C   UNL     1       3.918   5.708  19.072  0.00  0.00    +0.000 A 
ATOM     14  C   UNL     1       4.317   4.405  19.388  0.00  0.00    +0.000 A 
ATOM     15  C   UNL     1       3.494   3.605  20.168  0.00  0.00    +0.000 A 
ATOM     16  F   UNL     1       3.895   2.360  20.462  0.00  0.00    +0.000 F 
ATOM     17  C   UNL     1       2.279   4.092  20.633  0.00  0.00    +0.000 A 
ATOM     18 CL   UNL     1       1.257   3.113  21.614  0.00  0.00    +0.000 Cl
ATOM     19  C   UNL     1       1.872   5.388  20.304  0.00  0.00    +0.000 A 
ENDBRANCH   8  12
BRANCH   1  20
ATOM     20  C   UNL     1      -0.677  10.344  21.480  0.00  0.00    +0.000 C 
BRANCH  20  22
ATOM     21  C   UNL     1       0.343   9.283  23.605  0.00  0.00    +0.000 C 
ATOM     22  C   UNL     1      -0.424   9.063  22.308  0.00  0.00    +0.000 C 
ENDBRANCH  20  22
BRANCH  20  23
ATOM     23  C   UNL     1      -0.646  11.608  22.370  0.00  0.00    +0.000 C 
ATOM     24  C   UNL     1      -1.962  11.980  23.037  0.00  0.00    +0.000 C 
ENDBRANCH  20  23
ENDBRANCH   1  20
TORSDOF 4
ENDMDL
MODEL 6
REMARK VINA RESULT:      -6.4      5.056      8.131
REMARK  Name = 
REMARK  6 active torsions:
REMARK  status: ('A' for Active; 'I' for Inactive)
REMARK    1  A    between atoms: C_1  and  C_2
REMARK    2  A    between atoms: C_2  and  C_3
REMARK    3  A    between atoms: C_3  and  C_4
REMARK    4  A    between atoms: C_3  and  N_6
REMARK    5  A    between atoms: C_4  and  C_5
REMARK    6  A    between atoms: C_13  and  C_14
REMARK                            x       y       z     vdW  Elec       q    Type
REMARK                         _______ _______ _______ _____ _____    ______ ____
ROOT
ATOM      1  N   UNL     1       3.277   5.345  18.863  0.00  0.00    +0.000 N 
ATOM      2  C   UNL     1       3.948   5.251  17.603  0.00  0.00    +0.000 A 
ATOM      3  S   UNL     1       4.737   3.974  16.900  0.00  0.00    +0.000 S 
ATOM      4  N   UNL     1       3.844   6.505  16.984  0.00  0.00    +0.000 N 
ATOM      5  C   UNL     1       3.111   7.353  17.800  0.00  0.00    +0.000 A 
ATOM      6  C   UNL     1       2.785   8.670  17.585  0.00  0.00    +0.000 A 
ATOM      7  C   UNL     1       2.028   9.307  18.574  0.00  0.00    +0.000 A 
ATOM      8  C   UNL     1       1.580   8.623  19.735  0.00  0.00    +0.000 A 
ATOM      9  C   UNL     1       1.931   7.261  19.886  0.00  0.00    +0.000 A 
ATOM     10  C   UNL     1       2.723   6.645  18.940  0.00  0.00    +0.000 A 
ATOM     11  H   UNL     1       4.239   6.729  16.084  0.00  0.00    +0.000 HD
ENDROOT
BRANCH   8  12
ATOM     12  C   UNL     1       0.758   9.303  20.768  0.00  0.00    +0.000 A 
ATOM     13  C   UNL     1       0.786   8.888  22.116  0.00  0.00    +0.000 A 
ATOM     14  C   UNL     1      -0.020   9.496  23.084  0.00  0.00    +0.000 A 
ATOM     15  C   UNL     1      -0.854  10.545  22.722  0.00  0.00    +0.000 A 
ATOM     16  F   UNL     1      -1.619  11.116  23.663  0.00  0.00    +0.000 F 
ATOM     17  C   UNL     1      -0.891  10.990  21.406  0.00  0.00    +0.000 A 
ATOM     18 CL   UNL     1      -1.911  12.300  20.948  0.00  0.00    +0.000 Cl
ATOM     19  C   UNL     1      -0.097  10.371  20.436  0.00  0.00    +0.000 A 
ENDBRANCH   8  12
BRANCH   1  20
ATOM     20  C   UNL     1       3.197   4.270  19.859  0.00  0.00    +0.000 C 
BRANCH  20  22
ATOM     21  C   UNL     1       1.112   3.188  20.938  0.00  0.00    +0.000 C 
ATOM     22  C   UNL     1       2.035   3.258  19.729  0.00  0.00    +0.000 C 
ENDBRANCH  20  22
BRANCH  20  23
ATOM     23  C   UNL     1       4.552   3.551  20.060  0.00  0.00    +0.000 C 
ATOM     24  C   UNL     1       4.489   2.034  20.145  0.00  0.00    +0.000 C 
ENDBRANCH  20  23
ENDBRANCH   1  20
TORSDOF 4
ENDMDL
MODEL 7
REMARK VINA RESULT:      -6.4      8.225     10.564
REMARK  Name = 
REMARK  6 active torsions:
REMARK  status: ('A' for Active; 'I' for Inactive)
REMARK    1  A    between atoms: C_1  and  C_2
REMARK    2  A    between atoms: C_2  and  C_3
REMARK    3  A    between atoms: C_3  and  C_4
REMARK    4  A    between atoms: C_3  and  N_6
REMARK    5  A    between atoms: C_4  and  C_5
REMARK    6  A    between atoms: C_13  and  C_14
REMARK                            x       y       z     vdW  Elec       q    Type
REMARK                         _______ _______ _______ _____ _____    ______ ____
ROOT
ATOM      1  N   UNL     1       6.214   4.128  13.472  0.00  0.00    +0.000 N 
ATOM      2  C   UNL     1       7.354   4.936  13.168  0.00  0.00    +0.000 A 
ATOM      3  S   UNL     1       8.126   5.203  11.726  0.00  0.00    +0.000 S 
ATOM      4  N   UNL     1       7.774   5.527  14.368  0.00  0.00    +0.000 N 
ATOM      5  C   UNL     1       6.920   5.137  15.387  0.00  0.00    +0.000 A 
ATOM      6  C   UNL     1       6.976   5.471  16.719  0.00  0.00    +0.000 A 
ATOM      7  C   UNL     1       5.983   4.940  17.549  0.00  0.00    +0.000 A 
ATOM      8  C   UNL     1       4.939   4.120  17.044  0.00  0.00    +0.000 A 
ATOM      9  C   UNL     1       4.927   3.832  15.660  0.00  0.00    +0.000 A 
ATOM     10  C   UNL     1       5.934   4.309  14.847  0.00  0.00    +0.000 A 
ATOM     11  H   UNL     1       8.569   6.142  14.450  0.00  0.00    +0.000 HD
ENDROOT
BRANCH   8  12
ATOM     12  C   UNL     1       3.878   3.580  17.931  0.00  0.00    +0.000 A 
ATOM     13  C   UNL     1       3.518   2.216  17.894  0.00  0.00    +0.000 A 
ATOM     14  C   UNL     1       2.487   1.712  18.695  0.00  0.00    +0.000 A 
ATOM     15  C   UNL     1       1.814   2.561  19.562  0.00  0.00    +0.000 A 
ATOM     16  F   UNL     1       0.831   2.059  20.323  0.00  0.00    +0.000 F 
ATOM     17  C   UNL     1       2.158   3.905  19.636  0.00  0.00    +0.000 A 
ATOM     18 CL   UNL     1       1.340   4.964  20.719  0.00  0.00    +0.000 Cl
ATOM     19  C   UNL     1       3.177   4.412  18.824  0.00  0.00    +0.000 A 
ENDBRANCH   8  12
BRANCH   1  20
ATOM     20  C   UNL     1       5.493   3.287  12.507  0.00  0.00    +0.000 C 
BRANCH  20  22
ATOM     21  C   UNL     1       3.499   2.988  10.891  0.00  0.00    +0.000 C 
ATOM     22  C   UNL     1       4.387   3.956  11.659  0.00  0.00    +0.000 C 
ENDBRANCH  20  22
BRANCH  20  23
ATOM     23  C   UNL     1       6.450   2.448  11.629  0.00  0.00    +0.000 C 
ATOM     24  C   UNL     1       6.041   1.000  11.403  0.00  0.00    +0.000 C 
ENDBRANCH  20  23
ENDBRANCH   1  20
TORSDOF 4
ENDMDL
MODEL 8
REMARK VINA RESULT:      -6.4      1.264      2.258
REMARK  Name = 
REMARK  6 active torsions:
REMARK  status: ('A' for Active; 'I' for Inactive)
REMARK    1  A    between atoms: C_1  and  C_2
REMARK    2  A    between atoms: C_2  and  C_3
REMARK    3  A    between atoms: C_3  and  C_4
REMARK    4  A    between atoms: C_3  and  N_6
REMARK    5  A    between atoms: C_4  and  C_5
REMARK    6  A    between atoms: C_13  and  C_14
REMARK                            x       y       z     vdW  Elec       q    Type
REMARK                         _______ _______ _______ _____ _____    ______ ____
ROOT
ATOM      1  N   UNL     1      -0.902  11.470  19.866  0.00  0.00    +0.000 N 
ATOM      2  C   UNL     1      -1.489  12.173  20.964  0.00  0.00    +0.000 A 
ATOM      3  S   UNL     1      -2.475  13.506  20.982  0.00  0.00    +0.000 S 
ATOM      4  N   UNL     1      -1.078  11.526  22.137  0.00  0.00    +0.000 N 
ATOM      5  C   UNL     1      -0.288  10.437  21.800  0.00  0.00    +0.000 A 
ATOM      6  C   UNL     1       0.332   9.543  22.638  0.00  0.00    +0.000 A 
ATOM      7  C   UNL     1       1.079   8.523  22.039  0.00  0.00    +0.000 A 
ATOM      8  C   UNL     1       1.171   8.387  20.629  0.00  0.00    +0.000 A 
ATOM      9  C   UNL     1       0.491   9.329  19.821  0.00  0.00    +0.000 A 
ATOM     10  C   UNL     1      -0.202  10.367  20.407  0.00  0.00    +0.000 A 
ATOM     11  H   UNL     1      -1.335  11.817  23.067  0.00  0.00    +0.000 HD
ENDROOT
BRANCH   8  12
ATOM     12  C   UNL     1       1.949   7.288  20.003  0.00  0.00    +0.000 A 
ATOM     13  C   UNL     1       1.967   5.993  20.563  0.00  0.00    +0.000 A 
ATOM     14  C   UNL     1       2.736   4.967  20.003  0.00  0.00    +0.000 A 
ATOM     15  C   UNL     1       3.483   5.215  18.860  0.00  0.00    +0.000 A 
ATOM     16  F   UNL     1       4.212   4.219  18.337  0.00  0.00    +0.000 F 
ATOM     17  C   UNL     1       3.471   6.475  18.273  0.00  0.00    +0.000 A 
ATOM     18 CL   UNL     1       4.383   6.789  16.847  0.00  0.00    +0.000 Cl
ATOM     19  C   UNL     1       2.716   7.504  18.843  0.00  0.00    +0.000 A 
ENDBRANCH   8  12
BRANCH   1  20
ATOM     20  C   UNL     1      -1.031  11.852  18.453  0.00  0.00    +0.000 C 
BRANCH  20  22
ATOM     21  C   UNL     1      -2.815  10.155  17.664  0.00  0.00    +0.000 C 
ATOM     22  C   UNL     1      -2.397  11.615  17.769  0.00  0.00    +0.000 C 
ENDBRANCH  20  22
BRANCH  20  23
ATOM     23  C   UNL     1      -0.500  13.278  18.178  0.00  0.00    +0.000 C 
ATOM     24  C   UNL     1       0.956  13.524  18.543  0.00  0.00    +0.000 C 
ENDBRANCH  20  23
ENDBRANCH   1  20
TORSDOF 4
ENDMDL
MODEL 9
REMARK VINA RESULT:      -6.3      1.093      1.513
REMARK  Name = 
REMARK  6 active torsions:
REMARK  status: ('A' for Active; 'I' for Inactive)
REMARK    1  A    between atoms: C_1  and  C_2
REMARK    2  A    between atoms: C_2  and  C_3
REMARK    3  A    between atoms: C_3  and  C_4
REMARK    4  A    between atoms: C_3  and  N_6
REMARK    5  A    between atoms: C_4  and  C_5
REMARK    6  A    between atoms: C_13  and  C_14
REMARK                            x       y       z     vdW  Elec       q    Type
REMARK                         _______ _______ _______ _____ _____    ______ ____
ROOT
ATOM      1  N   UNL     1      -1.446  11.902  20.524  0.00  0.00    +0.000 N 
ATOM      2  C   UNL     1      -2.019  12.550  21.663  0.00  0.00    +0.000 A 
ATOM      3  S   UNL     1      -3.006  13.878  21.759  0.00  0.00    +0.000 S 
ATOM      4  N   UNL     1      -1.589  11.848  22.798  0.00  0.00    +0.000 N 
ATOM      5  C   UNL     1      -0.803  10.778  22.398  0.00  0.00    +0.000 A 
ATOM      6  C   UNL     1      -0.169   9.846  23.184  0.00  0.00    +0.000 A 
ATOM      7  C   UNL     1       0.571   8.859  22.526  0.00  0.00    +0.000 A 
ATOM      8  C   UNL     1       0.642   8.790  21.110  0.00  0.00    +0.000 A 
ATOM      9  C   UNL     1      -0.050   9.768  20.357  0.00  0.00    +0.000 A 
ATOM     10  C   UNL     1      -0.737  10.775  21.003  0.00  0.00    +0.000 A 
ATOM     11  H   UNL     1      -1.834  12.093  23.744  0.00  0.00    +0.000 HD
ENDROOT
BRANCH   8  12
ATOM     12  C   UNL     1       1.413   7.725  20.422  0.00  0.00    +0.000 A 
ATOM     13  C   UNL     1       1.453   6.407  20.926  0.00  0.00    +0.000 A 
ATOM     14  C   UNL     1       2.215   5.411  20.306  0.00  0.00    +0.000 A 
ATOM     15  C   UNL     1       2.935   5.712  19.158  0.00  0.00    +0.000 A 
ATOM     16  F   UNL     1       3.659   4.745  18.577  0.00  0.00    +0.000 F 
ATOM     17  C   UNL     1       2.902   6.995  18.625  0.00  0.00    +0.000 A 
ATOM     18 CL   UNL     1       3.779   7.376  17.193  0.00  0.00    +0.000 Cl
ATOM     19  C   UNL     1       2.153   7.995  19.254  0.00  0.00    +0.000 A 
ENDBRANCH   8  12
BRANCH   1  20
ATOM     20  C   UNL     1      -1.596  12.350  19.134  0.00  0.00    +0.000 C 
BRANCH  20  22
ATOM     21  C   UNL     1       0.555  13.770  18.944  0.00  0.00    +0.000 C 
ATOM     22  C   UNL     1      -0.308  12.670  18.342  0.00  0.00    +0.000 C 
ENDBRANCH  20  22
BRANCH  20  23
ATOM     23  C   UNL     1      -2.548  11.441  18.322  0.00  0.00    +0.000 C 
ATOM     24  C   UNL     1      -1.876  10.416  17.421  0.00  0.00    +0.000 C 
ENDBRANCH  20  23
ENDBRANCH   1  20
TORSDOF 4
ENDMDL
