MODEL 1
REMARK VINA RESULT:      -8.4      0.000      0.000
REMARK  Name = 
REMARK  7 active torsions:
REMARK  status: ('A' for Active; 'I' for Inactive)
REMARK    1  A    between atoms: C_1  and  C_2
REMARK    2  A    between atoms: C_5  and  N_6
REMARK    3  A    between atoms: C_9  and  C_10
REMARK    4  A    between atoms: C_13  and  C_14
REMARK    5  A    between atoms: C_17  and  C_18
REMARK    6  A    between atoms: N_20  and  C_21
REMARK    7  A    between atoms: C_25  and  C_26
REMARK                            x       y       z     vdW  Elec       q    Type
REMARK                         _______ _______ _______ _____ _____    ______ ____
ROOT
ATOM      1  N   UNL     1      -1.527  12.299  22.467  0.00  0.00    +0.000 N 
ATOM      2  C   UNL     1      -1.169  11.706  21.298  0.00  0.00    +0.000 A 
ATOM      3  N   UNL     1      -1.904  11.607  20.221  0.00  0.00    +0.000 NA
ATOM      4  C   UNL     1      -1.282  10.873  19.224  0.00  0.00    +0.000 A 
ATOM      5  C   UNL     1      -0.033  10.372  19.571  0.00  0.00    +0.000 A 
ATOM      6  S   UNL     1       0.381  10.957  21.141  0.00  0.00    +0.000 S 
ATOM      7  H   UNL     1      -0.844  12.305  23.213  0.00  0.00    +0.000 HD
ENDROOT
BRANCH   1  12
ATOM      8  C   UNL     1      -6.933  13.230  24.200  0.00  0.00    +0.000 C 
ATOM      9  C   UNL     1      -5.516  13.003  23.766  0.00  0.00    +0.000 A 
ATOM     10  C   UNL     1      -4.608  12.296  24.558  0.00  0.00    +0.000 A 
ATOM     11  C   UNL     1      -3.288  12.100  24.125  0.00  0.00    +0.000 A 
ATOM     12  C   UNL     1      -2.842  12.595  22.890  0.00  0.00    +0.000 A 
ATOM     13  C   UNL     1      -3.763  13.314  22.117  0.00  0.00    +0.000 A 
ATOM     14  C   UNL     1      -5.080  13.513  22.543  0.00  0.00    +0.000 A 
ENDBRANCH   1  12
BRANCH   4  15
ATOM     15  C   UNL     1      -1.979  10.697  17.953  0.00  0.00    +0.000 A 
ATOM     16  C   UNL     1      -1.997  11.698  16.978  0.00  0.00    +0.000 A 
ATOM     17  C   UNL     1      -2.618  11.492  15.746  0.00  0.00    +0.000 A 
ATOM     18  C   UNL     1      -3.291  10.298  15.484  0.00  0.00    +0.000 A 
ATOM     19  C   UNL     1      -3.951  10.079  14.158  0.00  0.00    +0.000 C 
ATOM     20  C   UNL     1      -3.344   9.316  16.480  0.00  0.00    +0.000 A 
ATOM     21  C   UNL     1      -2.691   9.513  17.702  0.00  0.00    +0.000 A 
ENDBRANCH   4  15
BRANCH   5  22
ATOM     22  C   UNL     1       0.847   9.468  18.837  0.00  0.00    +0.000 C 
ATOM     23  O   UNL     1       0.974   9.507  17.614  0.00  0.00    +0.000 OA
ATOM     24  N   UNL     1       1.513   8.515  19.604  0.00  0.00    +0.000 N 
ATOM     25  H   UNL     1       1.025   8.208  20.437  0.00  0.00    +0.000 HD
BRANCH  24  26
ATOM     26  C   UNL     1       2.335   7.599  18.972  0.00  0.00    +0.000 A 
ATOM     27  S   UNL     1       3.219   8.231  17.663  0.00  0.00    +0.000 S 
ATOM     28  C   UNL     1       4.053   6.759  17.450  0.00  0.00    +0.000 A 
ATOM     29  C   UNL     1       3.569   5.754  18.270  0.00  0.00    +0.000 A 
ATOM     30  C   UNL     1       2.572   6.253  19.180  0.00  0.00    +0.000 A 
ATOM     31  C   UNL     1       4.049   4.334  18.138  0.00  0.00    +0.000 C 
ATOM     32  C   UNL     1       5.394   4.243  17.401  0.00  0.00    +0.000 C 
ATOM     33  C   UNL     1       5.422   5.125  16.144  0.00  0.00    +0.000 C 
ATOM     34  C   UNL     1       5.177   6.607  16.469  0.00  0.00    +0.000 C 
BRANCH  30  35
ATOM     35  C   UNL     1       1.838   5.440  20.109  0.00  0.00    +0.000 C 
ATOM     36  N   UNL     1       1.192   4.790  20.818  0.00  0.00    +0.000 NA
ENDBRANCH  30  35
ENDBRANCH  24  26
ENDBRANCH   5  22
TORSDOF 5
ENDMDL
MODEL 2
REMARK VINA RESULT:      -8.4      2.718      3.606
REMARK  Name = 
REMARK  7 active torsions:
REMARK  status: ('A' for Active; 'I' for Inactive)
REMARK    1  A    between atoms: C_1  and  C_2
REMARK    2  A    between atoms: C_5  and  N_6
REMARK    3  A    between atoms: C_9  and  C_10
REMARK    4  A    between atoms: C_13  and  C_14
REMARK    5  A    between atoms: C_17  and  C_18
REMARK    6  A    between atoms: N_20  and  C_21
REMARK    7  A    between atoms: C_25  and  C_26
REMARK                            x       y       z     vdW  Elec       q    Type
REMARK                         _______ _______ _______ _____ _____    ______ ____
ROOT
ATOM      1  N   UNL     1      -1.690  11.098  23.243  0.00  0.00    +0.000 N 
ATOM      2  C   UNL     1      -0.746  10.901  22.286  0.00  0.00    +0.000 A 
ATOM      3  N   UNL     1      -0.043  11.826  21.687  0.00  0.00    +0.000 NA
ATOM      4  C   UNL     1       0.779  11.307  20.699  0.00  0.00    +0.000 A 
ATOM      5  C   UNL     1       0.673   9.933  20.524  0.00  0.00    +0.000 A 
ATOM      6  S   UNL     1      -0.399   9.304  21.722  0.00  0.00    +0.000 S 
ATOM      7  H   UNL     1      -2.146  10.279  23.621  0.00  0.00    +0.000 HD
ENDROOT
BRANCH   1  12
ATOM      8  C   UNL     1      -4.236  16.074  24.607  0.00  0.00    +0.000 C 
ATOM      9  C   UNL     1      -3.571  14.785  24.228  0.00  0.00    +0.000 A 
ATOM     10  C   UNL     1      -2.221  14.730  23.872  0.00  0.00    +0.000 A 
ATOM     11  C   UNL     1      -1.626  13.509  23.522  0.00  0.00    +0.000 A 
ATOM     12  C   UNL     1      -2.358  12.311  23.526  0.00  0.00    +0.000 A 
ATOM     13  C   UNL     1      -3.714  12.389  23.870  0.00  0.00    +0.000 A 
ATOM     14  C   UNL     1      -4.312  13.603  24.220  0.00  0.00    +0.000 A 
ENDBRANCH   1  12
BRANCH   4  15
ATOM     15  C   UNL     1       1.640  12.225  19.958  0.00  0.00    +0.000 A 
ATOM     16  C   UNL     1       1.772  12.151  18.568  0.00  0.00    +0.000 A 
ATOM     17  C   UNL     1       2.553  13.072  17.870  0.00  0.00    +0.000 A 
ATOM     18  C   UNL     1       3.272  14.053  18.555  0.00  0.00    +0.000 A 
ATOM     19  C   UNL     1       4.104  15.044  17.800  0.00  0.00    +0.000 C 
ATOM     20  C   UNL     1       3.207  14.092  19.952  0.00  0.00    +0.000 A 
ATOM     21  C   UNL     1       2.396  13.187  20.647  0.00  0.00    +0.000 A 
ENDBRANCH   4  15
BRANCH   5  22
ATOM     22  C   UNL     1       1.278   9.071  19.514  0.00  0.00    +0.000 C 
ATOM     23  O   UNL     1       1.091   9.222  18.308  0.00  0.00    +0.000 OA
ATOM     24  N   UNL     1       2.060   8.025  20.000  0.00  0.00    +0.000 N 
ATOM     25  H   UNL     1       1.783   7.658  20.902  0.00  0.00    +0.000 HD
BRANCH  24  26
ATOM     26  C   UNL     1       2.636   7.144  19.102  0.00  0.00    +0.000 A 
ATOM     27  S   UNL     1       3.540   7.886  17.867  0.00  0.00    +0.000 S 
ATOM     28  C   UNL     1       4.043   6.376  17.256  0.00  0.00    +0.000 A 
ATOM     29  C   UNL     1       3.422   5.316  17.894  0.00  0.00    +0.000 A 
ATOM     30  C   UNL     1       2.609   5.766  18.993  0.00  0.00    +0.000 A 
ATOM     31  C   UNL     1       3.595   3.901  17.413  0.00  0.00    +0.000 C 
ATOM     32  C   UNL     1       4.842   3.737  16.530  0.00  0.00    +0.000 C 
ATOM     33  C   UNL     1       4.964   4.863  15.492  0.00  0.00    +0.000 C 
ATOM     34  C   UNL     1       5.045   6.251  16.148  0.00  0.00    +0.000 C 
BRANCH  30  35
ATOM     35  C   UNL     1       1.790   4.910  19.804  0.00  0.00    +0.000 C 
ATOM     36  N   UNL     1       1.103   4.274  20.488  0.00  0.00    +0.000 NA
ENDBRANCH  30  35
ENDBRANCH  24  26
ENDBRANCH   5  22
TORSDOF 5
ENDMDL
MODEL 3
REMARK VINA RESULT:      -8.0      2.301      9.478
REMARK  Name = 
REMARK  7 active torsions:
REMARK  status: ('A' for Active; 'I' for Inactive)
REMARK    1  A    between atoms: C_1  and  C_2
REMARK    2  A    between atoms: C_5  and  N_6
REMARK    3  A    between atoms: C_9  and  C_10
REMARK    4  A    between atoms: C_13  and  C_14
REMARK    5  A    between atoms: C_17  and  C_18
REMARK    6  A    between atoms: N_20  and  C_21
REMARK    7  A    between atoms: C_25  and  C_26
REMARK                            x       y       z     vdW  Elec       q    Type
REMARK                         _______ _______ _______ _____ _____    ______ ____
ROOT
ATOM      1  N   UNL     1       1.872   7.743  20.843  0.00  0.00    +0.000 N 
ATOM      2  C   UNL     1       0.940   8.723  20.712  0.00  0.00    +0.000 A 
ATOM      3  N   UNL     1       0.172   8.930  19.674  0.00  0.00    +0.000 NA
ATOM      4  C   UNL     1      -0.615  10.062  19.818  0.00  0.00    +0.000 A 
ATOM      5  C   UNL     1      -0.414  10.757  21.004  0.00  0.00    +0.000 A 
ATOM      6  S   UNL     1       0.704   9.874  21.979  0.00  0.00    +0.000 S 
ATOM      7  H   UNL     1       2.386   7.704  21.712  0.00  0.00    +0.000 HD
ENDROOT
BRANCH   1  12
ATOM      8  C   UNL     1       4.451   4.620  16.758  0.00  0.00    +0.000 C 
ATOM      9  C   UNL     1       3.758   5.422  17.817  0.00  0.00    +0.000 A 
ATOM     10  C   UNL     1       3.302   4.839  19.002  0.00  0.00    +0.000 A 
ATOM     11  C   UNL     1       2.656   5.616  19.975  0.00  0.00    +0.000 A 
ATOM     12  C   UNL     1       2.455   6.994  19.796  0.00  0.00    +0.000 A 
ATOM     13  C   UNL     1       2.905   7.557  18.595  0.00  0.00    +0.000 A 
ATOM     14  C   UNL     1       3.550   6.788  17.621  0.00  0.00    +0.000 A 
ENDBRANCH   1  12
BRANCH   4  15
ATOM     15  C   UNL     1      -1.541  10.406  18.742  0.00  0.00    +0.000 A 
ATOM     16  C   UNL     1      -1.366   9.931  17.439  0.00  0.00    +0.000 A 
ATOM     17  C   UNL     1      -2.291  10.221  16.437  0.00  0.00    +0.000 A 
ATOM     18  C   UNL     1      -3.384  11.047  16.701  0.00  0.00    +0.000 A 
ATOM     19  C   UNL     1      -4.379  11.351  15.624  0.00  0.00    +0.000 C 
ATOM     20  C   UNL     1      -3.532  11.590  17.983  0.00  0.00    +0.000 A 
ATOM     21  C   UNL     1      -2.619  11.269  18.995  0.00  0.00    +0.000 A 
ENDBRANCH   4  15
BRANCH   5  22
ATOM     22  C   UNL     1      -0.962  12.037  21.440  0.00  0.00    +0.000 C 
ATOM     23  O   UNL     1      -0.598  13.114  20.970  0.00  0.00    +0.000 OA
ATOM     24  N   UNL     1      -1.905  11.975  22.464  0.00  0.00    +0.000 N 
ATOM     25  H   UNL     1      -1.792  11.207  23.113  0.00  0.00    +0.000 HD
BRANCH  24  26
ATOM     26  C   UNL     1      -2.441  13.153  22.955  0.00  0.00    +0.000 A 
ATOM     27  S   UNL     1      -1.334  14.135  23.794  0.00  0.00    +0.000 S 
ATOM     28  C   UNL     1      -2.496  15.368  23.987  0.00  0.00    +0.000 A 
ATOM     29  C   UNL     1      -3.750  14.985  23.543  0.00  0.00    +0.000 A 
ATOM     30  C   UNL     1      -3.714  13.689  22.918  0.00  0.00    +0.000 A 
ATOM     31  C   UNL     1      -4.958  15.855  23.761  0.00  0.00    +0.000 C 
ATOM     32  C   UNL     1      -4.577  17.316  24.046  0.00  0.00    +0.000 C 
ATOM     33  C   UNL     1      -3.429  17.424  25.060  0.00  0.00    +0.000 C 
ATOM     34  C   UNL     1      -2.159  16.704  24.578  0.00  0.00    +0.000 C 
BRANCH  30  35
ATOM     35  C   UNL     1      -4.867  12.994  22.419  0.00  0.00    +0.000 C 
ATOM     36  N   UNL     1      -5.771  12.376  22.040  0.00  0.00    +0.000 NA
ENDBRANCH  30  35
ENDBRANCH  24  26
ENDBRANCH   5  22
TORSDOF 5
ENDMDL
MODEL 4
REMARK VINA RESULT:      -8.0      0.794      1.096
REMARK  Name = 
REMARK  7 active torsions:
REMARK  status: ('A' for Active; 'I' for Inactive)
REMARK    1  A    between atoms: C_1  and  C_2
REMARK    2  A    between atoms: C_5  and  N_6
REMARK    3  A    between atoms: C_9  and  C_10
REMARK    4  A    between atoms: C_13  and  C_14
REMARK    5  A    between atoms: C_17  and  C_18
REMARK    6  A    between atoms: N_20  and  C_21
REMARK    7  A    between atoms: C_25  and  C_26
REMARK                            x       y       z     vdW  Elec       q    Type
REMARK                         _______ _______ _______ _____ _____    ______ ____
ROOT
ATOM      1  N   UNL     1      -0.599  12.550  22.265  0.00  0.00    +0.000 N 
ATOM      2  C   UNL     1      -0.346  11.880  21.110  0.00  0.00    +0.000 A 
ATOM      3  N   UNL     1      -1.156  11.757  20.091  0.00  0.00    +0.000 NA
ATOM      4  C   UNL     1      -0.634  10.943  19.098  0.00  0.00    +0.000 A 
ATOM      5  C   UNL     1       0.613  10.404  19.391  0.00  0.00    +0.000 A 
ATOM      6  S   UNL     1       1.156  11.052  20.895  0.00  0.00    +0.000 S 
ATOM      7  H   UNL     1       0.132  12.564  22.963  0.00  0.00    +0.000 HD
ENDROOT
BRANCH   1  12
ATOM      8  C   UNL     1      -5.882  13.883  24.110  0.00  0.00    +0.000 C 
ATOM      9  C   UNL     1      -4.498  13.536  23.652  0.00  0.00    +0.000 A 
ATOM     10  C   UNL     1      -3.927  12.288  23.915  0.00  0.00    +0.000 A 
ATOM     11  C   UNL     1      -2.628  11.993  23.475  0.00  0.00    +0.000 A 
ATOM     12  C   UNL     1      -1.869  12.929  22.754  0.00  0.00    +0.000 A 
ATOM     13  C   UNL     1      -2.453  14.179  22.514  0.00  0.00    +0.000 A 
ATOM     14  C   UNL     1      -3.747  14.480  22.951  0.00  0.00    +0.000 A 
ENDBRANCH   1  12
BRANCH   4  15
ATOM     15  C   UNL     1      -1.422  10.731  17.887  0.00  0.00    +0.000 A 
ATOM     16  C   UNL     1      -1.426   9.505  17.215  0.00  0.00    +0.000 A 
ATOM     17  C   UNL     1      -2.230   9.302  16.093  0.00  0.00    +0.000 A 
ATOM     18  C   UNL     1      -3.003  10.344  15.579  0.00  0.00    +0.000 A 
ATOM     19  C   UNL     1      -3.869  10.119  14.378  0.00  0.00    +0.000 C 
ATOM     20  C   UNL     1      -2.951  11.598  16.198  0.00  0.00    +0.000 A 
ATOM     21  C   UNL     1      -2.170  11.788  17.344  0.00  0.00    +0.000 A 
ENDBRANCH   4  15
BRANCH   5  22
ATOM     22  C   UNL     1       1.402   9.422  18.653  0.00  0.00    +0.000 C 
ATOM     23  O   UNL     1       1.681   9.549  17.462  0.00  0.00    +0.000 OA
ATOM     24  N   UNL     1       1.792   8.295  19.373  0.00  0.00    +0.000 N 
ATOM     25  H   UNL     1       1.160   8.010  20.111  0.00  0.00    +0.000 HD
BRANCH  24  26
ATOM     26  C   UNL     1       2.510   7.302  18.729  0.00  0.00    +0.000 A 
ATOM     27  S   UNL     1       3.471   7.853  17.437  0.00  0.00    +0.000 S 
ATOM     28  C   UNL     1       4.134   6.300  17.202  0.00  0.00    +0.000 A 
ATOM     29  C   UNL     1       3.533   5.343  18.001  0.00  0.00    +0.000 A 
ATOM     30  C   UNL     1       2.591   5.935  18.913  0.00  0.00    +0.000 A 
ATOM     31  C   UNL     1       3.850   3.880  17.845  0.00  0.00    +0.000 C 
ATOM     32  C   UNL     1       5.182   3.650  17.115  0.00  0.00    +0.000 C 
ATOM     33  C   UNL     1       5.321   4.545  15.875  0.00  0.00    +0.000 C 
ATOM     34  C   UNL     1       5.243   6.040  16.225  0.00  0.00    +0.000 C 
BRANCH  30  35
ATOM     35  C   UNL     1       1.762   5.195  19.823  0.00  0.00    +0.000 C 
ATOM     36  N   UNL     1       1.095   4.650  20.598  0.00  0.00    +0.000 NA
ENDBRANCH  30  35
ENDBRANCH  24  26
ENDBRANCH   5  22
TORSDOF 5
ENDMDL
MODEL 5
REMARK VINA RESULT:      -7.9      3.006      4.000
REMARK  Name = 
REMARK  7 active torsions:
REMARK  status: ('A' for Active; 'I' for Inactive)
REMARK    1  A    between atoms: C_1  and  C_2
REMARK    2  A    between atoms: C_5  and  N_6
REMARK    3  A    between atoms: C_9  and  C_10
REMARK    4  A    between atoms: C_13  and  C_14
REMARK    5  A    between atoms: C_17  and  C_18
REMARK    6  A    between atoms: N_20  and  C_21
REMARK    7  A    between atoms: C_25  and  C_26
REMARK                            x       y       z     vdW  Elec       q    Type
REMARK                         _______ _______ _______ _____ _____    ______ ____
ROOT
ATOM      1  N   UNL     1      -3.125  12.051  23.670  0.00  0.00    +0.000 N 
ATOM      2  C   UNL     1      -1.961  11.800  23.017  0.00  0.00    +0.000 A 
ATOM      3  N   UNL     1      -1.332  12.614  22.210  0.00  0.00    +0.000 NA
ATOM      4  C   UNL     1      -0.212  12.031  21.639  0.00  0.00    +0.000 A 
ATOM      5  C   UNL     1       0.000  10.708  22.008  0.00  0.00    +0.000 A 
ATOM      6  S   UNL     1      -1.180  10.267  23.187  0.00  0.00    +0.000 S 
ATOM      7  H   UNL     1      -3.488  11.323  24.270  0.00  0.00    +0.000 HD
ENDROOT
BRANCH   1  12
ATOM      8  C   UNL     1      -7.084  16.089  22.612  0.00  0.00    +0.000 C 
ATOM      9  C   UNL     1      -6.036  15.053  22.881  0.00  0.00    +0.000 A 
ATOM     10  C   UNL     1      -5.158  15.158  23.962  0.00  0.00    +0.000 A 
ATOM     11  C   UNL     1      -4.185  14.173  24.188  0.00  0.00    +0.000 A 
ATOM     12  C   UNL     1      -4.068  13.054  23.349  0.00  0.00    +0.000 A 
ATOM     13  C   UNL     1      -4.947  12.974  22.261  0.00  0.00    +0.000 A 
ATOM     14  C   UNL     1      -5.919  13.953  22.030  0.00  0.00    +0.000 A 
ENDBRANCH   1  12
BRANCH   4  15
ATOM     15  C   UNL     1       0.602  12.833  20.729  0.00  0.00    +0.000 A 
ATOM     16  C   UNL     1       1.343  13.930  21.177  0.00  0.00    +0.000 A 
ATOM     17  C   UNL     1       2.161  14.650  20.305  0.00  0.00    +0.000 A 
ATOM     18  C   UNL     1       2.208  14.325  18.950  0.00  0.00    +0.000 A 
ATOM     19  C   UNL     1       3.093  15.096  18.019  0.00  0.00    +0.000 C 
ATOM     20  C   UNL     1       1.414  13.275  18.474  0.00  0.00    +0.000 A 
ATOM     21  C   UNL     1       0.620  12.534  19.357  0.00  0.00    +0.000 A 
ENDBRANCH   4  15
BRANCH   5  22
ATOM     22  C   UNL     1       0.988   9.750  21.521  0.00  0.00    +0.000 C 
ATOM     23  O   UNL     1       2.155   9.739  21.910  0.00  0.00    +0.000 OA
ATOM     24  N   UNL     1       0.541   8.863  20.545  0.00  0.00    +0.000 N 
ATOM     25  H   UNL     1      -0.190   9.215  19.939  0.00  0.00    +0.000 HD
BRANCH  24  26
ATOM     26  C   UNL     1       1.432   7.950  20.009  0.00  0.00    +0.000 A 
ATOM     27  S   UNL     1       1.672   6.558  20.958  0.00  0.00    +0.000 S 
ATOM     28  C   UNL     1       2.671   5.857  19.767  0.00  0.00    +0.000 A 
ATOM     29  C   UNL     1       2.934   6.725  18.721  0.00  0.00    +0.000 A 
ATOM     30  C   UNL     1       2.189   7.949  18.853  0.00  0.00    +0.000 A 
ATOM     31  C   UNL     1       3.920   6.373  17.640  0.00  0.00    +0.000 C 
ATOM     32  C   UNL     1       4.184   4.861  17.565  0.00  0.00    +0.000 C 
ATOM     33  C   UNL     1       4.401   4.246  18.955  0.00  0.00    +0.000 C 
ATOM     34  C   UNL     1       3.190   4.454  19.879  0.00  0.00    +0.000 C 
BRANCH  30  35
ATOM     35  C   UNL     1       2.299   9.069  17.961  0.00  0.00    +0.000 C 
ATOM     36  N   UNL     1       2.434   9.999  17.283  0.00  0.00    +0.000 NA
ENDBRANCH  30  35
ENDBRANCH  24  26
ENDBRANCH   5  22
TORSDOF 5
ENDMDL
MODEL 6
REMARK VINA RESULT:      -7.9      3.032      4.136
REMARK  Name = 
REMARK  7 active torsions:
REMARK  status: ('A' for Active; 'I' for Inactive)
REMARK    1  A    between atoms: C_1  and  C_2
REMARK    2  A    between atoms: C_5  and  N_6
REMARK    3  A    between atoms: C_9  and  C_10
REMARK    4  A    between atoms: C_13  and  C_14
REMARK    5  A    between atoms: C_17  and  C_18
REMARK    6  A    between atoms: N_20  and  C_21
REMARK    7  A    between atoms: C_25  and  C_26
REMARK                            x       y       z     vdW  Elec       q    Type
REMARK                         _______ _______ _______ _____ _____    ______ ____
ROOT
ATOM      1  N   UNL     1      -3.162  12.109  23.689  0.00  0.00    +0.000 N 
ATOM      2  C   UNL     1      -1.996  11.882  23.029  0.00  0.00    +0.000 A 
ATOM      3  N   UNL     1      -1.373  12.722  22.244  0.00  0.00    +0.000 NA
ATOM      4  C   UNL     1      -0.250  12.161  21.657  0.00  0.00    +0.000 A 
ATOM      5  C   UNL     1      -0.029  10.830  21.990  0.00  0.00    +0.000 A 
ATOM      6  S   UNL     1      -1.206  10.350  23.158  0.00  0.00    +0.000 S 
ATOM      7  H   UNL     1      -3.519  11.362  24.270  0.00  0.00    +0.000 HD
ENDROOT
BRANCH   1  12
ATOM      8  C   UNL     1      -6.912  16.224  22.240  0.00  0.00    +0.000 C 
ATOM      9  C   UNL     1      -5.953  15.138  22.626  0.00  0.00    +0.000 A 
ATOM     10  C   UNL     1      -5.885  13.933  21.922  0.00  0.00    +0.000 A 
ATOM     11  C   UNL     1      -4.978  12.934  22.307  0.00  0.00    +0.000 A 
ATOM     12  C   UNL     1      -4.111  13.114  23.396  0.00  0.00    +0.000 A 
ATOM     13  C   UNL     1      -4.205  14.322  24.098  0.00  0.00    +0.000 A 
ATOM     14  C   UNL     1      -5.107  15.321  23.719  0.00  0.00    +0.000 A 
ENDBRANCH   1  12
BRANCH   4  15
ATOM     15  C   UNL     1       0.559  12.992  20.769  0.00  0.00    +0.000 A 
ATOM     16  C   UNL     1       0.608  12.766  19.390  0.00  0.00    +0.000 A 
ATOM     17  C   UNL     1       1.339  13.604  18.549  0.00  0.00    +0.000 A 
ATOM     18  C   UNL     1       2.090  14.655  19.077  0.00  0.00    +0.000 A 
ATOM     19  C   UNL     1       2.868  15.557  18.169  0.00  0.00    +0.000 C 
ATOM     20  C   UNL     1       2.109  14.847  20.463  0.00  0.00    +0.000 A 
ATOM     21  C   UNL     1       1.347  14.024  21.301  0.00  0.00    +0.000 A 
ENDBRANCH   4  15
BRANCH   5  22
ATOM     22  C   UNL     1       0.964   9.892  21.477  0.00  0.00    +0.000 C 
ATOM     23  O   UNL     1       2.143   9.912  21.824  0.00  0.00    +0.000 OA
ATOM     24  N   UNL     1       0.504   8.984  20.525  0.00  0.00    +0.000 N 
ATOM     25  H   UNL     1      -0.255   9.313  19.941  0.00  0.00    +0.000 HD
BRANCH  24  26
ATOM     26  C   UNL     1       1.398   8.088  19.965  0.00  0.00    +0.000 A 
ATOM     27  S   UNL     1       1.635   6.669  20.873  0.00  0.00    +0.000 S 
ATOM     28  C   UNL     1       2.639   6.004  19.666  0.00  0.00    +0.000 A 
ATOM     29  C   UNL     1       2.907   6.903  18.648  0.00  0.00    +0.000 A 
ATOM     30  C   UNL     1       2.161   8.123  18.813  0.00  0.00    +0.000 A 
ATOM     31  C   UNL     1       3.897   6.585  17.561  0.00  0.00    +0.000 C 
ATOM     32  C   UNL     1       4.163   5.075  17.442  0.00  0.00    +0.000 C 
ATOM     33  C   UNL     1       4.374   4.418  18.814  0.00  0.00    +0.000 C 
ATOM     34  C   UNL     1       3.158   4.598  19.737  0.00  0.00    +0.000 C 
BRANCH  30  35
ATOM     35  C   UNL     1       2.275   9.269  17.956  0.00  0.00    +0.000 C 
ATOM     36  N   UNL     1       2.367  10.233  17.320  0.00  0.00    +0.000 NA
ENDBRANCH  30  35
ENDBRANCH  24  26
ENDBRANCH   5  22
TORSDOF 5
ENDMDL
MODEL 7
REMARK VINA RESULT:      -7.9      2.440      9.429
REMARK  Name = 
REMARK  7 active torsions:
REMARK  status: ('A' for Active; 'I' for Inactive)
REMARK    1  A    between atoms: C_1  and  C_2
REMARK    2  A    between atoms: C_5  and  N_6
REMARK    3  A    between atoms: C_9  and  C_10
REMARK    4  A    between atoms: C_13  and  C_14
REMARK    5  A    between atoms: C_17  and  C_18
REMARK    6  A    between atoms: N_20  and  C_21
REMARK    7  A    between atoms: C_25  and  C_26
REMARK                            x       y       z     vdW  Elec       q    Type
REMARK                         _______ _______ _______ _____ _____    ______ ____
ROOT
ATOM      1  N   UNL     1       1.814   7.776  20.905  0.00  0.00    +0.000 N 
ATOM      2  C   UNL     1       0.947   8.802  20.705  0.00  0.00    +0.000 A 
ATOM      3  N   UNL     1       0.133   8.944  19.690  0.00  0.00    +0.000 NA
ATOM      4  C   UNL     1      -0.564  10.140  19.737  0.00  0.00    +0.000 A 
ATOM      5  C   UNL     1      -0.244  10.952  20.818  0.00  0.00    +0.000 A 
ATOM      6  S   UNL     1       0.867  10.108  21.834  0.00  0.00    +0.000 S 
ATOM      7  H   UNL     1       2.376   7.801  21.746  0.00  0.00    +0.000 HD
ENDROOT
BRANCH   1  12
ATOM      8  C   UNL     1       3.886   3.971  17.120  0.00  0.00    +0.000 C 
ATOM      9  C   UNL     1       3.324   4.956  18.100  0.00  0.00    +0.000 A 
ATOM     10  C   UNL     1       2.685   4.544  19.273  0.00  0.00    +0.000 A 
ATOM     11  C   UNL     1       2.168   5.490  20.171  0.00  0.00    +0.000 A 
ATOM     12  C   UNL     1       2.281   6.868  19.928  0.00  0.00    +0.000 A 
ATOM     13  C   UNL     1       2.911   7.260  18.740  0.00  0.00    +0.000 A 
ATOM     14  C   UNL     1       3.429   6.323  17.841  0.00  0.00    +0.000 A 
ENDBRANCH   1  12
BRANCH   4  15
ATOM     15  C   UNL     1      -1.527  10.425  18.676  0.00  0.00    +0.000 A 
ATOM     16  C   UNL     1      -2.615  11.279  18.879  0.00  0.00    +0.000 A 
ATOM     17  C   UNL     1      -3.493  11.586  17.839  0.00  0.00    +0.000 A 
ATOM     18  C   UNL     1      -3.337  10.994  16.585  0.00  0.00    +0.000 A 
ATOM     19  C   UNL     1      -4.278  11.331  15.469  0.00  0.00    +0.000 C 
ATOM     20  C   UNL     1      -2.296  10.079  16.389  0.00  0.00    +0.000 A 
ATOM     21  C   UNL     1      -1.398   9.800  17.426  0.00  0.00    +0.000 A 
ENDBRANCH   4  15
BRANCH   5  22
ATOM     22  C   UNL     1      -0.676  12.313  21.123  0.00  0.00    +0.000 C 
ATOM     23  O   UNL     1      -0.167  13.306  20.607  0.00  0.00    +0.000 OA
ATOM     24  N   UNL     1      -1.683  12.429  22.078  0.00  0.00    +0.000 N 
ATOM     25  H   UNL     1      -1.697  11.705  22.786  0.00  0.00    +0.000 HD
BRANCH  24  26
ATOM     26  C   UNL     1      -2.118  13.690  22.447  0.00  0.00    +0.000 A 
ATOM     27  S   UNL     1      -1.223  14.404  23.705  0.00  0.00    +0.000 S 
ATOM     28  C   UNL     1      -2.106  15.856  23.578  0.00  0.00    +0.000 A 
ATOM     29  C   UNL     1      -3.161  15.756  22.687  0.00  0.00    +0.000 A 
ATOM     30  C   UNL     1      -3.156  14.488  22.007  0.00  0.00    +0.000 A 
ATOM     31  C   UNL     1      -4.168  16.864  22.536  0.00  0.00    +0.000 C 
ATOM     32  C   UNL     1      -3.636  18.207  23.062  0.00  0.00    +0.000 C 
ATOM     33  C   UNL     1      -2.940  18.057  24.423  0.00  0.00    +0.000 C 
ATOM     34  C   UNL     1      -1.751  17.084  24.363  0.00  0.00    +0.000 C 
BRANCH  30  35
ATOM     35  C   UNL     1      -4.160  14.061  21.073  0.00  0.00    +0.000 C 
ATOM     36  N   UNL     1      -4.981  13.782  20.304  0.00  0.00    +0.000 NA
ENDBRANCH  30  35
ENDBRANCH  24  26
ENDBRANCH   5  22
TORSDOF 5
ENDMDL
MODEL 8
REMARK VINA RESULT:      -7.7      2.209      9.368
REMARK  Name = 
REMARK  7 active torsions:
REMARK  status: ('A' for Active; 'I' for Inactive)
REMARK    1  A    between atoms: C_1  and  C_2
REMARK    2  A    between atoms: C_5  and  N_6
REMARK    3  A    between atoms: C_9  and  C_10
REMARK    4  A    between atoms: C_13  and  C_14
REMARK    5  A    between atoms: C_17  and  C_18
REMARK    6  A    between atoms: N_20  and  C_21
REMARK    7  A    between atoms: C_25  and  C_26
REMARK                            x       y       z     vdW  Elec       q    Type
REMARK                         _______ _______ _______ _____ _____    ______ ____
ROOT
ATOM      1  N   UNL     1       1.913   7.414  21.013  0.00  0.00    +0.000 N 
ATOM      2  C   UNL     1       1.045   8.452  20.889  0.00  0.00    +0.000 A 
ATOM      3  N   UNL     1       0.298   8.719  19.849  0.00  0.00    +0.000 NA
ATOM      4  C   UNL     1      -0.418   9.895  20.002  0.00  0.00    +0.000 A 
ATOM      5  C   UNL     1      -0.183  10.561  21.198  0.00  0.00    +0.000 A 
ATOM      6  S   UNL     1       0.871   9.599  22.169  0.00  0.00    +0.000 S 
ATOM      7  H   UNL     1       2.417   7.332  21.885  0.00  0.00    +0.000 HD
ENDROOT
BRANCH   1  12
ATOM      8  C   UNL     1       4.315   4.177  16.908  0.00  0.00    +0.000 C 
ATOM      9  C   UNL     1       3.667   5.011  17.972  0.00  0.00    +0.000 A 
ATOM     10  C   UNL     1       3.121   4.440  19.124  0.00  0.00    +0.000 A 
ATOM     11  C   UNL     1       2.521   5.247  20.102  0.00  0.00    +0.000 A 
ATOM     12  C   UNL     1       2.456   6.642  19.961  0.00  0.00    +0.000 A 
ATOM     13  C   UNL     1       2.995   7.194  18.791  0.00  0.00    +0.000 A 
ATOM     14  C   UNL     1       3.595   6.395  17.813  0.00  0.00    +0.000 A 
ENDBRANCH   1  12
BRANCH   4  15
ATOM     15  C   UNL     1      -1.314  10.308  18.925  0.00  0.00    +0.000 A 
ATOM     16  C   UNL     1      -1.116  11.498  18.219  0.00  0.00    +0.000 A 
ATOM     17  C   UNL     1      -1.946  11.850  17.154  0.00  0.00    +0.000 A 
ATOM     18  C   UNL     1      -3.034  11.047  16.812  0.00  0.00    +0.000 A 
ATOM     19  C   UNL     1      -3.920  11.426  15.664  0.00  0.00    +0.000 C 
ATOM     20  C   UNL     1      -3.288   9.891  17.558  0.00  0.00    +0.000 A 
ATOM     21  C   UNL     1      -2.433   9.524  18.604  0.00  0.00    +0.000 A 
ENDBRANCH   4  15
BRANCH   5  22
ATOM     22  C   UNL     1      -0.653  11.868  21.647  0.00  0.00    +0.000 C 
ATOM     23  O   UNL     1       0.091  12.712  22.143  0.00  0.00    +0.000 OA
ATOM     24  N   UNL     1      -2.022  12.095  21.519  0.00  0.00    +0.000 N 
ATOM     25  H   UNL     1      -2.608  11.274  21.596  0.00  0.00    +0.000 HD
BRANCH  24  26
ATOM     26  C   UNL     1      -2.547  13.298  21.958  0.00  0.00    +0.000 A 
ATOM     27  S   UNL     1      -2.000  14.661  21.100  0.00  0.00    +0.000 S 
ATOM     28  C   UNL     1      -3.042  15.692  21.971  0.00  0.00    +0.000 A 
ATOM     29  C   UNL     1      -3.697  15.033  22.998  0.00  0.00    +0.000 A 
ATOM     30  C   UNL     1      -3.421  13.621  22.978  0.00  0.00    +0.000 A 
ATOM     31  C   UNL     1      -4.543  15.780  23.994  0.00  0.00    +0.000 C 
ATOM     32  C   UNL     1      -4.971  17.161  23.472  0.00  0.00    +0.000 C 
ATOM     33  C   UNL     1      -3.803  17.916  22.821  0.00  0.00    +0.000 C 
ATOM     34  C   UNL     1      -3.201  17.145  21.635  0.00  0.00    +0.000 C 
BRANCH  30  35
ATOM     35  C   UNL     1      -3.902  12.684  23.955  0.00  0.00    +0.000 C 
ATOM     36  N   UNL     1      -4.318  11.980  24.775  0.00  0.00    +0.000 NA
ENDBRANCH  30  35
ENDBRANCH  24  26
ENDBRANCH   5  22
TORSDOF 5
ENDMDL
MODEL 9
REMARK VINA RESULT:      -7.7      3.272      8.991
REMARK  Name = 
REMARK  7 active torsions:
REMARK  status: ('A' for Active; 'I' for Inactive)
REMARK    1  A    between atoms: C_1  and  C_2
REMARK    2  A    between atoms: C_5  and  N_6
REMARK    3  A    between atoms: C_9  and  C_10
REMARK    4  A    between atoms: C_13  and  C_14
REMARK    5  A    between atoms: C_17  and  C_18
REMARK    6  A    between atoms: N_20  and  C_21
REMARK    7  A    between atoms: C_25  and  C_26
REMARK                            x       y       z     vdW  Elec       q    Type
REMARK                         _______ _______ _______ _____ _____    ______ ____
ROOT
ATOM      1  N   UNL     1       1.831   6.849  21.200  0.00  0.00    +0.000 N 
ATOM      2  C   UNL     1       1.146   8.013  21.055  0.00  0.00    +0.000 A 
ATOM      3  N   UNL     1       0.348   8.326  20.067  0.00  0.00    +0.000 NA
ATOM      4  C   UNL     1      -0.136   9.620  20.170  0.00  0.00    +0.000 A 
ATOM      5  C   UNL     1       0.339  10.327  21.268  0.00  0.00    +0.000 A 
ATOM      6  S   UNL     1       1.311   9.272  22.227  0.00  0.00    +0.000 S 
ATOM      7  H   UNL     1       2.406   6.748  22.025  0.00  0.00    +0.000 HD
ENDROOT
BRANCH   1  12
ATOM      8  C   UNL     1       2.904   3.216  16.870  0.00  0.00    +0.000 C 
ATOM      9  C   UNL     1       2.647   4.158  18.007  0.00  0.00    +0.000 A 
ATOM     10  C   UNL     1       3.280   5.401  18.089  0.00  0.00    +0.000 A 
ATOM     11  C   UNL     1       3.019   6.262  19.166  0.00  0.00    +0.000 A 
ATOM     12  C   UNL     1       2.117   5.910  20.182  0.00  0.00    +0.000 A 
ATOM     13  C   UNL     1       1.505   4.654  20.090  0.00  0.00    +0.000 A 
ATOM     14  C   UNL     1       1.760   3.791  19.019  0.00  0.00    +0.000 A 
ENDBRANCH   1  12
BRANCH   4  15
ATOM     15  C   UNL     1      -1.058  10.101  19.145  0.00  0.00    +0.000 A 
ATOM     16  C   UNL     1      -0.979   9.664  17.819  0.00  0.00    +0.000 A 
ATOM     17  C   UNL     1      -1.905  10.089  16.865  0.00  0.00    +0.000 A 
ATOM     18  C   UNL     1      -2.895  11.011  17.203  0.00  0.00    +0.000 A 
ATOM     19  C   UNL     1      -3.891  11.459  16.177  0.00  0.00    +0.000 C 
ATOM     20  C   UNL     1      -2.940  11.513  18.508  0.00  0.00    +0.000 A 
ATOM     21  C   UNL     1      -2.031  11.060  19.471  0.00  0.00    +0.000 A 
ENDBRANCH   4  15
BRANCH   5  22
ATOM     22  C   UNL     1       0.150  11.729  21.628  0.00  0.00    +0.000 C 
ATOM     23  O   UNL     1      -0.412  12.083  22.663  0.00  0.00    +0.000 OA
ATOM     24  N   UNL     1       0.612  12.660  20.700  0.00  0.00    +0.000 N 
ATOM     25  H   UNL     1       0.585  12.360  19.733  0.00  0.00    +0.000 HD
BRANCH  24  26
ATOM     26  C   UNL     1       0.434  14.008  20.955  0.00  0.00    +0.000 A 
ATOM     27  S   UNL     1      -1.034  14.647  20.378  0.00  0.00    +0.000 S 
ATOM     28  C   UNL     1      -0.710  16.165  21.084  0.00  0.00    +0.000 A 
ATOM     29  C   UNL     1       0.560  16.231  21.633  0.00  0.00    +0.000 A 
ATOM     30  C   UNL     1       1.226  14.957  21.574  0.00  0.00    +0.000 A 
ATOM     31  C   UNL     1       1.116  17.523  22.167  0.00  0.00    +0.000 C 
ATOM     32  C   UNL     1       0.013  18.547  22.475  0.00  0.00    +0.000 C 
ATOM     33  C   UNL     1      -1.026  18.631  21.346  0.00  0.00    +0.000 C 
ATOM     34  C   UNL     1      -1.712  17.280  21.087  0.00  0.00    +0.000 C 
BRANCH  30  35
ATOM     35  C   UNL     1       2.576  14.723  22.003  0.00  0.00    +0.000 C 
ATOM     36  N   UNL     1       3.681  14.598  22.329  0.00  0.00    +0.000 NA
ENDBRANCH  30  35
ENDBRANCH  24  26
ENDBRANCH   5  22
TORSDOF 5
ENDMDL
