MODEL 1
REMARK VINA RESULT:      -7.9      0.000      0.000
REMARK  Name = 
REMARK  6 active torsions:
REMARK  status: ('A' for Active; 'I' for Inactive)
REMARK    1  A    between atoms: C_1  and  C_2
REMARK    2  A    between atoms: C_2  and  C_3
REMARK    3  A    between atoms: C_11  and  N_12
REMARK    4  A    between atoms: C_13  and  C_14
REMARK    5  A    between atoms: C_16  and  C_17
REMARK    6  A    between atoms: C_20  and  N_21
REMARK                            x       y       z     vdW  Elec       q    Type
REMARK                         _______ _______ _______ _____ _____    ______ ____
ROOT
ATOM      1  C   UNL     1       1.601   2.502  20.456  0.00  0.00    +0.000 C 
ATOM      2  C   UNL     1       2.498   3.246  19.455  0.00  0.00    +0.000 C 
ATOM      3  C   UNL     1       2.603   2.383  18.176  0.00  0.00    +0.000 C 
ATOM      4  C   UNL     1       1.886   4.616  19.110  0.00  0.00    +0.000 C 
ATOM      5  C   UNL     1       2.814   5.453  18.246  0.00  0.00    +0.000 C 
ATOM      6  O   UNL     1       2.380   6.319  17.489  0.00  0.00    +0.000 OA
ATOM      7  C   UNL     1       4.280   5.277  18.410  0.00  0.00    +0.000 C 
ATOM      8  C   UNL     1       4.740   4.430  19.346  0.00  0.00    +0.000 C 
ATOM      9  C   UNL     1       3.884   3.463  20.104  0.00  0.00    +0.000 C 
ATOM     10  O   UNL     1       6.092   4.360  19.652  0.00  0.00    +0.000 OA
ATOM     11  C   UNL     1       6.936   5.397  19.253  0.00  0.00    +0.000 C 
ATOM     12  C   UNL     1       6.572   6.235  18.257  0.00  0.00    +0.000 C 
ATOM     13  C   UNL     1       5.234   6.064  17.552  0.00  0.00    +0.000 C 
ENDROOT
BRANCH  13  14
ATOM     14  C   UNL     1       5.425   5.375  16.190  0.00  0.00    +0.000 A 
ATOM     15  C   UNL     1       5.755   4.005  16.109  0.00  0.00    +0.000 A 
ATOM     16  C   UNL     1       5.937   3.377  14.876  0.00  0.00    +0.000 A 
ATOM     17  C   UNL     1       5.788   4.118  13.701  0.00  0.00    +0.000 A 
ATOM     18  C   UNL     1       5.455   5.478  13.756  0.00  0.00    +0.000 A 
ATOM     19  C   UNL     1       5.272   6.099  14.998  0.00  0.00    +0.000 A 
BRANCH  17  20
ATOM     20  N   UNL     1       5.982   3.463  12.402  0.00  0.00    +0.000 N 
ATOM     21  O   UNL     1       7.120   3.481  11.911  0.00  0.00    +0.000 OA
ATOM     22  O   UNL     1       4.996   2.928  11.871  0.00  0.00    +0.000 OA
ENDBRANCH  17  20
ENDBRANCH  13  14
BRANCH  11  23
ATOM     23  N   UNL     1       8.113   5.430  19.956  0.00  0.00    +0.000 N 
ATOM     24  H   UNL     1       8.926   5.294  19.360  0.00  0.00    +0.000 HD
ATOM     25  H   UNL     1       8.219   6.196  20.617  0.00  0.00    +0.000 HD
ENDBRANCH  11  23
BRANCH  12  26
ATOM     26  C   UNL     1       7.404   7.317  17.855  0.00  0.00    +0.000 C 
ATOM     27  N   UNL     1       8.078   8.203  17.528  0.00  0.00    +0.000 NA
ENDBRANCH  12  26
TORSDOF 4
ENDMDL
MODEL 2
REMARK VINA RESULT:      -7.9      0.060      1.151
REMARK  Name = 
REMARK  6 active torsions:
REMARK  status: ('A' for Active; 'I' for Inactive)
REMARK    1  A    between atoms: C_1  and  C_2
REMARK    2  A    between atoms: C_2  and  C_3
REMARK    3  A    between atoms: C_11  and  N_12
REMARK    4  A    between atoms: C_13  and  C_14
REMARK    5  A    between atoms: C_16  and  C_17
REMARK    6  A    between atoms: C_20  and  N_21
REMARK                            x       y       z     vdW  Elec       q    Type
REMARK                         _______ _______ _______ _____ _____    ______ ____
ROOT
ATOM      1  C   UNL     1       1.629   2.525  20.488  0.00  0.00    +0.000 C 
ATOM      2  C   UNL     1       2.521   3.265  19.479  0.00  0.00    +0.000 C 
ATOM      3  C   UNL     1       2.621   2.397  18.204  0.00  0.00    +0.000 C 
ATOM      4  C   UNL     1       1.905   4.633  19.131  0.00  0.00    +0.000 C 
ATOM      5  C   UNL     1       2.829   5.468  18.259  0.00  0.00    +0.000 C 
ATOM      6  O   UNL     1       2.391   6.330  17.499  0.00  0.00    +0.000 OA
ATOM      7  C   UNL     1       4.296   5.294  18.417  0.00  0.00    +0.000 C 
ATOM      8  C   UNL     1       4.761   4.452  19.355  0.00  0.00    +0.000 C 
ATOM      9  C   UNL     1       3.909   3.487  20.120  0.00  0.00    +0.000 C 
ATOM     10  O   UNL     1       6.114   4.384  19.655  0.00  0.00    +0.000 OA
ATOM     11  C   UNL     1       6.955   5.421  19.248  0.00  0.00    +0.000 C 
ATOM     12  C   UNL     1       6.585   6.253  18.249  0.00  0.00    +0.000 C 
ATOM     13  C   UNL     1       5.245   6.078  17.552  0.00  0.00    +0.000 C 
ENDROOT
BRANCH  13  14
ATOM     14  C   UNL     1       5.431   5.383  16.192  0.00  0.00    +0.000 A 
ATOM     15  C   UNL     1       5.362   6.115  14.987  0.00  0.00    +0.000 A 
ATOM     16  C   UNL     1       5.521   5.487  13.750  0.00  0.00    +0.000 A 
ATOM     17  C   UNL     1       5.753   4.110  13.704  0.00  0.00    +0.000 A 
ATOM     18  C   UNL     1       5.831   3.364  14.888  0.00  0.00    +0.000 A 
ATOM     19  C   UNL     1       5.673   4.002  16.124  0.00  0.00    +0.000 A 
BRANCH  17  20
ATOM     20  N   UNL     1       5.917   3.446  12.406  0.00  0.00    +0.000 N 
ATOM     21  O   UNL     1       4.900   3.013  11.848  0.00  0.00    +0.000 OA
ATOM     22  O   UNL     1       7.065   3.357  11.943  0.00  0.00    +0.000 OA
ENDBRANCH  17  20
ENDBRANCH  13  14
BRANCH  11  23
ATOM     23  N   UNL     1       8.135   5.457  19.945  0.00  0.00    +0.000 N 
ATOM     24  H   UNL     1       8.573   6.375  19.921  0.00  0.00    +0.000 HD
ATOM     25  H   UNL     1       8.120   5.041  20.874  0.00  0.00    +0.000 HD
ENDBRANCH  11  23
BRANCH  12  26
ATOM     26  C   UNL     1       7.415   7.335  17.839  0.00  0.00    +0.000 C 
ATOM     27  N   UNL     1       8.087   8.217  17.499  0.00  0.00    +0.000 NA
ENDBRANCH  12  26
TORSDOF 4
ENDMDL
MODEL 3
REMARK VINA RESULT:      -6.7      2.817      3.961
REMARK  Name = 
REMARK  6 active torsions:
REMARK  status: ('A' for Active; 'I' for Inactive)
REMARK    1  A    between atoms: C_1  and  C_2
REMARK    2  A    between atoms: C_2  and  C_3
REMARK    3  A    between atoms: C_11  and  N_12
REMARK    4  A    between atoms: C_13  and  C_14
REMARK    5  A    between atoms: C_16  and  C_17
REMARK    6  A    between atoms: C_20  and  N_21
REMARK                            x       y       z     vdW  Elec       q    Type
REMARK                         _______ _______ _______ _____ _____    ______ ____
ROOT
ATOM      1  C   UNL     1       1.331   1.738  22.011  0.00  0.00    +0.000 C 
ATOM      2  C   UNL     1       1.803   2.728  20.934  0.00  0.00    +0.000 C 
ATOM      3  C   UNL     1       3.243   2.341  20.529  0.00  0.00    +0.000 C 
ATOM      4  C   UNL     1       0.878   2.655  19.706  0.00  0.00    +0.000 C 
ATOM      5  C   UNL     1       1.209   3.726  18.679  0.00  0.00    +0.000 C 
ATOM      6  O   UNL     1       0.955   3.574  17.486  0.00  0.00    +0.000 OA
ATOM      7  C   UNL     1       1.759   5.019  19.162  0.00  0.00    +0.000 C 
ATOM      8  C   UNL     1       1.895   5.224  20.483  0.00  0.00    +0.000 C 
ATOM      9  C   UNL     1       1.746   4.156  21.522  0.00  0.00    +0.000 C 
ATOM     10  O   UNL     1       2.241   6.470  20.987  0.00  0.00    +0.000 OA
ATOM     11  C   UNL     1       2.107   7.595  20.173  0.00  0.00    +0.000 C 
ATOM     12  C   UNL     1       2.051   7.468  18.828  0.00  0.00    +0.000 C 
ATOM     13  C   UNL     1       2.129   6.095  18.177  0.00  0.00    +0.000 C 
ENDROOT
BRANCH  13  14
ATOM     14  C   UNL     1       3.538   5.844  17.613  0.00  0.00    +0.000 A 
ATOM     15  C   UNL     1       4.386   6.920  17.270  0.00  0.00    +0.000 A 
ATOM     16  C   UNL     1       5.662   6.697  16.750  0.00  0.00    +0.000 A 
ATOM     17  C   UNL     1       6.108   5.386  16.567  0.00  0.00    +0.000 A 
ATOM     18  C   UNL     1       5.287   4.303  16.905  0.00  0.00    +0.000 A 
ATOM     19  C   UNL     1       4.009   4.535  17.429  0.00  0.00    +0.000 A 
BRANCH  17  20
ATOM     20  N   UNL     1       7.448   5.147  16.017  0.00  0.00    +0.000 N 
ATOM     21  O   UNL     1       8.197   4.379  16.638  0.00  0.00    +0.000 OA
ATOM     22  O   UNL     1       7.754   5.728  14.964  0.00  0.00    +0.000 OA
ENDBRANCH  17  20
ENDBRANCH  13  14
BRANCH  11  23
ATOM     23  N   UNL     1       2.064   8.767  20.883  0.00  0.00    +0.000 N 
ATOM     24  H   UNL     1       2.905   8.919  21.435  0.00  0.00    +0.000 HD
ATOM     25  H   UNL     1       1.764   9.592  20.368  0.00  0.00    +0.000 HD
ENDBRANCH  11  23
BRANCH  12  26
ATOM     26  C   UNL     1       1.885   8.600  17.981  0.00  0.00    +0.000 C 
ATOM     27  N   UNL     1       1.747   9.518  17.287  0.00  0.00    +0.000 NA
ENDBRANCH  12  26
TORSDOF 4
ENDMDL
MODEL 4
REMARK VINA RESULT:      -6.3      8.730     10.671
REMARK  Name = 
REMARK  6 active torsions:
REMARK  status: ('A' for Active; 'I' for Inactive)
REMARK    1  A    between atoms: C_1  and  C_2
REMARK    2  A    between atoms: C_2  and  C_3
REMARK    3  A    between atoms: C_11  and  N_12
REMARK    4  A    between atoms: C_13  and  C_14
REMARK    5  A    between atoms: C_16  and  C_17
REMARK    6  A    between atoms: C_20  and  N_21
REMARK                            x       y       z     vdW  Elec       q    Type
REMARK                         _______ _______ _______ _____ _____    ______ ____
ROOT
ATOM      1  C   UNL     1      -1.362  16.329  23.181  0.00  0.00    +0.000 C 
ATOM      2  C   UNL     1      -1.160  15.093  22.291  0.00  0.00    +0.000 C 
ATOM      3  C   UNL     1      -2.314  15.050  21.264  0.00  0.00    +0.000 C 
ATOM      4  C   UNL     1       0.189  15.184  21.555  0.00  0.00    +0.000 C 
ATOM      5  C   UNL     1       0.506  13.913  20.785  0.00  0.00    +0.000 C 
ATOM      6  O   UNL     1       1.234  13.925  19.794  0.00  0.00    +0.000 OA
ATOM      7  C   UNL     1      -0.003  12.622  21.316  0.00  0.00    +0.000 C 
ATOM      8  C   UNL     1      -0.675  12.608  22.479  0.00  0.00    +0.000 C 
ATOM      9  C   UNL     1      -1.158  13.835  23.189  0.00  0.00    +0.000 C 
ATOM     10  O   UNL     1      -1.019  11.415  23.099  0.00  0.00    +0.000 OA
ATOM     11  C   UNL     1      -0.377  10.238  22.714  0.00  0.00    +0.000 C 
ATOM     12  C   UNL     1       0.246  10.154  21.517  0.00  0.00    +0.000 C 
ATOM     13  C   UNL     1       0.261  11.343  20.568  0.00  0.00    +0.000 C 
ENDROOT
BRANCH  13  14
ATOM     14  C   UNL     1      -0.776  11.153  19.448  0.00  0.00    +0.000 A 
ATOM     15  C   UNL     1      -0.535  10.265  18.377  0.00  0.00    +0.000 A 
ATOM     16  C   UNL     1      -1.468  10.095  17.354  0.00  0.00    +0.000 A 
ATOM     17  C   UNL     1      -2.664  10.817  17.390  0.00  0.00    +0.000 A 
ATOM     18  C   UNL     1      -2.928  11.700  18.445  0.00  0.00    +0.000 A 
ATOM     19  C   UNL     1      -1.987  11.862  19.469  0.00  0.00    +0.000 A 
BRANCH  17  20
ATOM     20  N   UNL     1      -3.647  10.644  16.315  0.00  0.00    +0.000 N 
ATOM     21  O   UNL     1      -3.303   9.992  15.319  0.00  0.00    +0.000 OA
ATOM     22  O   UNL     1      -4.766  11.160  16.464  0.00  0.00    +0.000 OA
ENDBRANCH  17  20
ENDBRANCH  13  14
BRANCH  11  23
ATOM     23  N   UNL     1      -0.479   9.242  23.651  0.00  0.00    +0.000 N 
ATOM     24  H   UNL     1      -1.272   9.373  24.274  0.00  0.00    +0.000 HD
ATOM     25  H   UNL     1      -0.391   8.289  23.304  0.00  0.00    +0.000 HD
ENDBRANCH  11  23
BRANCH  12  26
ATOM     26  C   UNL     1       0.932   8.973  21.118  0.00  0.00    +0.000 C 
ATOM     27  N   UNL     1       1.487   8.010  20.788  0.00  0.00    +0.000 NA
ENDBRANCH  12  26
TORSDOF 4
ENDMDL
MODEL 5
REMARK VINA RESULT:      -6.3      8.604     10.594
REMARK  Name = 
REMARK  6 active torsions:
REMARK  status: ('A' for Active; 'I' for Inactive)
REMARK    1  A    between atoms: C_1  and  C_2
REMARK    2  A    between atoms: C_2  and  C_3
REMARK    3  A    between atoms: C_11  and  N_12
REMARK    4  A    between atoms: C_13  and  C_14
REMARK    5  A    between atoms: C_16  and  C_17
REMARK    6  A    between atoms: C_20  and  N_21
REMARK                            x       y       z     vdW  Elec       q    Type
REMARK                         _______ _______ _______ _____ _____    ______ ____
ROOT
ATOM      1  C   UNL     1      -0.872  16.425  22.833  0.00  0.00    +0.000 C 
ATOM      2  C   UNL     1      -0.766  15.139  21.998  0.00  0.00    +0.000 C 
ATOM      3  C   UNL     1      -1.942  15.123  20.995  0.00  0.00    +0.000 C 
ATOM      4  C   UNL     1       0.571  15.113  21.234  0.00  0.00    +0.000 C 
ATOM      5  C   UNL     1       0.791  13.790  20.518  0.00  0.00    +0.000 C 
ATOM      6  O   UNL     1       1.497  13.711  19.515  0.00  0.00    +0.000 OA
ATOM      7  C   UNL     1       0.215  12.559  21.119  0.00  0.00    +0.000 C 
ATOM      8  C   UNL     1      -0.431  12.641  22.294  0.00  0.00    +0.000 C 
ATOM      9  C   UNL     1      -0.822  13.927  22.954  0.00  0.00    +0.000 C 
ATOM     10  O   UNL     1      -0.835  11.501  22.975  0.00  0.00    +0.000 OA
ATOM     11  C   UNL     1      -0.275  10.270  22.634  0.00  0.00    +0.000 C 
ATOM     12  C   UNL     1       0.316  10.093  21.431  0.00  0.00    +0.000 C 
ATOM     13  C   UNL     1       0.384  11.233  20.427  0.00  0.00    +0.000 C 
ENDROOT
BRANCH  13  14
ATOM     14  C   UNL     1      -0.686  11.057  19.336  0.00  0.00    +0.000 A 
ATOM     15  C   UNL     1      -1.912  11.754  19.402  0.00  0.00    +0.000 A 
ATOM     16  C   UNL     1      -2.890  11.591  18.420  0.00  0.00    +0.000 A 
ATOM     17  C   UNL     1      -2.650  10.725  17.350  0.00  0.00    +0.000 A 
ATOM     18  C   UNL     1      -1.439  10.027  17.261  0.00  0.00    +0.000 A 
ATOM     19  C   UNL     1      -0.462  10.198  18.249  0.00  0.00    +0.000 A 
BRANCH  17  20
ATOM     20  N   UNL     1      -3.677  10.548  16.317  0.00  0.00    +0.000 N 
ATOM     21  O   UNL     1      -4.748  11.154  16.460  0.00  0.00    +0.000 OA
ATOM     22  O   UNL     1      -3.413   9.804  15.360  0.00  0.00    +0.000 OA
ENDBRANCH  17  20
ENDBRANCH  13  14
BRANCH  11  23
ATOM     23  N   UNL     1      -0.417   9.326  23.619  0.00  0.00    +0.000 N 
ATOM     24  H   UNL     1      -1.380   9.015  23.723  0.00  0.00    +0.000 HD
ATOM     25  H   UNL     1       0.256   8.563  23.609  0.00  0.00    +0.000 HD
ENDBRANCH  11  23
BRANCH  12  26
ATOM     26  C   UNL     1       0.920   8.853  21.075  0.00  0.00    +0.000 C 
ATOM     27  N   UNL     1       1.406   7.842  20.783  0.00  0.00    +0.000 NA
ENDBRANCH  12  26
TORSDOF 4
ENDMDL
MODEL 6
REMARK VINA RESULT:      -6.1     10.853     13.526
REMARK  Name = 
REMARK  6 active torsions:
REMARK  status: ('A' for Active; 'I' for Inactive)
REMARK    1  A    between atoms: C_1  and  C_2
REMARK    2  A    between atoms: C_2  and  C_3
REMARK    3  A    between atoms: C_11  and  N_12
REMARK    4  A    between atoms: C_13  and  C_14
REMARK    5  A    between atoms: C_16  and  C_17
REMARK    6  A    between atoms: C_20  and  N_21
REMARK                            x       y       z     vdW  Elec       q    Type
REMARK                         _______ _______ _______ _____ _____    ______ ____
ROOT
ATOM      1  C   UNL     1       0.730  10.823  18.786  0.00  0.00    +0.000 C 
ATOM      2  C   UNL     1      -0.137  11.341  19.944  0.00  0.00    +0.000 C 
ATOM      3  C   UNL     1      -1.620  11.136  19.558  0.00  0.00    +0.000 C 
ATOM      4  C   UNL     1       0.179  10.561  21.233  0.00  0.00    +0.000 C 
ATOM      5  C   UNL     1      -0.539  11.141  22.440  0.00  0.00    +0.000 C 
ATOM      6  O   UNL     1      -0.817  10.449  23.418  0.00  0.00    +0.000 OA
ATOM      7  C   UNL     1      -0.812  12.602  22.464  0.00  0.00    +0.000 C 
ATOM      8  C   UNL     1      -0.372  13.369  21.452  0.00  0.00    +0.000 C 
ATOM      9  C   UNL     1       0.186  12.836  20.169  0.00  0.00    +0.000 C 
ATOM     10  O   UNL     1      -0.452  14.753  21.511  0.00  0.00    +0.000 OA
ATOM     11  C   UNL     1      -0.658  15.372  22.744  0.00  0.00    +0.000 C 
ATOM     12  C   UNL     1      -1.179  14.680  23.782  0.00  0.00    +0.000 C 
ATOM     13  C   UNL     1      -1.548  13.213  23.626  0.00  0.00    +0.000 C 
ENDROOT
BRANCH  13  14
ATOM     14  C   UNL     1      -3.067  13.053  23.443  0.00  0.00    +0.000 A 
ATOM     15  C   UNL     1      -3.909  12.798  24.546  0.00  0.00    +0.000 A 
ATOM     16  C   UNL     1      -5.287  12.644  24.384  0.00  0.00    +0.000 A 
ATOM     17  C   UNL     1      -5.842  12.747  23.106  0.00  0.00    +0.000 A 
ATOM     18  C   UNL     1      -5.027  13.006  21.997  0.00  0.00    +0.000 A 
ATOM     19  C   UNL     1      -3.646  13.161  22.169  0.00  0.00    +0.000 A 
BRANCH  17  20
ATOM     20  N   UNL     1      -7.290  12.583  22.931  0.00  0.00    +0.000 N 
ATOM     21  O   UNL     1      -7.808  13.083  21.922  0.00  0.00    +0.000 OA
ATOM     22  O   UNL     1      -7.911  11.953  23.801  0.00  0.00    +0.000 OA
ENDBRANCH  17  20
ENDBRANCH  13  14
BRANCH  11  23
ATOM     23  N   UNL     1      -0.300  16.696  22.745  0.00  0.00    +0.000 N 
ATOM     24  H   UNL     1      -0.423  17.132  23.656  0.00  0.00    +0.000 HD
ATOM     25  H   UNL     1       0.592  16.919  22.307  0.00  0.00    +0.000 HD
ENDBRANCH  11  23
BRANCH  12  26
ATOM     26  C   UNL     1      -1.370  15.284  25.057  0.00  0.00    +0.000 C 
ATOM     27  N   UNL     1      -1.530  15.780  26.093  0.00  0.00    +0.000 NA
ENDBRANCH  12  26
TORSDOF 4
ENDMDL
MODEL 7
REMARK VINA RESULT:      -6.0      8.221     10.234
REMARK  Name = 
REMARK  6 active torsions:
REMARK  status: ('A' for Active; 'I' for Inactive)
REMARK    1  A    between atoms: C_1  and  C_2
REMARK    2  A    between atoms: C_2  and  C_3
REMARK    3  A    between atoms: C_11  and  N_12
REMARK    4  A    between atoms: C_13  and  C_14
REMARK    5  A    between atoms: C_16  and  C_17
REMARK    6  A    between atoms: C_20  and  N_21
REMARK                            x       y       z     vdW  Elec       q    Type
REMARK                         _______ _______ _______ _____ _____    ______ ____
ROOT
ATOM      1  C   UNL     1       0.952  16.594  21.456  0.00  0.00    +0.000 C 
ATOM      2  C   UNL     1       0.713  15.200  20.855  0.00  0.00    +0.000 C 
ATOM      3  C   UNL     1      -0.405  15.323  19.795  0.00  0.00    +0.000 C 
ATOM      4  C   UNL     1       2.003  14.680  20.194  0.00  0.00    +0.000 C 
ATOM      5  C   UNL     1       1.862  13.241  19.724  0.00  0.00    +0.000 C 
ATOM      6  O   UNL     1       2.536  12.799  18.796  0.00  0.00    +0.000 OA
ATOM      7  C   UNL     1       0.959  12.338  20.482  0.00  0.00    +0.000 C 
ATOM      8  C   UNL     1       0.340  12.797  21.583  0.00  0.00    +0.000 C 
ATOM      9  C   UNL     1       0.309  14.237  21.994  0.00  0.00    +0.000 C 
ATOM     10  O   UNL     1      -0.374  11.948  22.416  0.00  0.00    +0.000 OA
ATOM     11  C   UNL     1      -0.170  10.571  22.322  0.00  0.00    +0.000 C 
ATOM     12  C   UNL     1       0.369  10.031  21.206  0.00  0.00    +0.000 C 
ATOM     13  C   UNL     1       0.766  10.914  20.033  0.00  0.00    +0.000 C 
ENDROOT
BRANCH  13  14
ATOM     14  C   UNL     1      -0.292  10.842  18.919  0.00  0.00    +0.000 A 
ATOM     15  C   UNL     1      -1.267  11.853  18.777  0.00  0.00    +0.000 A 
ATOM     16  C   UNL     1      -2.235  11.787  17.773  0.00  0.00    +0.000 A 
ATOM     17  C   UNL     1      -2.238  10.702  16.893  0.00  0.00    +0.000 A 
ATOM     18  C   UNL     1      -1.277   9.690  17.012  0.00  0.00    +0.000 A 
ATOM     19  C   UNL     1      -0.308   9.765  18.020  0.00  0.00    +0.000 A 
BRANCH  17  20
ATOM     20  N   UNL     1      -3.256  10.628  15.839  0.00  0.00    +0.000 N 
ATOM     21  O   UNL     1      -2.892  10.265  14.711  0.00  0.00    +0.000 OA
ATOM     22  O   UNL     1      -4.421  10.933  16.136  0.00  0.00    +0.000 OA
ENDBRANCH  17  20
ENDBRANCH  13  14
BRANCH  11  23
ATOM     23  N   UNL     1      -0.584   9.891  23.438  0.00  0.00    +0.000 N 
ATOM     24  H   UNL     1      -0.211  10.288  24.297  0.00  0.00    +0.000 HD
ATOM     25  H   UNL     1      -1.578   9.678  23.490  0.00  0.00    +0.000 HD
ENDBRANCH  11  23
BRANCH  12  26
ATOM     26  C   UNL     1       0.613   8.632  21.101  0.00  0.00    +0.000 C 
ATOM     27  N   UNL     1       0.814   7.493  21.021  0.00  0.00    +0.000 NA
ENDBRANCH  12  26
TORSDOF 4
ENDMDL
MODEL 8
REMARK VINA RESULT:      -6.0     10.589     13.259
REMARK  Name = 
REMARK  6 active torsions:
REMARK  status: ('A' for Active; 'I' for Inactive)
REMARK    1  A    between atoms: C_1  and  C_2
REMARK    2  A    between atoms: C_2  and  C_3
REMARK    3  A    between atoms: C_11  and  N_12
REMARK    4  A    between atoms: C_13  and  C_14
REMARK    5  A    between atoms: C_16  and  C_17
REMARK    6  A    between atoms: C_20  and  N_21
REMARK                            x       y       z     vdW  Elec       q    Type
REMARK                         _______ _______ _______ _____ _____    ______ ____
ROOT
ATOM      1  C   UNL     1       1.038  10.436  18.870  0.00  0.00    +0.000 C 
ATOM      2  C   UNL     1       0.110  11.013  19.951  0.00  0.00    +0.000 C 
ATOM      3  C   UNL     1      -1.349  10.822  19.479  0.00  0.00    +0.000 C 
ATOM      4  C   UNL     1       0.327  10.276  21.285  0.00  0.00    +0.000 C 
ATOM      5  C   UNL     1      -0.453  10.914  22.422  0.00  0.00    +0.000 C 
ATOM      6  O   UNL     1      -0.807  10.264  23.404  0.00  0.00    +0.000 OA
ATOM      7  C   UNL     1      -0.696  12.379  22.376  0.00  0.00    +0.000 C 
ATOM      8  C   UNL     1      -0.177  13.100  21.368  0.00  0.00    +0.000 C 
ATOM      9  C   UNL     1       0.450  12.508  20.143  0.00  0.00    +0.000 C 
ATOM     10  O   UNL     1      -0.231  14.487  21.371  0.00  0.00    +0.000 OA
ATOM     11  C   UNL     1      -0.501  15.154  22.566  0.00  0.00    +0.000 C 
ATOM     12  C   UNL     1      -1.102  14.511  23.592  0.00  0.00    +0.000 C 
ATOM     13  C   UNL     1      -1.491  13.046  23.466  0.00  0.00    +0.000 C 
ENDROOT
BRANCH  13  14
ATOM     14  C   UNL     1      -2.998  12.909  23.191  0.00  0.00    +0.000 A 
ATOM     15  C   UNL     1      -3.501  12.928  21.872  0.00  0.00    +0.000 A 
ATOM     16  C   UNL     1      -4.869  12.813  21.618  0.00  0.00    +0.000 A 
ATOM     17  C   UNL     1      -5.756  12.674  22.689  0.00  0.00    +0.000 A 
ATOM     18  C   UNL     1      -5.279  12.647  24.006  0.00  0.00    +0.000 A 
ATOM     19  C   UNL     1      -3.905  12.761  24.252  0.00  0.00    +0.000 A 
BRANCH  17  20
ATOM     20  N   UNL     1      -7.194  12.555  22.427  0.00  0.00    +0.000 N 
ATOM     21  O   UNL     1      -7.778  11.552  22.861  0.00  0.00    +0.000 OA
ATOM     22  O   UNL     1      -7.743  13.466  21.786  0.00  0.00    +0.000 OA
ENDBRANCH  17  20
ENDBRANCH  13  14
BRANCH  11  23
ATOM     23  N   UNL     1      -0.116  16.470  22.542  0.00  0.00    +0.000 N 
ATOM     24  H   UNL     1       0.050  16.811  21.598  0.00  0.00    +0.000 HD
ATOM     25  H   UNL     1      -0.667  17.109  23.112  0.00  0.00    +0.000 HD
ENDBRANCH  11  23
BRANCH  12  26
ATOM     26  C   UNL     1      -1.360  15.166  24.830  0.00  0.00    +0.000 C 
ATOM     27  N   UNL     1      -1.567  15.695  25.841  0.00  0.00    +0.000 NA
ENDBRANCH  12  26
TORSDOF 4
ENDMDL
MODEL 9
REMARK VINA RESULT:      -5.9      8.361     10.465
REMARK  Name = 
REMARK  6 active torsions:
REMARK  status: ('A' for Active; 'I' for Inactive)
REMARK    1  A    between atoms: C_1  and  C_2
REMARK    2  A    between atoms: C_2  and  C_3
REMARK    3  A    between atoms: C_11  and  N_12
REMARK    4  A    between atoms: C_13  and  C_14
REMARK    5  A    between atoms: C_16  and  C_17
REMARK    6  A    between atoms: C_20  and  N_21
REMARK                            x       y       z     vdW  Elec       q    Type
REMARK                         _______ _______ _______ _____ _____    ______ ____
ROOT
ATOM      1  C   UNL     1       1.663  16.577  20.526  0.00  0.00    +0.000 C 
ATOM      2  C   UNL     1       1.146  15.184  20.133  0.00  0.00    +0.000 C 
ATOM      3  C   UNL     1      -0.052  15.373  19.176  0.00  0.00    +0.000 C 
ATOM      4  C   UNL     1       2.257  14.386  19.426  0.00  0.00    +0.000 C 
ATOM      5  C   UNL     1       1.844  12.948  19.158  0.00  0.00    +0.000 C 
ATOM      6  O   UNL     1       2.332  12.300  18.235  0.00  0.00    +0.000 OA
ATOM      7  C   UNL     1       0.904  12.297  20.107  0.00  0.00    +0.000 C 
ATOM      8  C   UNL     1       0.492  12.972  21.193  0.00  0.00    +0.000 C 
ATOM      9  C   UNL     1       0.729  14.434  21.418  0.00  0.00    +0.000 C 
ATOM     10  O   UNL     1      -0.245  12.351  22.191  0.00  0.00    +0.000 OA
ATOM     11  C   UNL     1      -0.268  10.958  22.254  0.00  0.00    +0.000 C 
ATOM     12  C   UNL     1       0.052  10.215  21.170  0.00  0.00    +0.000 C 
ATOM     13  C   UNL     1       0.445  10.884  19.862  0.00  0.00    +0.000 C 
ENDROOT
BRANCH  13  14
ATOM     14  C   UNL     1      -0.732  10.867  18.871  0.00  0.00    +0.000 A 
ATOM     15  C   UNL     1      -0.753   9.965  17.785  0.00  0.00    +0.000 A 
ATOM     16  C   UNL     1      -1.814   9.951  16.878  0.00  0.00    +0.000 A 
ATOM     17  C   UNL     1      -2.874  10.844  17.049  0.00  0.00    +0.000 A 
ATOM     18  C   UNL     1      -2.878  11.744  18.123  0.00  0.00    +0.000 A 
ATOM     19  C   UNL     1      -1.811  11.750  19.030  0.00  0.00    +0.000 A 
BRANCH  17  20
ATOM     20  N   UNL     1      -3.990  10.835  16.097  0.00  0.00    +0.000 N 
ATOM     21  O   UNL     1      -3.804  10.297  14.996  0.00  0.00    +0.000 OA
ATOM     22  O   UNL     1      -5.056  11.366  16.448  0.00  0.00    +0.000 OA
ENDBRANCH  17  20
ENDBRANCH  13  14
BRANCH  11  23
ATOM     23  N   UNL     1      -0.653  10.484  23.482  0.00  0.00    +0.000 N 
ATOM     24  H   UNL     1      -1.230  11.148  23.992  0.00  0.00    +0.000 HD
ATOM     25  H   UNL     1      -1.017   9.533  23.501  0.00  0.00    +0.000 HD
ENDBRANCH  11  23
BRANCH  12  26
ATOM     26  C   UNL     1       0.064   8.792  21.222  0.00  0.00    +0.000 C 
ATOM     27  N   UNL     1       0.070   7.634  21.269  0.00  0.00    +0.000 NA
ENDBRANCH  12  26
TORSDOF 4
ENDMDL
