MODEL 1
REMARK VINA RESULT:      -7.1      0.000      0.000
REMARK  Name = 
REMARK  4 active torsions:
REMARK  status: ('A' for Active; 'I' for Inactive)
REMARK    1  A    between atoms: C_1  and  C_2
REMARK    2  A    between atoms: C_8  and  C_10
REMARK    3  A    between atoms: C_10  and  S_11
REMARK    4  A    between atoms: S_11  and  C_12
REMARK                            x       y       z     vdW  Elec       q    Type
REMARK                         _______ _______ _______ _____ _____    ______ ____
ROOT
ATOM      1  C   UNL     1       5.725   3.352  12.454  0.00  0.00    +0.000 C 
ATOM      2  C   UNL     1       6.679   4.270  13.108  0.00  0.00    +0.000 A 
ATOM      3  N   UNL     1       7.620   4.868  12.377  0.00  0.00    +0.000 NA
ATOM      4  O   UNL     1       8.327   5.652  13.279  0.00  0.00    +0.000 OA
ATOM      5  N   UNL     1       7.814   5.530  14.553  0.00  0.00    +0.000 NA
ATOM      6  C   UNL     1       6.797   4.672  14.468  0.00  0.00    +0.000 A 
ATOM      7  N   UNL     1       6.012   4.255  15.535  0.00  0.00    +0.000 N 
ATOM      8  C   UNL     1       6.244   4.640  16.844  0.00  0.00    +0.000 C 
ATOM      9  O   UNL     1       7.081   5.468  17.206  0.00  0.00    +0.000 OA
ATOM     10  H   UNL     1       5.318   3.542  15.354  0.00  0.00    +0.000 HD
ENDROOT
BRANCH   8  11
ATOM     11  C   UNL     1       5.311   4.045  17.891  0.00  0.00    +0.000 C 
BRANCH  11  12
ATOM     12  S   UNL     1       4.805   5.185  19.203  0.00  0.00    +0.000 S 
BRANCH  12  13
ATOM     13  C   UNL     1       3.296   4.389  19.680  0.00  0.00    +0.000 A 
ATOM     14  N   UNL     1       2.318   5.129  20.221  0.00  0.00    +0.000 NA
ATOM     15  C   UNL     1       1.198   4.463  20.566  0.00  0.00    +0.000 A 
ATOM     16  C   UNL     1       1.037   3.108  20.392  0.00  0.00    +0.000 A 
ATOM     17  C   UNL     1       2.112   2.448  19.844  0.00  0.00    +0.000 A 
ATOM     18  N   UNL     1       3.255   3.059  19.486  0.00  0.00    +0.000 NA
ENDBRANCH  12  13
ENDBRANCH  11  12
ENDBRANCH   8  11
TORSDOF 3
ENDMDL
MODEL 2
REMARK VINA RESULT:      -7.0      2.038      2.907
REMARK  Name = 
REMARK  4 active torsions:
REMARK  status: ('A' for Active; 'I' for Inactive)
REMARK    1  A    between atoms: C_1  and  C_2
REMARK    2  A    between atoms: C_8  and  C_10
REMARK    3  A    between atoms: C_10  and  S_11
REMARK    4  A    between atoms: S_11  and  C_12
REMARK                            x       y       z     vdW  Elec       q    Type
REMARK                         _______ _______ _______ _____ _____    ______ ____
ROOT
ATOM      1  C   UNL     1       5.992   3.971  14.067  0.00  0.00    +0.000 C 
ATOM      2  C   UNL     1       6.481   4.481  15.364  0.00  0.00    +0.000 A 
ATOM      3  N   UNL     1       7.507   5.333  15.389  0.00  0.00    +0.000 NA
ATOM      4  O   UNL     1       7.703   5.614  16.735  0.00  0.00    +0.000 OA
ATOM      5  N   UNL     1       6.798   4.935  17.523  0.00  0.00    +0.000 NA
ATOM      6  C   UNL     1       6.037   4.222  16.691  0.00  0.00    +0.000 A 
ATOM      7  N   UNL     1       5.005   3.378  17.078  0.00  0.00    +0.000 N 
ATOM      8  C   UNL     1       4.686   3.126  18.401  0.00  0.00    +0.000 C 
ATOM      9  O   UNL     1       5.187   3.688  19.375  0.00  0.00    +0.000 OA
ATOM     10  H   UNL     1       4.550   2.833  16.357  0.00  0.00    +0.000 HD
ENDROOT
BRANCH   8  11
ATOM     11  C   UNL     1       3.555   2.134  18.639  0.00  0.00    +0.000 C 
BRANCH  11  12
ATOM     12  S   UNL     1       1.905   2.729  18.189  0.00  0.00    +0.000 S 
BRANCH  12  13
ATOM     13  C   UNL     1       2.060   4.399  18.759  0.00  0.00    +0.000 A 
ATOM     14  N   UNL     1       2.437   5.346  17.890  0.00  0.00    +0.000 NA
ATOM     15  C   UNL     1       2.539   6.595  18.388  0.00  0.00    +0.000 A 
ATOM     16  C   UNL     1       2.285   6.911  19.702  0.00  0.00    +0.000 A 
ATOM     17  C   UNL     1       1.922   5.857  20.506  0.00  0.00    +0.000 A 
ATOM     18  N   UNL     1       1.808   4.591  20.066  0.00  0.00    +0.000 NA
ENDBRANCH  12  13
ENDBRANCH  11  12
ENDBRANCH   8  11
TORSDOF 3
ENDMDL
MODEL 3
REMARK VINA RESULT:      -7.0      0.313      1.177
REMARK  Name = 
REMARK  4 active torsions:
REMARK  status: ('A' for Active; 'I' for Inactive)
REMARK    1  A    between atoms: C_1  and  C_2
REMARK    2  A    between atoms: C_8  and  C_10
REMARK    3  A    between atoms: C_10  and  S_11
REMARK    4  A    between atoms: S_11  and  C_12
REMARK                            x       y       z     vdW  Elec       q    Type
REMARK                         _______ _______ _______ _____ _____    ______ ____
ROOT
ATOM      1  C   UNL     1       5.642   3.037  12.290  0.00  0.00    +0.000 C 
ATOM      2  C   UNL     1       6.568   4.037  12.860  0.00  0.00    +0.000 A 
ATOM      3  N   UNL     1       7.445   4.649  12.062  0.00  0.00    +0.000 NA
ATOM      4  O   UNL     1       8.142   5.514  12.896  0.00  0.00    +0.000 OA
ATOM      5  N   UNL     1       7.687   5.427  14.195  0.00  0.00    +0.000 NA
ATOM      6  C   UNL     1       6.716   4.511  14.193  0.00  0.00    +0.000 A 
ATOM      7  N   UNL     1       5.999   4.106  15.310  0.00  0.00    +0.000 N 
ATOM      8  C   UNL     1       6.259   4.567  16.589  0.00  0.00    +0.000 C 
ATOM      9  O   UNL     1       7.062   5.456  16.877  0.00  0.00    +0.000 OA
ATOM     10  H   UNL     1       5.339   3.348  15.193  0.00  0.00    +0.000 HD
ENDROOT
BRANCH   8  11
ATOM     11  C   UNL     1       5.404   3.975  17.701  0.00  0.00    +0.000 C 
BRANCH  11  12
ATOM     12  S   UNL     1       4.971   5.126  19.030  0.00  0.00    +0.000 S 
BRANCH  12  13
ATOM     13  C   UNL     1       3.486   4.338  19.591  0.00  0.00    +0.000 A 
ATOM     14  N   UNL     1       3.275   3.054  19.270  0.00  0.00    +0.000 NA
ATOM     15  C   UNL     1       2.125   2.516  19.724  0.00  0.00    +0.000 A 
ATOM     16  C   UNL     1       1.202   3.214  20.467  0.00  0.00    +0.000 A 
ATOM     17  C   UNL     1       1.515   4.528  20.720  0.00  0.00    +0.000 A 
ATOM     18  N   UNL     1       2.644   5.120  20.290  0.00  0.00    +0.000 NA
ENDBRANCH  12  13
ENDBRANCH  11  12
ENDBRANCH   8  11
TORSDOF 3
ENDMDL
MODEL 4
REMARK VINA RESULT:      -6.9      1.128      1.545
REMARK  Name = 
REMARK  4 active torsions:
REMARK  status: ('A' for Active; 'I' for Inactive)
REMARK    1  A    between atoms: C_1  and  C_2
REMARK    2  A    between atoms: C_8  and  C_10
REMARK    3  A    between atoms: C_10  and  S_11
REMARK    4  A    between atoms: S_11  and  C_12
REMARK                            x       y       z     vdW  Elec       q    Type
REMARK                         _______ _______ _______ _____ _____    ______ ____
ROOT
ATOM      1  C   UNL     1       5.549   3.111  12.575  0.00  0.00    +0.000 C 
ATOM      2  C   UNL     1       6.567   4.113  12.953  0.00  0.00    +0.000 A 
ATOM      3  N   UNL     1       7.345   4.647  12.011  0.00  0.00    +0.000 NA
ATOM      4  O   UNL     1       8.167   5.537  12.689  0.00  0.00    +0.000 OA
ATOM      5  N   UNL     1       7.887   5.543  14.039  0.00  0.00    +0.000 NA
ATOM      6  C   UNL     1       6.903   4.661  14.223  0.00  0.00    +0.000 A 
ATOM      7  N   UNL     1       6.331   4.347  15.448  0.00  0.00    +0.000 N 
ATOM      8  C   UNL     1       6.770   4.875  16.649  0.00  0.00    +0.000 C 
ATOM      9  O   UNL     1       7.625   5.753  16.772  0.00  0.00    +0.000 OA
ATOM     10  H   UNL     1       5.643   3.605  15.466  0.00  0.00    +0.000 HD
ENDROOT
BRANCH   8  11
ATOM     11  C   UNL     1       6.056   4.379  17.900  0.00  0.00    +0.000 C 
BRANCH  11  12
ATOM     12  S   UNL     1       4.652   5.390  18.433  0.00  0.00    +0.000 S 
BRANCH  12  13
ATOM     13  C   UNL     1       3.418   4.120  18.498  0.00  0.00    +0.000 A 
ATOM     14  N   UNL     1       3.809   2.847  18.653  0.00  0.00    +0.000 NA
ATOM     15  C   UNL     1       2.821   1.929  18.691  0.00  0.00    +0.000 A 
ATOM     16  C   UNL     1       1.488   2.245  18.576  0.00  0.00    +0.000 A 
ATOM     17  C   UNL     1       1.206   3.579  18.403  0.00  0.00    +0.000 A 
ATOM     18  N   UNL     1       2.148   4.537  18.353  0.00  0.00    +0.000 NA
ENDBRANCH  12  13
ENDBRANCH  11  12
ENDBRANCH   8  11
TORSDOF 3
ENDMDL
MODEL 5
REMARK VINA RESULT:      -6.9      2.305      3.314
REMARK  Name = 
REMARK  4 active torsions:
REMARK  status: ('A' for Active; 'I' for Inactive)
REMARK    1  A    between atoms: C_1  and  C_2
REMARK    2  A    between atoms: C_8  and  C_10
REMARK    3  A    between atoms: C_10  and  S_11
REMARK    4  A    between atoms: S_11  and  C_12
REMARK                            x       y       z     vdW  Elec       q    Type
REMARK                         _______ _______ _______ _____ _____    ______ ____
ROOT
ATOM      1  C   UNL     1       5.569   4.790  14.801  0.00  0.00    +0.000 C 
ATOM      2  C   UNL     1       6.267   4.756  16.101  0.00  0.00    +0.000 A 
ATOM      3  N   UNL     1       7.466   5.329  16.218  0.00  0.00    +0.000 NA
ATOM      4  O   UNL     1       7.830   5.128  17.543  0.00  0.00    +0.000 OA
ATOM      5  N   UNL     1       6.853   4.437  18.228  0.00  0.00    +0.000 NA
ATOM      6  C   UNL     1       5.880   4.191  17.349  0.00  0.00    +0.000 A 
ATOM      7  N   UNL     1       4.709   3.498  17.626  0.00  0.00    +0.000 N 
ATOM      8  C   UNL     1       4.445   2.915  18.853  0.00  0.00    +0.000 C 
ATOM      9  O   UNL     1       5.142   3.029  19.862  0.00  0.00    +0.000 OA
ATOM     10  H   UNL     1       4.082   3.312  16.855  0.00  0.00    +0.000 HD
ENDROOT
BRANCH   8  11
ATOM     11  C   UNL     1       3.131   2.151  18.962  0.00  0.00    +0.000 C 
BRANCH  11  12
ATOM     12  S   UNL     1       1.706   2.965  18.197  0.00  0.00    +0.000 S 
BRANCH  12  13
ATOM     13  C   UNL     1       1.910   4.578  18.902  0.00  0.00    +0.000 A 
ATOM     14  N   UNL     1       1.568   4.771  20.183  0.00  0.00    +0.000 NA
ATOM     15  C   UNL     1       1.745   6.021  20.658  0.00  0.00    +0.000 A 
ATOM     16  C   UNL     1       2.237   7.057  19.900  0.00  0.00    +0.000 A 
ATOM     17  C   UNL     1       2.537   6.748  18.595  0.00  0.00    +0.000 A 
ATOM     18  N   UNL     1       2.378   5.521  18.066  0.00  0.00    +0.000 NA
ENDBRANCH  12  13
ENDBRANCH  11  12
ENDBRANCH   8  11
TORSDOF 3
ENDMDL
MODEL 6
REMARK VINA RESULT:      -6.8      1.028      1.478
REMARK  Name = 
REMARK  4 active torsions:
REMARK  status: ('A' for Active; 'I' for Inactive)
REMARK    1  A    between atoms: C_1  and  C_2
REMARK    2  A    between atoms: C_8  and  C_10
REMARK    3  A    between atoms: C_10  and  S_11
REMARK    4  A    between atoms: S_11  and  C_12
REMARK                            x       y       z     vdW  Elec       q    Type
REMARK                         _______ _______ _______ _____ _____    ______ ____
ROOT
ATOM      1  C   UNL     1       5.647   3.073  12.377  0.00  0.00    +0.000 C 
ATOM      2  C   UNL     1       6.599   4.090  12.867  0.00  0.00    +0.000 A 
ATOM      3  N   UNL     1       7.444   4.665  12.011  0.00  0.00    +0.000 NA
ATOM      4  O   UNL     1       8.178   5.559  12.779  0.00  0.00    +0.000 OA
ATOM      5  N   UNL     1       7.777   5.527  14.098  0.00  0.00    +0.000 NA
ATOM      6  C   UNL     1       6.804   4.617  14.173  0.00  0.00    +0.000 A 
ATOM      7  N   UNL     1       6.133   4.260  15.335  0.00  0.00    +0.000 N 
ATOM      8  C   UNL     1       6.448   4.771  16.582  0.00  0.00    +0.000 C 
ATOM      9  O   UNL     1       7.265   5.667  16.800  0.00  0.00    +0.000 OA
ATOM     10  H   UNL     1       5.465   3.502  15.275  0.00  0.00    +0.000 HD
ENDROOT
BRANCH   8  11
ATOM     11  C   UNL     1       5.637   4.229  17.751  0.00  0.00    +0.000 C 
BRANCH  11  12
ATOM     12  S   UNL     1       4.062   3.458  17.300  0.00  0.00    +0.000 S 
BRANCH  12  13
ATOM     13  C   UNL     1       3.067   4.090  18.623  0.00  0.00    +0.000 A 
ATOM     14  N   UNL     1       2.193   3.270  19.223  0.00  0.00    +0.000 NA
ATOM     15  C   UNL     1       1.465   3.814  20.219  0.00  0.00    +0.000 A 
ATOM     16  C   UNL     1       1.582   5.126  20.615  0.00  0.00    +0.000 A 
ATOM     17  C   UNL     1       2.496   5.877  19.917  0.00  0.00    +0.000 A 
ATOM     18  N   UNL     1       3.248   5.391  18.913  0.00  0.00    +0.000 NA
ENDBRANCH  12  13
ENDBRANCH  11  12
ENDBRANCH   8  11
TORSDOF 3
ENDMDL
MODEL 7
REMARK VINA RESULT:      -6.6      2.285      7.454
REMARK  Name = 
REMARK  4 active torsions:
REMARK  status: ('A' for Active; 'I' for Inactive)
REMARK    1  A    between atoms: C_1  and  C_2
REMARK    2  A    between atoms: C_8  and  C_10
REMARK    3  A    between atoms: C_10  and  S_11
REMARK    4  A    between atoms: S_11  and  C_12
REMARK                            x       y       z     vdW  Elec       q    Type
REMARK                         _______ _______ _______ _____ _____    ______ ____
ROOT
ATOM      1  C   UNL     1       0.460   2.228  18.818  0.00  0.00    +0.000 C 
ATOM      2  C   UNL     1       1.497   2.719  19.747  0.00  0.00    +0.000 A 
ATOM      3  N   UNL     1       1.227   2.795  21.051  0.00  0.00    +0.000 NA
ATOM      4  O   UNL     1       2.394   3.278  21.630  0.00  0.00    +0.000 OA
ATOM      5  N   UNL     1       3.369   3.494  20.678  0.00  0.00    +0.000 NA
ATOM      6  C   UNL     1       2.828   3.160  19.505  0.00  0.00    +0.000 A 
ATOM      7  N   UNL     1       3.472   3.245  18.277  0.00  0.00    +0.000 N 
ATOM      8  C   UNL     1       4.748   3.756  18.122  0.00  0.00    +0.000 C 
ATOM      9  O   UNL     1       5.500   4.088  19.040  0.00  0.00    +0.000 OA
ATOM     10  H   UNL     1       2.929   3.033  17.450  0.00  0.00    +0.000 HD
ENDROOT
BRANCH   8  11
ATOM     11  C   UNL     1       5.275   3.818  16.694  0.00  0.00    +0.000 C 
BRANCH  11  12
ATOM     12  S   UNL     1       6.516   5.101  16.390  0.00  0.00    +0.000 S 
BRANCH  12  13
ATOM     13  C   UNL     1       6.809   4.785  14.671  0.00  0.00    +0.000 A 
ATOM     14  N   UNL     1       7.743   5.503  14.033  0.00  0.00    +0.000 NA
ATOM     15  C   UNL     1       7.915   5.217  12.727  0.00  0.00    +0.000 A 
ATOM     16  C   UNL     1       7.190   4.258  12.059  0.00  0.00    +0.000 A 
ATOM     17  C   UNL     1       6.247   3.597  12.809  0.00  0.00    +0.000 A 
ATOM     18  N   UNL     1       6.029   3.843  14.114  0.00  0.00    +0.000 NA
ENDBRANCH  12  13
ENDBRANCH  11  12
ENDBRANCH   8  11
TORSDOF 3
ENDMDL
MODEL 8
REMARK VINA RESULT:      -6.5      3.219      6.492
REMARK  Name = 
REMARK  4 active torsions:
REMARK  status: ('A' for Active; 'I' for Inactive)
REMARK    1  A    between atoms: C_1  and  C_2
REMARK    2  A    between atoms: C_8  and  C_10
REMARK    3  A    between atoms: C_10  and  S_11
REMARK    4  A    between atoms: S_11  and  C_12
REMARK                            x       y       z     vdW  Elec       q    Type
REMARK                         _______ _______ _______ _____ _____    ______ ____
ROOT
ATOM      1  C   UNL     1       2.264   8.279  18.329  0.00  0.00    +0.000 C 
ATOM      2  C   UNL     1       2.444   6.975  18.997  0.00  0.00    +0.000 A 
ATOM      3  N   UNL     1       1.975   6.802  20.234  0.00  0.00    +0.000 NA
ATOM      4  O   UNL     1       2.297   5.490  20.557  0.00  0.00    +0.000 OA
ATOM      5  N   UNL     1       2.959   4.870  19.518  0.00  0.00    +0.000 NA
ATOM      6  C   UNL     1       3.065   5.777  18.545  0.00  0.00    +0.000 A 
ATOM      7  N   UNL     1       3.685   5.566  17.321  0.00  0.00    +0.000 N 
ATOM      8  C   UNL     1       4.332   4.389  16.990  0.00  0.00    +0.000 C 
ATOM      9  O   UNL     1       4.344   3.365  17.674  0.00  0.00    +0.000 OA
ATOM     10  H   UNL     1       3.766   6.358  16.696  0.00  0.00    +0.000 HD
ENDROOT
BRANCH   8  11
ATOM     11  C   UNL     1       4.998   4.354  15.621  0.00  0.00    +0.000 C 
BRANCH  11  12
ATOM     12  S   UNL     1       6.770   3.981  15.639  0.00  0.00    +0.000 S 
BRANCH  12  13
ATOM     13  C   UNL     1       7.272   5.140  16.881  0.00  0.00    +0.000 A 
ATOM     14  N   UNL     1       7.593   4.683  18.100  0.00  0.00    +0.000 NA
ATOM     15  C   UNL     1       7.964   5.616  19.000  0.00  0.00    +0.000 A 
ATOM     16  C   UNL     1       8.015   6.962  18.720  0.00  0.00    +0.000 A 
ATOM     17  C   UNL     1       7.647   7.317  17.444  0.00  0.00    +0.000 A 
ATOM     18  N   UNL     1       7.265   6.431  16.506  0.00  0.00    +0.000 NA
ENDBRANCH  12  13
ENDBRANCH  11  12
ENDBRANCH   8  11
TORSDOF 3
ENDMDL
MODEL 9
REMARK VINA RESULT:      -6.4      3.468      4.199
REMARK  Name = 
REMARK  4 active torsions:
REMARK  status: ('A' for Active; 'I' for Inactive)
REMARK    1  A    between atoms: C_1  and  C_2
REMARK    2  A    between atoms: C_8  and  C_10
REMARK    3  A    between atoms: C_10  and  S_11
REMARK    4  A    between atoms: S_11  and  C_12
REMARK                            x       y       z     vdW  Elec       q    Type
REMARK                         _______ _______ _______ _____ _____    ______ ____
ROOT
ATOM      1  C   UNL     1       6.796   5.965  16.468  0.00  0.00    +0.000 C 
ATOM      2  C   UNL     1       6.827   5.568  17.890  0.00  0.00    +0.000 A 
ATOM      3  N   UNL     1       7.728   6.117  18.706  0.00  0.00    +0.000 NA
ATOM      4  O   UNL     1       7.484   5.542  19.946  0.00  0.00    +0.000 OA
ATOM      5  N   UNL     1       6.436   4.648  19.882  0.00  0.00    +0.000 NA
ATOM      6  C   UNL     1       6.022   4.645  18.614  0.00  0.00    +0.000 A 
ATOM      7  N   UNL     1       4.989   3.863  18.114  0.00  0.00    +0.000 N 
ATOM      8  C   UNL     1       4.302   2.933  18.876  0.00  0.00    +0.000 C 
ATOM      9  O   UNL     1       4.439   2.764  20.088  0.00  0.00    +0.000 OA
ATOM     10  H   UNL     1       4.818   3.896  17.118  0.00  0.00    +0.000 HD
ENDROOT
BRANCH   8  11
ATOM     11  C   UNL     1       3.232   2.131  18.147  0.00  0.00    +0.000 C 
BRANCH  11  12
ATOM     12  S   UNL     1       1.528   2.633  18.496  0.00  0.00    +0.000 S 
BRANCH  12  13
ATOM     13  C   UNL     1       1.835   4.313  18.964  0.00  0.00    +0.000 A 
ATOM     14  N   UNL     1       1.632   4.677  20.238  0.00  0.00    +0.000 NA
ATOM     15  C   UNL     1       1.880   5.970  20.528  0.00  0.00    +0.000 A 
ATOM     16  C   UNL     1       2.312   6.887  19.598  0.00  0.00    +0.000 A 
ATOM     17  C   UNL     1       2.469   6.406  18.320  0.00  0.00    +0.000 A 
ATOM     18  N   UNL     1       2.232   5.129  17.971  0.00  0.00    +0.000 NA
ENDBRANCH  12  13
ENDBRANCH  11  12
ENDBRANCH   8  11
TORSDOF 3
ENDMDL
