MODEL 1
REMARK VINA RESULT:      -7.6      0.000      0.000
REMARK  Name = 
REMARK  3 active torsions:
REMARK  status: ('A' for Active; 'I' for Inactive)
REMARK    1  A    between atoms: N_2  and  C_4
REMARK    2  A    between atoms: C_7  and  C_8
REMARK    3  A    between atoms: N_12  and  C_13
REMARK                            x       y       z     vdW  Elec       q    Type
REMARK                         _______ _______ _______ _____ _____    ______ ____
ROOT
ATOM      1  C   UNL     1       3.769   5.808  18.431  0.00  0.00    +0.000 A 
ATOM      2  C   UNL     1       3.195   7.075  18.530  0.00  0.00    +0.000 A 
ATOM      3  N   UNL     1       2.268   7.164  19.513  0.00  0.00    +0.000 NA
ATOM      4  C   UNL     1       2.259   5.971  20.046  0.00  0.00    +0.000 A 
ATOM      5  N   UNL     1       3.173   5.108  19.481  0.00  0.00    +0.000 N 
ENDROOT
BRANCH   1   9
ATOM      6  C   UNL     1       6.457   5.016  15.194  0.00  0.00    +0.000 A 
ATOM      7  C   UNL     1       6.925   5.740  16.296  0.00  0.00    +0.000 A 
ATOM      8  C   UNL     1       6.089   5.960  17.402  0.00  0.00    +0.000 A 
ATOM      9  C   UNL     1       4.791   5.435  17.437  0.00  0.00    +0.000 A 
ATOM     10  C   UNL     1       4.388   4.622  16.352  0.00  0.00    +0.000 A 
ATOM     11  C   UNL     1       5.196   4.426  15.229  0.00  0.00    +0.000 A 
BRANCH   6  13
ATOM     12  O   UNL     1       8.271   5.661  13.900  0.00  0.00    +0.000 OA
ATOM     13  N   UNL     1       7.265   4.939  13.971  0.00  0.00    +0.000 N 
ATOM     14  O   UNL     1       6.882   4.176  13.072  0.00  0.00    +0.000 OA
ENDBRANCH   6  13
ENDBRANCH   1   9
BRANCH   5  15
ATOM     15  C   UNL     1       3.417   3.752  19.971  0.00  0.00    +0.000 C 
ATOM     16  C   UNL     1       2.415   3.293  21.050  0.00  0.00    +0.000 C 
ATOM     17  C   UNL     1       1.041   2.896  20.508  0.00  0.00    +0.000 C 
ATOM     18  C   UNL     1       1.083   1.999  19.268  0.00  0.00    +0.000 C 
ATOM     19  C   UNL     1       2.184   2.299  18.251  0.00  0.00    +0.000 C 
ATOM     20  C   UNL     1       3.519   2.670  18.884  0.00  0.00    +0.000 C 
ENDBRANCH   5  15
TORSDOF 3
ENDMDL
MODEL 2
REMARK VINA RESULT:      -7.4      4.060      5.564
REMARK  Name = 
REMARK  3 active torsions:
REMARK  status: ('A' for Active; 'I' for Inactive)
REMARK    1  A    between atoms: N_2  and  C_4
REMARK    2  A    between atoms: C_7  and  C_8
REMARK    3  A    between atoms: N_12  and  C_13
REMARK                            x       y       z     vdW  Elec       q    Type
REMARK                         _______ _______ _______ _____ _____    ______ ____
ROOT
ATOM      1  C   UNL     1       4.026   5.715  18.722  0.00  0.00    +0.000 A 
ATOM      2  C   UNL     1       5.318   5.819  19.235  0.00  0.00    +0.000 A 
ATOM      3  N   UNL     1       6.024   4.667  19.135  0.00  0.00    +0.000 NA
ATOM      4  C   UNL     1       5.195   3.840  18.552  0.00  0.00    +0.000 A 
ATOM      5  N   UNL     1       3.985   4.412  18.226  0.00  0.00    +0.000 N 
ENDROOT
BRANCH   1   9
ATOM      6  C   UNL     1       1.486   9.144  19.079  0.00  0.00    +0.000 A 
ATOM      7  C   UNL     1       2.110   8.893  17.852  0.00  0.00    +0.000 A 
ATOM      8  C   UNL     1       2.896   7.743  17.683  0.00  0.00    +0.000 A 
ATOM      9  C   UNL     1       3.042   6.814  18.721  0.00  0.00    +0.000 A 
ATOM     10  C   UNL     1       2.315   7.047  19.911  0.00  0.00    +0.000 A 
ATOM     11  C   UNL     1       1.559   8.206  20.106  0.00  0.00    +0.000 A 
BRANCH   6  13
ATOM     12  O   UNL     1      -0.242  10.417  19.960  0.00  0.00    +0.000 OA
ATOM     13  N   UNL     1       0.815  10.428  19.311  0.00  0.00    +0.000 N 
ATOM     14  O   UNL     1       1.331  11.446  18.826  0.00  0.00    +0.000 OA
ENDBRANCH   6  13
ENDBRANCH   1   9
BRANCH   5  15
ATOM     15  C   UNL     1       2.935   3.716  17.481  0.00  0.00    +0.000 C 
ATOM     16  C   UNL     1       3.029   2.179  17.568  0.00  0.00    +0.000 C 
ATOM     17  C   UNL     1       2.541   1.589  18.892  0.00  0.00    +0.000 C 
ATOM     18  C   UNL     1       1.214   2.166  19.392  0.00  0.00    +0.000 C 
ATOM     19  C   UNL     1       0.993   3.661  19.160  0.00  0.00    +0.000 C 
ATOM     20  C   UNL     1       1.499   4.154  17.810  0.00  0.00    +0.000 C 
ENDBRANCH   5  15
TORSDOF 3
ENDMDL
MODEL 3
REMARK VINA RESULT:      -7.3      4.312      6.593
REMARK  Name = 
REMARK  3 active torsions:
REMARK  status: ('A' for Active; 'I' for Inactive)
REMARK    1  A    between atoms: N_2  and  C_4
REMARK    2  A    between atoms: C_7  and  C_8
REMARK    3  A    between atoms: N_12  and  C_13
REMARK                            x       y       z     vdW  Elec       q    Type
REMARK                         _______ _______ _______ _____ _____    ______ ____
ROOT
ATOM      1  C   UNL     1       2.529   5.392  18.188  0.00  0.00    +0.000 A 
ATOM      2  C   UNL     1       1.570   4.403  17.974  0.00  0.00    +0.000 A 
ATOM      3  N   UNL     1       2.058   3.322  17.319  0.00  0.00    +0.000 NA
ATOM      4  C   UNL     1       3.319   3.612  17.129  0.00  0.00    +0.000 A 
ATOM      5  N   UNL     1       3.693   4.824  17.668  0.00  0.00    +0.000 N 
ENDROOT
BRANCH   1   9
ATOM      6  C   UNL     1       1.278   9.115  19.893  0.00  0.00    +0.000 A 
ATOM      7  C   UNL     1       1.489   8.023  20.742  0.00  0.00    +0.000 A 
ATOM      8  C   UNL     1       1.962   6.808  20.222  0.00  0.00    +0.000 A 
ATOM      9  C   UNL     1       2.261   6.677  18.861  0.00  0.00    +0.000 A 
ATOM     10  C   UNL     1       2.134   7.829  18.052  0.00  0.00    +0.000 A 
ATOM     11  C   UNL     1       1.629   9.034  18.548  0.00  0.00    +0.000 A 
BRANCH   6  13
ATOM     12  O   UNL     1      -0.423  10.692  19.838  0.00  0.00    +0.000 OA
ATOM     13  N   UNL     1       0.618  10.323  20.403  0.00  0.00    +0.000 N 
ATOM     14  O   UNL     1       1.150  10.915  21.353  0.00  0.00    +0.000 OA
ENDBRANCH   6  13
ENDBRANCH   1   9
BRANCH   5  15
ATOM     15  C   UNL     1       5.069   5.319  17.670  0.00  0.00    +0.000 C 
ATOM     16  C   UNL     1       6.111   4.255  17.268  0.00  0.00    +0.000 C 
ATOM     17  C   UNL     1       6.172   3.965  15.767  0.00  0.00    +0.000 C 
ATOM     18  C   UNL     1       6.173   5.212  14.880  0.00  0.00    +0.000 C 
ATOM     19  C   UNL     1       5.292   6.374  15.339  0.00  0.00    +0.000 C 
ATOM     20  C   UNL     1       5.307   6.596  16.847  0.00  0.00    +0.000 C 
ENDBRANCH   5  15
TORSDOF 3
ENDMDL
MODEL 4
REMARK VINA RESULT:      -7.3      4.119      6.539
REMARK  Name = 
REMARK  3 active torsions:
REMARK  status: ('A' for Active; 'I' for Inactive)
REMARK    1  A    between atoms: N_2  and  C_4
REMARK    2  A    between atoms: C_7  and  C_8
REMARK    3  A    between atoms: N_12  and  C_13
REMARK                            x       y       z     vdW  Elec       q    Type
REMARK                         _______ _______ _______ _____ _____    ______ ____
ROOT
ATOM      1  C   UNL     1       3.361   5.545  19.114  0.00  0.00    +0.000 A 
ATOM      2  C   UNL     1       3.074   4.331  19.737  0.00  0.00    +0.000 A 
ATOM      3  N   UNL     1       3.992   3.370  19.476  0.00  0.00    +0.000 NA
ATOM      4  C   UNL     1       4.863   3.968  18.706  0.00  0.00    +0.000 A 
ATOM      5  N   UNL     1       4.579   5.298  18.482  0.00  0.00    +0.000 N 
ENDROOT
BRANCH   1   9
ATOM      6  C   UNL     1       1.287   9.238  19.746  0.00  0.00    +0.000 A 
ATOM      7  C   UNL     1       1.764   8.944  18.462  0.00  0.00    +0.000 A 
ATOM      8  C   UNL     1       2.389   7.714  18.208  0.00  0.00    +0.000 A 
ATOM      9  C   UNL     1       2.518   6.751  19.217  0.00  0.00    +0.000 A 
ATOM     10  C   UNL     1       1.935   7.041  20.472  0.00  0.00    +0.000 A 
ATOM     11  C   UNL     1       1.342   8.275  20.749  0.00  0.00    +0.000 A 
BRANCH   6  13
ATOM     12  O   UNL     1       1.107  11.076  21.150  0.00  0.00    +0.000 OA
ATOM     13  N   UNL     1       0.797  10.587  20.053  0.00  0.00    +0.000 N 
ATOM     14  O   UNL     1       0.084  11.149  19.209  0.00  0.00    +0.000 OA
ENDBRANCH   6  13
ENDBRANCH   1   9
BRANCH   5  15
ATOM     15  C   UNL     1       5.458   6.198  17.735  0.00  0.00    +0.000 C 
ATOM     16  C   UNL     1       6.958   5.873  17.893  0.00  0.00    +0.000 C 
ATOM     17  C   UNL     1       7.432   4.667  17.080  0.00  0.00    +0.000 C 
ATOM     18  C   UNL     1       6.932   4.642  15.633  0.00  0.00    +0.000 C 
ATOM     19  C   UNL     1       5.504   5.134  15.399  0.00  0.00    +0.000 C 
ATOM     20  C   UNL     1       5.128   6.347  16.241  0.00  0.00    +0.000 C 
ENDBRANCH   5  15
TORSDOF 3
ENDMDL
MODEL 5
REMARK VINA RESULT:      -7.3      4.261      6.058
REMARK  Name = 
REMARK  3 active torsions:
REMARK  status: ('A' for Active; 'I' for Inactive)
REMARK    1  A    between atoms: N_2  and  C_4
REMARK    2  A    between atoms: C_7  and  C_8
REMARK    3  A    between atoms: N_12  and  C_13
REMARK                            x       y       z     vdW  Elec       q    Type
REMARK                         _______ _______ _______ _____ _____    ______ ____
ROOT
ATOM      1  C   UNL     1       3.444   6.386  17.938  0.00  0.00    +0.000 A 
ATOM      2  C   UNL     1       4.730   6.714  17.511  0.00  0.00    +0.000 A 
ATOM      3  N   UNL     1       5.425   5.649  17.047  0.00  0.00    +0.000 NA
ATOM      4  C   UNL     1       4.587   4.652  17.163  0.00  0.00    +0.000 A 
ATOM      5  N   UNL     1       3.351   5.024  17.647  0.00  0.00    +0.000 N 
ENDROOT
BRANCH   1   9
ATOM      6  C   UNL     1       1.066   9.380  19.865  0.00  0.00    +0.000 A 
ATOM      7  C   UNL     1       1.257   9.460  18.480  0.00  0.00    +0.000 A 
ATOM      8  C   UNL     1       1.976   8.458  17.810  0.00  0.00    +0.000 A 
ATOM      9  C   UNL     1       2.483   7.352  18.502  0.00  0.00    +0.000 A 
ATOM     10  C   UNL     1       2.184   7.252  19.880  0.00  0.00    +0.000 A 
ATOM     11  C   UNL     1       1.501   8.260  20.568  0.00  0.00    +0.000 A 
BRANCH   6  13
ATOM     12  O   UNL     1       1.084  10.948  21.575  0.00  0.00    +0.000 OA
ATOM     13  N   UNL     1       0.472  10.510  20.588  0.00  0.00    +0.000 N 
ATOM     14  O   UNL     1      -0.616  10.947  20.185  0.00  0.00    +0.000 OA
ENDBRANCH   6  13
ENDBRANCH   1   9
BRANCH   5  15
ATOM     15  C   UNL     1       2.220   4.105  17.771  0.00  0.00    +0.000 C 
ATOM     16  C   UNL     1       2.574   2.639  17.449  0.00  0.00    +0.000 C 
ATOM     17  C   UNL     1       3.339   1.915  18.559  0.00  0.00    +0.000 C 
ATOM     18  C   UNL     1       2.771   2.131  19.964  0.00  0.00    +0.000 C 
ATOM     19  C   UNL     1       2.233   3.528  20.273  0.00  0.00    +0.000 C 
ATOM     20  C   UNL     1       1.473   4.162  19.113  0.00  0.00    +0.000 C 
ENDBRANCH   5  15
TORSDOF 3
ENDMDL
MODEL 6
REMARK VINA RESULT:      -7.3      0.909      1.319
REMARK  Name = 
REMARK  3 active torsions:
REMARK  status: ('A' for Active; 'I' for Inactive)
REMARK    1  A    between atoms: N_2  and  C_4
REMARK    2  A    between atoms: C_7  and  C_8
REMARK    3  A    between atoms: N_12  and  C_13
REMARK                            x       y       z     vdW  Elec       q    Type
REMARK                         _______ _______ _______ _____ _____    ______ ____
ROOT
ATOM      1  C   UNL     1       3.381   6.181  18.972  0.00  0.00    +0.000 A 
ATOM      2  C   UNL     1       2.760   7.370  19.353  0.00  0.00    +0.000 A 
ATOM      3  N   UNL     1       1.840   7.199  20.333  0.00  0.00    +0.000 NA
ATOM      4  C   UNL     1       1.883   5.917  20.583  0.00  0.00    +0.000 A 
ATOM      5  N   UNL     1       2.824   5.240  19.838  0.00  0.00    +0.000 N 
ENDROOT
BRANCH   1   9
ATOM      6  C   UNL     1       6.193   5.386  15.842  0.00  0.00    +0.000 A 
ATOM      7  C   UNL     1       5.202   6.352  15.628  0.00  0.00    +0.000 A 
ATOM      8  C   UNL     1       4.306   6.682  16.657  0.00  0.00    +0.000 A 
ATOM      9  C   UNL     1       4.407   6.081  17.918  0.00  0.00    +0.000 A 
ATOM     10  C   UNL     1       5.482   5.187  18.129  0.00  0.00    +0.000 A 
ATOM     11  C   UNL     1       6.358   4.822  17.103  0.00  0.00    +0.000 A 
BRANCH   6  13
ATOM     12  O   UNL     1       6.663   3.866  14.154  0.00  0.00    +0.000 OA
ATOM     13  N   UNL     1       7.010   4.915  14.718  0.00  0.00    +0.000 N 
ATOM     14  O   UNL     1       8.010   5.580  14.412  0.00  0.00    +0.000 OA
ENDBRANCH   6  13
ENDBRANCH   1   9
BRANCH   5  15
ATOM     15  C   UNL     1       3.125   3.819  20.012  0.00  0.00    +0.000 C 
ATOM     16  C   UNL     1       2.163   3.094  20.976  0.00  0.00    +0.000 C 
ATOM     17  C   UNL     1       0.792   2.775  20.379  0.00  0.00    +0.000 C 
ATOM     18  C   UNL     1       0.837   2.177  18.970  0.00  0.00    +0.000 C 
ATOM     19  C   UNL     1       1.904   2.737  18.029  0.00  0.00    +0.000 C 
ATOM     20  C   UNL     1       3.239   3.010  18.709  0.00  0.00    +0.000 C 
ENDBRANCH   5  15
TORSDOF 3
ENDMDL
MODEL 7
REMARK VINA RESULT:      -7.3      4.229      6.526
REMARK  Name = 
REMARK  3 active torsions:
REMARK  status: ('A' for Active; 'I' for Inactive)
REMARK    1  A    between atoms: N_2  and  C_4
REMARK    2  A    between atoms: C_7  and  C_8
REMARK    3  A    between atoms: N_12  and  C_13
REMARK                            x       y       z     vdW  Elec       q    Type
REMARK                         _______ _______ _______ _____ _____    ______ ____
ROOT
ATOM      1  C   UNL     1       2.821   5.591  18.130  0.00  0.00    +0.000 A 
ATOM      2  C   UNL     1       2.185   4.383  18.410  0.00  0.00    +0.000 A 
ATOM      3  N   UNL     1       2.714   3.334  17.735  0.00  0.00    +0.000 NA
ATOM      4  C   UNL     1       3.686   3.866  17.041  0.00  0.00    +0.000 A 
ATOM      5  N   UNL     1       3.847   5.216  17.262  0.00  0.00    +0.000 N 
ENDROOT
BRANCH   1   9
ATOM      6  C   UNL     1       1.230   9.294  19.577  0.00  0.00    +0.000 A 
ATOM      7  C   UNL     1       1.525   8.282  20.498  0.00  0.00    +0.000 A 
ATOM      8  C   UNL     1       2.108   7.081  20.063  0.00  0.00    +0.000 A 
ATOM      9  C   UNL     1       2.435   6.889  18.715  0.00  0.00    +0.000 A 
ATOM     10  C   UNL     1       2.218   7.971  17.831  0.00  0.00    +0.000 A 
ATOM     11  C   UNL     1       1.605   9.157  18.243  0.00  0.00    +0.000 A 
BRANCH   6  13
ATOM     12  O   UNL     1       1.076  11.384  20.571  0.00  0.00    +0.000 OA
ATOM     13  N   UNL     1       0.462  10.470  20.002  0.00  0.00    +0.000 N 
ATOM     14  O   UNL     1      -0.760  10.470  19.788  0.00  0.00    +0.000 OA
ENDBRANCH   6  13
ENDBRANCH   1   9
BRANCH   5  15
ATOM     15  C   UNL     1       4.928   6.010  16.677  0.00  0.00    +0.000 C 
ATOM     16  C   UNL     1       5.954   6.518  17.711  0.00  0.00    +0.000 C 
ATOM     17  C   UNL     1       6.939   5.455  18.200  0.00  0.00    +0.000 C 
ATOM     18  C   UNL     1       7.543   4.593  17.088  0.00  0.00    +0.000 C 
ATOM     19  C   UNL     1       6.609   4.215  15.939  0.00  0.00    +0.000 C 
ATOM     20  C   UNL     1       5.675   5.340  15.512  0.00  0.00    +0.000 C 
ENDBRANCH   5  15
TORSDOF 3
ENDMDL
MODEL 8
REMARK VINA RESULT:      -7.2      0.663      1.082
REMARK  Name = 
REMARK  3 active torsions:
REMARK  status: ('A' for Active; 'I' for Inactive)
REMARK    1  A    between atoms: N_2  and  C_4
REMARK    2  A    between atoms: C_7  and  C_8
REMARK    3  A    between atoms: N_12  and  C_13
REMARK                            x       y       z     vdW  Elec       q    Type
REMARK                         _______ _______ _______ _____ _____    ______ ____
ROOT
ATOM      1  C   UNL     1       3.955   5.582  17.904  0.00  0.00    +0.000 A 
ATOM      2  C   UNL     1       3.578   6.875  18.264  0.00  0.00    +0.000 A 
ATOM      3  N   UNL     1       2.589   6.903  19.190  0.00  0.00    +0.000 NA
ATOM      4  C   UNL     1       2.347   5.641  19.428  0.00  0.00    +0.000 A 
ATOM      5  N   UNL     1       3.164   4.780  18.728  0.00  0.00    +0.000 N 
ENDROOT
BRANCH   1   9
ATOM      6  C   UNL     1       6.691   4.972  14.668  0.00  0.00    +0.000 A 
ATOM      7  C   UNL     1       7.138   5.650  15.809  0.00  0.00    +0.000 A 
ATOM      8  C   UNL     1       6.285   5.808  16.912  0.00  0.00    +0.000 A 
ATOM      9  C   UNL     1       4.994   5.267  16.906  0.00  0.00    +0.000 A 
ATOM     10  C   UNL     1       4.613   4.501  15.780  0.00  0.00    +0.000 A 
ATOM     11  C   UNL     1       5.438   4.367  14.660  0.00  0.00    +0.000 A 
BRANCH   6  13
ATOM     12  O   UNL     1       8.502   5.712  13.421  0.00  0.00    +0.000 OA
ATOM     13  N   UNL     1       7.515   4.962  13.453  0.00  0.00    +0.000 N 
ATOM     14  O   UNL     1       7.164   4.221  12.523  0.00  0.00    +0.000 OA
ENDBRANCH   6  13
ENDBRANCH   1   9
BRANCH   5  15
ATOM     15  C   UNL     1       3.148   3.328  18.901  0.00  0.00    +0.000 C 
ATOM     16  C   UNL     1       3.654   2.863  20.282  0.00  0.00    +0.000 C 
ATOM     17  C   UNL     1       2.650   3.053  21.421  0.00  0.00    +0.000 C 
ATOM     18  C   UNL     1       1.225   2.603  21.090  0.00  0.00    +0.000 C 
ATOM     19  C   UNL     1       0.739   2.877  19.666  0.00  0.00    +0.000 C 
ATOM     20  C   UNL     1       1.803   2.646  18.601  0.00  0.00    +0.000 C 
ENDBRANCH   5  15
TORSDOF 3
ENDMDL
MODEL 9
REMARK VINA RESULT:      -7.2      4.254      5.966
REMARK  Name = 
REMARK  3 active torsions:
REMARK  status: ('A' for Active; 'I' for Inactive)
REMARK    1  A    between atoms: N_2  and  C_4
REMARK    2  A    between atoms: C_7  and  C_8
REMARK    3  A    between atoms: N_12  and  C_13
REMARK                            x       y       z     vdW  Elec       q    Type
REMARK                         _______ _______ _______ _____ _____    ______ ____
ROOT
ATOM      1  C   UNL     1       3.050   6.112  18.170  0.00  0.00    +0.000 A 
ATOM      2  C   UNL     1       4.247   6.016  17.463  0.00  0.00    +0.000 A 
ATOM      3  N   UNL     1       4.577   4.741  17.146  0.00  0.00    +0.000 NA
ATOM      4  C   UNL     1       3.594   4.032  17.633  0.00  0.00    +0.000 A 
ATOM      5  N   UNL     1       2.606   4.790  18.224  0.00  0.00    +0.000 N 
ENDROOT
BRANCH   1   9
ATOM      6  C   UNL     1       0.914   9.642  19.316  0.00  0.00    +0.000 A 
ATOM      7  C   UNL     1       1.322   8.749  20.313  0.00  0.00    +0.000 A 
ATOM      8  C   UNL     1       2.081   7.617  19.977  0.00  0.00    +0.000 A 
ATOM      9  C   UNL     1       2.468   7.379  18.653  0.00  0.00    +0.000 A 
ATOM     10  C   UNL     1       2.126   8.355  17.688  0.00  0.00    +0.000 A 
ATOM     11  C   UNL     1       1.341   9.467  18.002  0.00  0.00    +0.000 A 
BRANCH   6  13
ATOM     12  O   UNL     1       0.157  11.343  20.699  0.00  0.00    +0.000 OA
ATOM     13  N   UNL     1      -0.023  10.723  19.640  0.00  0.00    +0.000 N 
ATOM     14  O   UNL     1      -0.953  10.939  18.849  0.00  0.00    +0.000 OA
ENDBRANCH   6  13
ENDBRANCH   1   9
BRANCH   5  15
ATOM     15  C   UNL     1       1.362   4.231  18.751  0.00  0.00    +0.000 C 
ATOM     16  C   UNL     1       1.229   2.708  18.542  0.00  0.00    +0.000 C 
ATOM     17  C   UNL     1       2.067   1.862  19.502  0.00  0.00    +0.000 C 
ATOM     18  C   UNL     1       1.992   2.304  20.966  0.00  0.00    +0.000 C 
ATOM     19  C   UNL     1       1.933   3.811  21.219  0.00  0.00    +0.000 C 
ATOM     20  C   UNL     1       1.064   4.566  20.222  0.00  0.00    +0.000 C 
ENDBRANCH   5  15
TORSDOF 3
ENDMDL
