MODEL 1
REMARK VINA RESULT:      -5.6      0.000      0.000
REMARK  Name = 
REMARK  4 active torsions:
REMARK  status: ('A' for Active; 'I' for Inactive)
REMARK    1  A    between atoms: C_1  and  N_2
REMARK    2  A    between atoms: N_2  and  C_3
REMARK    3  A    between atoms: C_4  and  O_6
REMARK    4  A    between atoms: O_6  and  C_7
REMARK                            x       y       z     vdW  Elec       q    Type
REMARK                         _______ _______ _______ _____ _____    ______ ____
ROOT
ATOM      1  C   UNL     1       4.879   4.064  18.886  0.00  0.00    +0.000 A 
ATOM      2  C   UNL     1       3.901   4.991  18.514  0.00  0.00    +0.000 A 
ATOM      3  C   UNL     1       2.586   4.815  18.941  0.00  0.00    +0.000 A 
ATOM      4  C   UNL     1       2.251   3.701  19.708  0.00  0.00    +0.000 A 
ATOM      5 CL   UNL     1       0.623   3.481  20.219  0.00  0.00    +0.000 Cl
ATOM      6  C   UNL     1       3.222   2.756  20.051  0.00  0.00    +0.000 A 
ATOM      7  C   UNL     1       4.543   2.935  19.634  0.00  0.00    +0.000 A 
ENDROOT
BRANCH   1   8
ATOM      8  O   UNL     1       6.205   4.163  18.425  0.00  0.00    +0.000 OA
BRANCH   8  12
ATOM      9  C   UNL     1       7.901   7.371  18.078  0.00  0.00    +0.000 C 
ATOM     10  N   UNL     1       7.320   6.082  17.768  0.00  0.00    +0.000 N 
ATOM     11  C   UNL     1       6.940   5.778  16.402  0.00  0.00    +0.000 C 
ATOM     12  C   UNL     1       6.958   5.264  18.832  0.00  0.00    +0.000 C 
ATOM     13  O   UNL     1       7.247   5.518  19.997  0.00  0.00    +0.000 OA
ENDBRANCH   8  12
ENDBRANCH   1   8
TORSDOF 2
ENDMDL
MODEL 2
REMARK VINA RESULT:      -5.6      0.149      1.352
REMARK  Name = 
REMARK  4 active torsions:
REMARK  status: ('A' for Active; 'I' for Inactive)
REMARK    1  A    between atoms: C_1  and  N_2
REMARK    2  A    between atoms: N_2  and  C_3
REMARK    3  A    between atoms: C_4  and  O_6
REMARK    4  A    between atoms: O_6  and  C_7
REMARK                            x       y       z     vdW  Elec       q    Type
REMARK                         _______ _______ _______ _____ _____    ______ ____
ROOT
ATOM      1  C   UNL     1       4.903   3.978  18.823  0.00  0.00    +0.000 A 
ATOM      2  C   UNL     1       4.488   2.925  19.642  0.00  0.00    +0.000 A 
ATOM      3  C   UNL     1       3.170   2.877  20.091  0.00  0.00    +0.000 A 
ATOM      4  C   UNL     1       2.284   3.895  19.745  0.00  0.00    +0.000 A 
ATOM      5 CL   UNL     1       0.661   3.839  20.314  0.00  0.00    +0.000 Cl
ATOM      6  C   UNL     1       2.707   4.966  18.953  0.00  0.00    +0.000 A 
ATOM      7  C   UNL     1       4.025   5.012  18.493  0.00  0.00    +0.000 A 
ENDROOT
BRANCH   1   8
ATOM      8  O   UNL     1       6.239   4.105  18.400  0.00  0.00    +0.000 OA
BRANCH   8  12
ATOM      9  C   UNL     1       7.848   7.356  18.042  0.00  0.00    +0.000 C 
ATOM     10  N   UNL     1       7.312   6.046  17.739  0.00  0.00    +0.000 N 
ATOM     11  C   UNL     1       6.974   5.709  16.370  0.00  0.00    +0.000 C 
ATOM     12  C   UNL     1       6.949   5.234  18.807  0.00  0.00    +0.000 C 
ATOM     13  O   UNL     1       7.203   5.514  19.975  0.00  0.00    +0.000 OA
ENDBRANCH   8  12
ENDBRANCH   1   8
TORSDOF 2
ENDMDL
MODEL 3
REMARK VINA RESULT:      -5.5      1.513      1.928
REMARK  Name = 
REMARK  4 active torsions:
REMARK  status: ('A' for Active; 'I' for Inactive)
REMARK    1  A    between atoms: C_1  and  N_2
REMARK    2  A    between atoms: N_2  and  C_3
REMARK    3  A    between atoms: C_4  and  O_6
REMARK    4  A    between atoms: O_6  and  C_7
REMARK                            x       y       z     vdW  Elec       q    Type
REMARK                         _______ _______ _______ _____ _____    ______ ____
ROOT
ATOM      1  C   UNL     1       4.864   4.304  17.815  0.00  0.00    +0.000 A 
ATOM      2  C   UNL     1       3.946   3.796  16.891  0.00  0.00    +0.000 A 
ATOM      3  C   UNL     1       2.695   3.363  17.326  0.00  0.00    +0.000 A 
ATOM      4  C   UNL     1       2.381   3.409  18.683  0.00  0.00    +0.000 A 
ATOM      5 CL   UNL     1       0.842   2.859  19.218  0.00  0.00    +0.000 Cl
ATOM      6  C   UNL     1       3.311   3.885  19.612  0.00  0.00    +0.000 A 
ATOM      7  C   UNL     1       4.561   4.331  19.177  0.00  0.00    +0.000 A 
ENDROOT
BRANCH   1   8
ATOM      8  O   UNL     1       6.161   4.691  17.432  0.00  0.00    +0.000 OA
BRANCH   8  12
ATOM      9  C   UNL     1       7.752   7.966  17.599  0.00  0.00    +0.000 C 
ATOM     10  N   UNL     1       7.271   6.651  17.964  0.00  0.00    +0.000 N 
ATOM     11  C   UNL     1       7.887   5.945  19.071  0.00  0.00    +0.000 C 
ATOM     12  C   UNL     1       6.374   6.030  17.104  0.00  0.00    +0.000 C 
ATOM     13  O   UNL     1       5.861   6.602  16.146  0.00  0.00    +0.000 OA
ENDBRANCH   8  12
ENDBRANCH   1   8
TORSDOF 2
ENDMDL
MODEL 4
REMARK VINA RESULT:      -5.4      3.937      5.559
REMARK  Name = 
REMARK  4 active torsions:
REMARK  status: ('A' for Active; 'I' for Inactive)
REMARK    1  A    between atoms: C_1  and  N_2
REMARK    2  A    between atoms: N_2  and  C_3
REMARK    3  A    between atoms: C_4  and  O_6
REMARK    4  A    between atoms: O_6  and  C_7
REMARK                            x       y       z     vdW  Elec       q    Type
REMARK                         _______ _______ _______ _____ _____    ______ ____
ROOT
ATOM      1  C   UNL     1       3.141   4.906  17.732  0.00  0.00    +0.000 A 
ATOM      2  C   UNL     1       3.715   3.757  17.181  0.00  0.00    +0.000 A 
ATOM      3  C   UNL     1       4.923   3.851  16.492  0.00  0.00    +0.000 A 
ATOM      4  C   UNL     1       5.532   5.094  16.330  0.00  0.00    +0.000 A 
ATOM      5 CL   UNL     1       7.014   5.207  15.465  0.00  0.00    +0.000 Cl
ATOM      6  C   UNL     1       4.940   6.248  16.851  0.00  0.00    +0.000 A 
ATOM      7  C   UNL     1       3.736   6.156  17.552  0.00  0.00    +0.000 A 
ENDROOT
BRANCH   1   8
ATOM      8  O   UNL     1       1.891   4.871  18.378  0.00  0.00    +0.000 OA
BRANCH   8  12
ATOM      9  C   UNL     1       1.383   2.772  21.314  0.00  0.00    +0.000 C 
ATOM     10  N   UNL     1       1.268   3.322  19.981  0.00  0.00    +0.000 N 
ATOM     11  C   UNL     1       0.735   2.501  18.911  0.00  0.00    +0.000 C 
ATOM     12  C   UNL     1       1.866   4.552  19.735  0.00  0.00    +0.000 C 
ATOM     13  O   UNL     1       2.347   5.250  20.624  0.00  0.00    +0.000 OA
ENDBRANCH   8  12
ENDBRANCH   1   8
TORSDOF 2
ENDMDL
MODEL 5
REMARK VINA RESULT:      -5.4      3.820      5.804
REMARK  Name = 
REMARK  4 active torsions:
REMARK  status: ('A' for Active; 'I' for Inactive)
REMARK    1  A    between atoms: C_1  and  N_2
REMARK    2  A    between atoms: N_2  and  C_3
REMARK    3  A    between atoms: C_4  and  O_6
REMARK    4  A    between atoms: O_6  and  C_7
REMARK                            x       y       z     vdW  Elec       q    Type
REMARK                         _______ _______ _______ _____ _____    ______ ____
ROOT
ATOM      1  C   UNL     1       4.107   4.975  17.367  0.00  0.00    +0.000 A 
ATOM      2  C   UNL     1       4.616   3.773  16.868  0.00  0.00    +0.000 A 
ATOM      3  C   UNL     1       5.566   3.795  15.848  0.00  0.00    +0.000 A 
ATOM      4  C   UNL     1       5.977   5.015  15.313  0.00  0.00    +0.000 A 
ATOM      5 CL   UNL     1       7.138   5.037  14.044  0.00  0.00    +0.000 Cl
ATOM      6  C   UNL     1       5.444   6.216  15.789  0.00  0.00    +0.000 A 
ATOM      7  C   UNL     1       4.500   6.197  16.818  0.00  0.00    +0.000 A 
ENDROOT
BRANCH   1   8
ATOM      8  O   UNL     1       3.099   5.001  18.349  0.00  0.00    +0.000 OA
BRANCH   8  12
ATOM      9  C   UNL     1       0.686   2.416  19.231  0.00  0.00    +0.000 C 
ATOM     10  N   UNL     1       1.903   3.196  19.164  0.00  0.00    +0.000 N 
ATOM     11  C   UNL     1       2.877   3.096  20.235  0.00  0.00    +0.000 C 
ATOM     12  C   UNL     1       1.996   4.167  18.175  0.00  0.00    +0.000 C 
ATOM     13  O   UNL     1       1.169   4.284  17.275  0.00  0.00    +0.000 OA
ENDBRANCH   8  12
ENDBRANCH   1   8
TORSDOF 2
ENDMDL
MODEL 6
REMARK VINA RESULT:      -5.4      3.403      5.271
REMARK  Name = 
REMARK  4 active torsions:
REMARK  status: ('A' for Active; 'I' for Inactive)
REMARK    1  A    between atoms: C_1  and  N_2
REMARK    2  A    between atoms: N_2  and  C_3
REMARK    3  A    between atoms: C_4  and  O_6
REMARK    4  A    between atoms: O_6  and  C_7
REMARK                            x       y       z     vdW  Elec       q    Type
REMARK                         _______ _______ _______ _____ _____    ______ ____
ROOT
ATOM      1  C   UNL     1       5.471   4.693  17.739  0.00  0.00    +0.000 A 
ATOM      2  C   UNL     1       6.824   4.663  18.085  0.00  0.00    +0.000 A 
ATOM      3  C   UNL     1       7.576   5.836  18.034  0.00  0.00    +0.000 A 
ATOM      4  C   UNL     1       6.980   7.021  17.609  0.00  0.00    +0.000 A 
ATOM      5 CL   UNL     1       7.916   8.463  17.534  0.00  0.00    +0.000 Cl
ATOM      6  C   UNL     1       5.635   7.045  17.231  0.00  0.00    +0.000 A 
ATOM      7  C   UNL     1       4.876   5.874  17.291  0.00  0.00    +0.000 A 
ENDROOT
BRANCH   1   8
ATOM      8  O   UNL     1       4.688   3.524  17.711  0.00  0.00    +0.000 OA
BRANCH   8  12
ATOM      9  C   UNL     1       2.053   2.467  19.996  0.00  0.00    +0.000 C 
ATOM     10  N   UNL     1       2.749   3.116  18.905  0.00  0.00    +0.000 N 
ATOM     11  C   UNL     1       2.000   3.585  17.756  0.00  0.00    +0.000 C 
ATOM     12  C   UNL     1       4.138   3.077  18.911  0.00  0.00    +0.000 C 
ATOM     13  O   UNL     1       4.790   2.659  19.864  0.00  0.00    +0.000 OA
ENDBRANCH   8  12
ENDBRANCH   1   8
TORSDOF 2
ENDMDL
MODEL 7
REMARK VINA RESULT:      -5.4      3.921      5.422
REMARK  Name = 
REMARK  4 active torsions:
REMARK  status: ('A' for Active; 'I' for Inactive)
REMARK    1  A    between atoms: C_1  and  N_2
REMARK    2  A    between atoms: N_2  and  C_3
REMARK    3  A    between atoms: C_4  and  O_6
REMARK    4  A    between atoms: O_6  and  C_7
REMARK                            x       y       z     vdW  Elec       q    Type
REMARK                         _______ _______ _______ _____ _____    ______ ____
ROOT
ATOM      1  C   UNL     1       3.003   4.998  17.763  0.00  0.00    +0.000 A 
ATOM      2  C   UNL     1       3.661   6.229  17.696  0.00  0.00    +0.000 A 
ATOM      3  C   UNL     1       4.901   6.316  17.064  0.00  0.00    +0.000 A 
ATOM      4  C   UNL     1       5.487   5.169  16.532  0.00  0.00    +0.000 A 
ATOM      5 CL   UNL     1       7.024   5.279  15.766  0.00  0.00    +0.000 Cl
ATOM      6  C   UNL     1       4.845   3.932  16.629  0.00  0.00    +0.000 A 
ATOM      7  C   UNL     1       3.598   3.844  17.251  0.00  0.00    +0.000 A 
ENDROOT
BRANCH   1   8
ATOM      8  O   UNL     1       1.783   4.849  18.448  0.00  0.00    +0.000 OA
BRANCH   8  12
ATOM      9  C   UNL     1       1.457   2.709  21.380  0.00  0.00    +0.000 C 
ATOM     10  N   UNL     1       1.267   3.271  20.060  0.00  0.00    +0.000 N 
ATOM     11  C   UNL     1       0.700   2.451  19.008  0.00  0.00    +0.000 C 
ATOM     12  C   UNL     1       1.829   4.515  19.801  0.00  0.00    +0.000 C 
ATOM     13  O   UNL     1       2.338   5.213  20.673  0.00  0.00    +0.000 OA
ENDBRANCH   8  12
ENDBRANCH   1   8
TORSDOF 2
ENDMDL
MODEL 8
REMARK VINA RESULT:      -5.4      1.478      2.003
REMARK  Name = 
REMARK  4 active torsions:
REMARK  status: ('A' for Active; 'I' for Inactive)
REMARK    1  A    between atoms: C_1  and  N_2
REMARK    2  A    between atoms: N_2  and  C_3
REMARK    3  A    between atoms: C_4  and  O_6
REMARK    4  A    between atoms: O_6  and  C_7
REMARK                            x       y       z     vdW  Elec       q    Type
REMARK                         _______ _______ _______ _____ _____    ______ ____
ROOT
ATOM      1  C   UNL     1       4.871   4.471  17.943  0.00  0.00    +0.000 A 
ATOM      2  C   UNL     1       4.547   4.801  19.262  0.00  0.00    +0.000 A 
ATOM      3  C   UNL     1       3.288   4.478  19.765  0.00  0.00    +0.000 A 
ATOM      4  C   UNL     1       2.352   3.857  18.939  0.00  0.00    +0.000 A 
ATOM      5 CL   UNL     1       0.794   3.474  19.560  0.00  0.00    +0.000 Cl
ATOM      6  C   UNL     1       2.665   3.558  17.610  0.00  0.00    +0.000 A 
ATOM      7  C   UNL     1       3.929   3.870  17.107  0.00  0.00    +0.000 A 
ENDROOT
BRANCH   1   8
ATOM      8  O   UNL     1       6.105   4.836  17.372  0.00  0.00    +0.000 OA
BRANCH   8  12
ATOM      9  C   UNL     1       7.751   8.081  17.572  0.00  0.00    +0.000 C 
ATOM     10  N   UNL     1       7.272   6.759  17.913  0.00  0.00    +0.000 N 
ATOM     11  C   UNL     1       7.938   6.004  18.957  0.00  0.00    +0.000 C 
ATOM     12  C   UNL     1       6.318   6.183  17.083  0.00  0.00    +0.000 C 
ATOM     13  O   UNL     1       5.762   6.798  16.178  0.00  0.00    +0.000 OA
ENDBRANCH   8  12
ENDBRANCH   1   8
TORSDOF 2
ENDMDL
MODEL 9
REMARK VINA RESULT:      -5.4      1.948      2.588
REMARK  Name = 
REMARK  4 active torsions:
REMARK  status: ('A' for Active; 'I' for Inactive)
REMARK    1  A    between atoms: C_1  and  N_2
REMARK    2  A    between atoms: N_2  and  C_3
REMARK    3  A    between atoms: C_4  and  O_6
REMARK    4  A    between atoms: O_6  and  C_7
REMARK                            x       y       z     vdW  Elec       q    Type
REMARK                         _______ _______ _______ _____ _____    ______ ____
ROOT
ATOM      1  C   UNL     1       4.178   5.451  18.126  0.00  0.00    +0.000 A 
ATOM      2  C   UNL     1       3.651   4.390  17.384  0.00  0.00    +0.000 A 
ATOM      3  C   UNL     1       2.552   3.685  17.872  0.00  0.00    +0.000 A 
ATOM      4  C   UNL     1       2.008   4.023  19.110  0.00  0.00    +0.000 A 
ATOM      5 CL   UNL     1       0.661   3.140  19.715  0.00  0.00    +0.000 Cl
ATOM      6  C   UNL     1       2.556   5.061  19.867  0.00  0.00    +0.000 A 
ATOM      7  C   UNL     1       3.651   5.777  19.376  0.00  0.00    +0.000 A 
ENDROOT
BRANCH   1   8
ATOM      8  O   UNL     1       5.326   6.148  17.706  0.00  0.00    +0.000 OA
BRANCH   8  12
ATOM      9  C   UNL     1       7.058   4.919  14.744  0.00  0.00    +0.000 C 
ATOM     10  N   UNL     1       6.749   5.247  16.119  0.00  0.00    +0.000 N 
ATOM     11  C   UNL     1       7.418   4.536  17.192  0.00  0.00    +0.000 C 
ATOM     12  C   UNL     1       5.670   6.088  16.356  0.00  0.00    +0.000 C 
ATOM     13  O   UNL     1       5.074   6.679  15.459  0.00  0.00    +0.000 OA
ENDBRANCH   8  12
ENDBRANCH   1   8
TORSDOF 2
ENDMDL
