MODEL 1
REMARK VINA RESULT:      -8.6      0.000      0.000
REMARK  Name = 
REMARK  6 active torsions:
REMARK  status: ('A' for Active; 'I' for Inactive)
REMARK    1  A    between atoms: C_1  and  N_2
REMARK    2  A    between atoms: C_7  and  C_8
REMARK    3  A    between atoms: C_8  and  N_9
REMARK    4  A    between atoms: N_9  and  C_10
REMARK    5  A    between atoms: C_10  and  C_11
REMARK    6  A    between atoms: N_20  and  C_21
REMARK                            x       y       z     vdW  Elec       q    Type
REMARK                         _______ _______ _______ _____ _____    ______ ____
ROOT
ATOM      1  C   UNL     1       8.239   6.983  18.486  0.00  0.00    +0.000 C 
ATOM      2  N   UNL     1       7.276   5.986  18.067  0.00  0.00    +0.000 N 
ATOM      3  C   UNL     1       6.658   5.216  19.069  0.00  0.00    +0.000 A 
ATOM      4  O   UNL     1       6.877   5.346  20.272  0.00  0.00    +0.000 OA
ATOM      5  C   UNL     1       5.733   4.237  18.542  0.00  0.00    +0.000 A 
ATOM      6  N   UNL     1       4.968   3.315  19.217  0.00  0.00    +0.000 NA
ATOM      7  C   UNL     1       4.305   2.659  18.280  0.00  0.00    +0.000 A 
ATOM      8  N   UNL     1       4.617   3.141  17.026  0.00  0.00    +0.000 N 
ATOM      9  C   UNL     1       5.524   4.144  17.195  0.00  0.00    +0.000 A 
ATOM     10  N   UNL     1       6.126   4.926  16.236  0.00  0.00    +0.000 N 
ATOM     11  C   UNL     1       5.884   4.830  14.809  0.00  0.00    +0.000 C 
ATOM     12  C   UNL     1       7.049   5.891  16.679  0.00  0.00    +0.000 A 
ATOM     13  O   UNL     1       7.635   6.625  15.875  0.00  0.00    +0.000 OA
ATOM     14  H   UNL     1       4.221   2.813  16.158  0.00  0.00    +0.000 HD
ENDROOT
BRANCH   7  15
ATOM     15  C   UNL     1       3.284   1.586  18.489  0.00  0.00    +0.000 C 
BRANCH  15  16
ATOM     16  N   UNL     1       2.045   1.838  17.746  0.00  0.00    +0.000 NA
ATOM     17  H   UNL     1       1.658   0.923  17.496  0.00  0.00    +0.000 HD
BRANCH  16  18
ATOM     18  C   UNL     1       1.039   2.539  18.553  0.00  0.00    +0.000 C 
BRANCH  18  19
ATOM     19  C   UNL     1       1.471   3.933  18.957  0.00  0.00    +0.000 A 
ATOM     20  C   UNL     1       1.791   4.893  17.979  0.00  0.00    +0.000 A 
ATOM     21  C   UNL     1       2.197   6.180  18.333  0.00  0.00    +0.000 A 
ATOM     22  C   UNL     1       2.313   6.528  19.675  0.00  0.00    +0.000 A 
ATOM     23  C   UNL     1       2.035   5.585  20.661  0.00  0.00    +0.000 A 
ATOM     24  C   UNL     1       1.625   4.295  20.308  0.00  0.00    +0.000 A 
ATOM     25 CL   UNL     1       1.335   3.180  21.600  0.00  0.00    +0.000 Cl
ENDBRANCH  18  19
ENDBRANCH  16  18
ENDBRANCH  15  16
ENDBRANCH   7  15
TORSDOF 4
ENDMDL
MODEL 2
REMARK VINA RESULT:      -7.3      2.711      6.182
REMARK  Name = 
REMARK  6 active torsions:
REMARK  status: ('A' for Active; 'I' for Inactive)
REMARK    1  A    between atoms: C_1  and  N_2
REMARK    2  A    between atoms: C_7  and  C_8
REMARK    3  A    between atoms: C_8  and  N_9
REMARK    4  A    between atoms: N_9  and  C_10
REMARK    5  A    between atoms: C_10  and  C_11
REMARK    6  A    between atoms: N_20  and  C_21
REMARK                            x       y       z     vdW  Elec       q    Type
REMARK                         _______ _______ _______ _____ _____    ______ ____
ROOT
ATOM      1  C   UNL     1       0.698   4.689  20.438  0.00  0.00    +0.000 C 
ATOM      2  N   UNL     1       2.027   4.344  19.975  0.00  0.00    +0.000 N 
ATOM      3  C   UNL     1       2.949   5.393  19.803  0.00  0.00    +0.000 A 
ATOM      4  O   UNL     1       2.699   6.575  20.031  0.00  0.00    +0.000 OA
ATOM      5  C   UNL     1       4.235   4.944  19.318  0.00  0.00    +0.000 A 
ATOM      6  N   UNL     1       5.358   5.681  19.026  0.00  0.00    +0.000 NA
ATOM      7  C   UNL     1       6.255   4.802  18.614  0.00  0.00    +0.000 A 
ATOM      8  N   UNL     1       5.741   3.523  18.642  0.00  0.00    +0.000 N 
ATOM      9  C   UNL     1       4.457   3.614  19.090  0.00  0.00    +0.000 A 
ATOM     10  N   UNL     1       3.544   2.605  19.288  0.00  0.00    +0.000 N 
ATOM     11  C   UNL     1       3.796   1.195  19.060  0.00  0.00    +0.000 C 
ATOM     12  C   UNL     1       2.266   2.974  19.747  0.00  0.00    +0.000 A 
ATOM     13  O   UNL     1       1.391   2.123  19.941  0.00  0.00    +0.000 OA
ATOM     14  H   UNL     1       6.244   2.684  18.393  0.00  0.00    +0.000 HD
ENDROOT
BRANCH   7  15
ATOM     15  C   UNL     1       7.675   5.080  18.231  0.00  0.00    +0.000 C 
BRANCH  15  16
ATOM     16  N   UNL     1       7.929   4.846  16.807  0.00  0.00    +0.000 NA
ATOM     17  H   UNL     1       7.773   3.848  16.637  0.00  0.00    +0.000 HD
BRANCH  16  18
ATOM     18  C   UNL     1       7.005   5.592  15.941  0.00  0.00    +0.000 C 
BRANCH  18  19
ATOM     19  C   UNL     1       6.754   4.907  14.615  0.00  0.00    +0.000 A 
ATOM     20  C   UNL     1       7.638   5.096  13.536  0.00  0.00    +0.000 A 
ATOM     21  C   UNL     1       7.419   4.478  12.304  0.00  0.00    +0.000 A 
ATOM     22  C   UNL     1       6.298   3.675  12.118  0.00  0.00    +0.000 A 
ATOM     23  C   UNL     1       5.392   3.501  13.160  0.00  0.00    +0.000 A 
ATOM     24  C   UNL     1       5.610   4.118  14.397  0.00  0.00    +0.000 A 
ATOM     25 CL   UNL     1       4.412   3.873  15.621  0.00  0.00    +0.000 Cl
ENDBRANCH  18  19
ENDBRANCH  16  18
ENDBRANCH  15  16
ENDBRANCH   7  15
TORSDOF 4
ENDMDL
MODEL 3
REMARK VINA RESULT:      -7.1      4.556      6.791
REMARK  Name = 
REMARK  6 active torsions:
REMARK  status: ('A' for Active; 'I' for Inactive)
REMARK    1  A    between atoms: C_1  and  N_2
REMARK    2  A    between atoms: C_7  and  C_8
REMARK    3  A    between atoms: C_8  and  N_9
REMARK    4  A    between atoms: N_9  and  C_10
REMARK    5  A    between atoms: C_10  and  C_11
REMARK    6  A    between atoms: N_20  and  C_21
REMARK                            x       y       z     vdW  Elec       q    Type
REMARK                         _______ _______ _______ _____ _____    ______ ____
ROOT
ATOM      1  C   UNL     1       0.627  12.265  18.872  0.00  0.00    +0.000 C 
ATOM      2  N   UNL     1       0.920  10.971  19.453  0.00  0.00    +0.000 N 
ATOM      3  C   UNL     1       1.544  10.015  18.632  0.00  0.00    +0.000 A 
ATOM      4  O   UNL     1       1.865  10.215  17.462  0.00  0.00    +0.000 OA
ATOM      5  C   UNL     1       1.770   8.754  19.302  0.00  0.00    +0.000 A 
ATOM      6  N   UNL     1       2.339   7.601  18.813  0.00  0.00    +0.000 NA
ATOM      7  C   UNL     1       2.304   6.742  19.817  0.00  0.00    +0.000 A 
ATOM      8  N   UNL     1       1.737   7.314  20.937  0.00  0.00    +0.000 N 
ATOM      9  C   UNL     1       1.399   8.593  20.608  0.00  0.00    +0.000 A 
ATOM     10  N   UNL     1       0.808   9.553  21.396  0.00  0.00    +0.000 N 
ATOM     11  C   UNL     1       0.434   9.378  22.786  0.00  0.00    +0.000 C 
ATOM     12  C   UNL     1       0.548  10.802  20.802  0.00  0.00    +0.000 A 
ATOM     13  O   UNL     1       0.012  11.711  21.446  0.00  0.00    +0.000 OA
ATOM     14  H   UNL     1       1.621   6.862  21.832  0.00  0.00    +0.000 HD
ENDROOT
BRANCH   7  15
ATOM     15  C   UNL     1       2.857   5.352  19.829  0.00  0.00    +0.000 C 
BRANCH  15  16
ATOM     16  N   UNL     1       2.863   4.738  18.497  0.00  0.00    +0.000 NA
ATOM     17  H   UNL     1       3.008   5.495  17.823  0.00  0.00    +0.000 HD
BRANCH  16  18
ATOM     18  C   UNL     1       3.959   3.776  18.327  0.00  0.00    +0.000 C 
BRANCH  18  19
ATOM     19  C   UNL     1       5.007   4.242  17.339  0.00  0.00    +0.000 A 
ATOM     20  C   UNL     1       4.895   3.917  15.974  0.00  0.00    +0.000 A 
ATOM     21  C   UNL     1       5.855   4.332  15.050  0.00  0.00    +0.000 A 
ATOM     22  C   UNL     1       6.961   5.063  15.475  0.00  0.00    +0.000 A 
ATOM     23  C   UNL     1       7.110   5.367  16.826  0.00  0.00    +0.000 A 
ATOM     24  C   UNL     1       6.148   4.953  17.754  0.00  0.00    +0.000 A 
ATOM     25 CL   UNL     1       6.436   5.347  19.414  0.00  0.00    +0.000 Cl
ENDBRANCH  18  19
ENDBRANCH  16  18
ENDBRANCH  15  16
ENDBRANCH   7  15
TORSDOF 4
ENDMDL
MODEL 4
REMARK VINA RESULT:      -7.1      4.449      5.971
REMARK  Name = 
REMARK  6 active torsions:
REMARK  status: ('A' for Active; 'I' for Inactive)
REMARK    1  A    between atoms: C_1  and  N_2
REMARK    2  A    between atoms: C_7  and  C_8
REMARK    3  A    between atoms: C_8  and  N_9
REMARK    4  A    between atoms: N_9  and  C_10
REMARK    5  A    between atoms: C_10  and  C_11
REMARK    6  A    between atoms: N_20  and  C_21
REMARK                            x       y       z     vdW  Elec       q    Type
REMARK                         _______ _______ _______ _____ _____    ______ ____
ROOT
ATOM      1  C   UNL     1       6.928   4.555  17.552  0.00  0.00    +0.000 C 
ATOM      2  N   UNL     1       5.681   5.205  17.897  0.00  0.00    +0.000 N 
ATOM      3  C   UNL     1       5.328   6.361  17.177  0.00  0.00    +0.000 A 
ATOM      4  O   UNL     1       6.005   6.841  16.270  0.00  0.00    +0.000 OA
ATOM      5  C   UNL     1       4.079   6.942  17.615  0.00  0.00    +0.000 A 
ATOM      6  N   UNL     1       3.437   8.067  17.154  0.00  0.00    +0.000 NA
ATOM      7  C   UNL     1       2.342   8.170  17.888  0.00  0.00    +0.000 A 
ATOM      8  N   UNL     1       2.260   7.138  18.799  0.00  0.00    +0.000 N 
ATOM      9  C   UNL     1       3.365   6.358  18.624  0.00  0.00    +0.000 A 
ATOM     10  N   UNL     1       3.722   5.214  19.298  0.00  0.00    +0.000 N 
ATOM     11  C   UNL     1       2.949   4.592  20.356  0.00  0.00    +0.000 C 
ATOM     12  C   UNL     1       4.935   4.603  18.931  0.00  0.00    +0.000 A 
ATOM     13  O   UNL     1       5.326   3.576  19.497  0.00  0.00    +0.000 OA
ATOM     14  H   UNL     1       1.505   6.991  19.452  0.00  0.00    +0.000 HD
ENDROOT
BRANCH   7  15
ATOM     15  C   UNL     1       1.260   9.194  17.748  0.00  0.00    +0.000 C 
BRANCH  15  16
ATOM     16  N   UNL     1       1.392  10.287  18.715  0.00  0.00    +0.000 NA
ATOM     17  H   UNL     1       1.932  11.027  18.256  0.00  0.00    +0.000 HD
BRANCH  16  18
ATOM     18  C   UNL     1       0.095  10.858  19.099  0.00  0.00    +0.000 C 
BRANCH  18  19
ATOM     19  C   UNL     1      -0.232  10.655  20.563  0.00  0.00    +0.000 A 
ATOM     20  C   UNL     1       0.020   9.418  21.185  0.00  0.00    +0.000 A 
ATOM     21  C   UNL     1      -0.281   9.212  22.532  0.00  0.00    +0.000 A 
ATOM     22  C   UNL     1      -0.861  10.231  23.281  0.00  0.00    +0.000 A 
ATOM     23  C   UNL     1      -1.150  11.452  22.678  0.00  0.00    +0.000 A 
ATOM     24  C   UNL     1      -0.847  11.663  21.328  0.00  0.00    +0.000 A 
ATOM     25 CL   UNL     1      -1.275  13.199  20.656  0.00  0.00    +0.000 Cl
ENDBRANCH  18  19
ENDBRANCH  16  18
ENDBRANCH  15  16
ENDBRANCH   7  15
TORSDOF 4
ENDMDL
MODEL 5
REMARK VINA RESULT:      -7.0      1.276      1.626
REMARK  Name = 
REMARK  6 active torsions:
REMARK  status: ('A' for Active; 'I' for Inactive)
REMARK    1  A    between atoms: C_1  and  N_2
REMARK    2  A    between atoms: C_7  and  C_8
REMARK    3  A    between atoms: C_8  and  N_9
REMARK    4  A    between atoms: N_9  and  C_10
REMARK    5  A    between atoms: C_10  and  C_11
REMARK    6  A    between atoms: N_20  and  C_21
REMARK                            x       y       z     vdW  Elec       q    Type
REMARK                         _______ _______ _______ _____ _____    ______ ____
ROOT
ATOM      1  C   UNL     1       8.081   6.909  17.985  0.00  0.00    +0.000 C 
ATOM      2  N   UNL     1       7.114   5.846  17.803  0.00  0.00    +0.000 N 
ATOM      3  C   UNL     1       6.499   5.321  18.954  0.00  0.00    +0.000 A 
ATOM      4  O   UNL     1       6.722   5.717  20.096  0.00  0.00    +0.000 OA
ATOM      5  C   UNL     1       5.570   4.252  18.662  0.00  0.00    +0.000 A 
ATOM      6  N   UNL     1       4.806   3.506  19.529  0.00  0.00    +0.000 NA
ATOM      7  C   UNL     1       4.139   2.659  18.765  0.00  0.00    +0.000 A 
ATOM      8  N   UNL     1       4.446   2.847  17.434  0.00  0.00    +0.000 N 
ATOM      9  C   UNL     1       5.356   3.860  17.370  0.00  0.00    +0.000 A 
ATOM     10  N   UNL     1       5.955   4.405  16.259  0.00  0.00    +0.000 N 
ATOM     11  C   UNL     1       5.708   3.994  14.891  0.00  0.00    +0.000 C 
ATOM     12  C   UNL     1       6.881   5.443  16.472  0.00  0.00    +0.000 A 
ATOM     13  O   UNL     1       7.466   5.977  15.522  0.00  0.00    +0.000 OA
ATOM     14  H   UNL     1       4.047   2.334  16.662  0.00  0.00    +0.000 HD
ENDROOT
BRANCH   7  15
ATOM     15  C   UNL     1       3.116   1.662  19.211  0.00  0.00    +0.000 C 
BRANCH  15  16
ATOM     16  N   UNL     1       2.291   2.159  20.316  0.00  0.00    +0.000 NA
ATOM     17  H   UNL     1       2.898   2.740  20.902  0.00  0.00    +0.000 HD
BRANCH  16  18
ATOM     18  C   UNL     1       1.182   3.004  19.854  0.00  0.00    +0.000 C 
BRANCH  18  19
ATOM     19  C   UNL     1       1.576   4.454  19.677  0.00  0.00    +0.000 A 
ATOM     20  C   UNL     1       1.740   5.291  20.798  0.00  0.00    +0.000 A 
ATOM     21  C   UNL     1       2.097   6.632  20.653  0.00  0.00    +0.000 A 
ATOM     22  C   UNL     1       2.276   7.172  19.384  0.00  0.00    +0.000 A 
ATOM     23  C   UNL     1       2.086   6.373  18.260  0.00  0.00    +0.000 A 
ATOM     24  C   UNL     1       1.730   5.027  18.401  0.00  0.00    +0.000 A 
ATOM     25 CL   UNL     1       1.481   4.122  16.948  0.00  0.00    +0.000 Cl
ENDBRANCH  18  19
ENDBRANCH  16  18
ENDBRANCH  15  16
ENDBRANCH   7  15
TORSDOF 4
ENDMDL
MODEL 6
REMARK VINA RESULT:      -6.9      5.112      6.405
REMARK  Name = 
REMARK  6 active torsions:
REMARK  status: ('A' for Active; 'I' for Inactive)
REMARK    1  A    between atoms: C_1  and  N_2
REMARK    2  A    between atoms: C_7  and  C_8
REMARK    3  A    between atoms: C_8  and  N_9
REMARK    4  A    between atoms: N_9  and  C_10
REMARK    5  A    between atoms: C_10  and  C_11
REMARK    6  A    between atoms: N_20  and  C_21
REMARK                            x       y       z     vdW  Elec       q    Type
REMARK                         _______ _______ _______ _____ _____    ______ ____
ROOT
ATOM      1  C   UNL     1       5.830   4.034  16.016  0.00  0.00    +0.000 C 
ATOM      2  N   UNL     1       4.798   4.753  16.733  0.00  0.00    +0.000 N 
ATOM      3  C   UNL     1       4.787   6.156  16.626  0.00  0.00    +0.000 A 
ATOM      4  O   UNL     1       5.589   6.802  15.954  0.00  0.00    +0.000 OA
ATOM      5  C   UNL     1       3.732   6.775  17.397  0.00  0.00    +0.000 A 
ATOM      6  N   UNL     1       3.430   8.109  17.538  0.00  0.00    +0.000 NA
ATOM      7  C   UNL     1       2.387   8.146  18.350  0.00  0.00    +0.000 A 
ATOM      8  N   UNL     1       2.009   6.875  18.726  0.00  0.00    +0.000 N 
ATOM      9  C   UNL     1       2.864   6.004  18.119  0.00  0.00    +0.000 A 
ATOM     10  N   UNL     1       2.883   4.631  18.190  0.00  0.00    +0.000 N 
ATOM     11  C   UNL     1       1.947   3.821  18.945  0.00  0.00    +0.000 C 
ATOM     12  C   UNL     1       3.893   3.963  17.472  0.00  0.00    +0.000 A 
ATOM     13  O   UNL     1       3.978   2.730  17.494  0.00  0.00    +0.000 OA
ATOM     14  H   UNL     1       1.228   6.648  19.323  0.00  0.00    +0.000 HD
ENDROOT
BRANCH   7  15
ATOM     15  C   UNL     1       1.627   9.361  18.779  0.00  0.00    +0.000 C 
BRANCH  15  16
ATOM     16  N   UNL     1       0.455   9.617  17.936  0.00  0.00    +0.000 NA
ATOM     17  H   UNL     1      -0.052   8.731  17.856  0.00  0.00    +0.000 HD
BRANCH  16  18
ATOM     18  C   UNL     1      -0.461  10.599  18.531  0.00  0.00    +0.000 C 
BRANCH  18  19
ATOM     19  C   UNL     1      -1.794  10.673  17.817  0.00  0.00    +0.000 A 
ATOM     20  C   UNL     1      -2.003   9.963  16.620  0.00  0.00    +0.000 A 
ATOM     21  C   UNL     1      -3.223  10.025  15.946  0.00  0.00    +0.000 A 
ATOM     22  C   UNL     1      -4.254  10.816  16.443  0.00  0.00    +0.000 A 
ATOM     23  C   UNL     1      -4.059  11.554  17.607  0.00  0.00    +0.000 A 
ATOM     24  C   UNL     1      -2.838  11.492  18.287  0.00  0.00    +0.000 A 
ATOM     25 CL   UNL     1      -2.676  12.470  19.705  0.00  0.00    +0.000 Cl
ENDBRANCH  18  19
ENDBRANCH  16  18
ENDBRANCH  15  16
ENDBRANCH   7  15
TORSDOF 4
ENDMDL
MODEL 7
REMARK VINA RESULT:      -6.9      5.768      7.594
REMARK  Name = 
REMARK  6 active torsions:
REMARK  status: ('A' for Active; 'I' for Inactive)
REMARK    1  A    between atoms: C_1  and  N_2
REMARK    2  A    between atoms: C_7  and  C_8
REMARK    3  A    between atoms: C_8  and  N_9
REMARK    4  A    between atoms: N_9  and  C_10
REMARK    5  A    between atoms: C_10  and  C_11
REMARK    6  A    between atoms: N_20  and  C_21
REMARK                            x       y       z     vdW  Elec       q    Type
REMARK                         _______ _______ _______ _____ _____    ______ ____
ROOT
ATOM      1  C   UNL     1      -1.549  11.558  22.710  0.00  0.00    +0.000 C 
ATOM      2  N   UNL     1      -0.950  11.185  21.445  0.00  0.00    +0.000 N 
ATOM      3  C   UNL     1      -0.067  10.090  21.441  0.00  0.00    +0.000 A 
ATOM      4  O   UNL     1       0.215   9.428  22.438  0.00  0.00    +0.000 OA
ATOM      5  C   UNL     1       0.491   9.816  20.136  0.00  0.00    +0.000 A 
ATOM      6  N   UNL     1       1.387   8.843  19.762  0.00  0.00    +0.000 NA
ATOM      7  C   UNL     1       1.579   9.024  18.466  0.00  0.00    +0.000 A 
ATOM      8  N   UNL     1       0.824  10.080  17.999  0.00  0.00    +0.000 N 
ATOM      9  C   UNL     1       0.133  10.581  19.061  0.00  0.00    +0.000 A 
ATOM     10  N   UNL     1      -0.751  11.635  19.088  0.00  0.00    +0.000 N 
ATOM     11  C   UNL     1      -1.137  12.430  17.938  0.00  0.00    +0.000 C 
ATOM     12  C   UNL     1      -1.322  11.964  20.331  0.00  0.00    +0.000 A 
ATOM     13  O   UNL     1      -2.119  12.903  20.435  0.00  0.00    +0.000 OA
ATOM     14  H   UNL     1       0.787  10.394  17.041  0.00  0.00    +0.000 HD
ENDROOT
BRANCH   7  15
ATOM     15  C   UNL     1       2.422   8.186  17.558  0.00  0.00    +0.000 C 
BRANCH  15  16
ATOM     16  N   UNL     1       3.395   7.369  18.289  0.00  0.00    +0.000 NA
ATOM     17  H   UNL     1       3.119   7.391  19.276  0.00  0.00    +0.000 HD
BRANCH  16  18
ATOM     18  C   UNL     1       3.385   5.965  17.859  0.00  0.00    +0.000 C 
BRANCH  18  19
ATOM     19  C   UNL     1       2.585   5.068  18.779  0.00  0.00    +0.000 A 
ATOM     20  C   UNL     1       2.242   5.499  20.075  0.00  0.00    +0.000 A 
ATOM     21  C   UNL     1       1.510   4.684  20.939  0.00  0.00    +0.000 A 
ATOM     22  C   UNL     1       1.124   3.410  20.534  0.00  0.00    +0.000 A 
ATOM     23  C   UNL     1       1.481   2.949  19.270  0.00  0.00    +0.000 A 
ATOM     24  C   UNL     1       2.213   3.765  18.401  0.00  0.00    +0.000 A 
ATOM     25 CL   UNL     1       2.641   3.094  16.864  0.00  0.00    +0.000 Cl
ENDBRANCH  18  19
ENDBRANCH  16  18
ENDBRANCH  15  16
ENDBRANCH   7  15
TORSDOF 4
ENDMDL
MODEL 8
REMARK VINA RESULT:      -6.9      5.098      6.297
REMARK  Name = 
REMARK  6 active torsions:
REMARK  status: ('A' for Active; 'I' for Inactive)
REMARK    1  A    between atoms: C_1  and  N_2
REMARK    2  A    between atoms: C_7  and  C_8
REMARK    3  A    between atoms: C_8  and  N_9
REMARK    4  A    between atoms: N_9  and  C_10
REMARK    5  A    between atoms: C_10  and  C_11
REMARK    6  A    between atoms: N_20  and  C_21
REMARK                            x       y       z     vdW  Elec       q    Type
REMARK                         _______ _______ _______ _____ _____    ______ ____
ROOT
ATOM      1  C   UNL     1       4.102   2.476  19.181  0.00  0.00    +0.000 C 
ATOM      2  N   UNL     1       3.766   3.875  19.016  0.00  0.00    +0.000 N 
ATOM      3  C   UNL     1       2.882   4.447  19.949  0.00  0.00    +0.000 A 
ATOM      4  O   UNL     1       2.390   3.837  20.897  0.00  0.00    +0.000 OA
ATOM      5  C   UNL     1       2.597   5.839  19.680  0.00  0.00    +0.000 A 
ATOM      6  N   UNL     1       1.778   6.705  20.366  0.00  0.00    +0.000 NA
ATOM      7  C   UNL     1       1.858   7.851  19.713  0.00  0.00    +0.000 A 
ATOM      8  N   UNL     1       2.711   7.747  18.635  0.00  0.00    +0.000 N 
ATOM      9  C   UNL     1       3.181   6.467  18.616  0.00  0.00    +0.000 A 
ATOM     10  N   UNL     1       4.060   5.890  17.730  0.00  0.00    +0.000 N 
ATOM     11  C   UNL     1       4.687   6.570  16.613  0.00  0.00    +0.000 C 
ATOM     12  C   UNL     1       4.372   4.532  17.925  0.00  0.00    +0.000 A 
ATOM     13  O   UNL     1       5.148   3.943  17.165  0.00  0.00    +0.000 OA
ATOM     14  H   UNL     1       2.949   8.495  18.001  0.00  0.00    +0.000 HD
ENDROOT
BRANCH   7  15
ATOM     15  C   UNL     1       1.201   9.144  20.085  0.00  0.00    +0.000 C 
BRANCH  15  16
ATOM     16  N   UNL     1       0.549   9.791  18.943  0.00  0.00    +0.000 NA
ATOM     17  H   UNL     1       0.133   9.046  18.377  0.00  0.00    +0.000 HD
BRANCH  16  18
ATOM     18  C   UNL     1      -0.535  10.694  19.354  0.00  0.00    +0.000 C 
BRANCH  18  19
ATOM     19  C   UNL     1      -1.699  10.699  18.386  0.00  0.00    +0.000 A 
ATOM     20  C   UNL     1      -1.654   9.926  17.211  0.00  0.00    +0.000 A 
ATOM     21  C   UNL     1      -2.715   9.923  16.305  0.00  0.00    +0.000 A 
ATOM     22  C   UNL     1      -3.836  10.712  16.544  0.00  0.00    +0.000 A 
ATOM     23  C   UNL     1      -3.889  11.511  17.683  0.00  0.00    +0.000 A 
ATOM     24  C   UNL     1      -2.828  11.513  18.594  0.00  0.00    +0.000 A 
ATOM     25 CL   UNL     1      -2.967  12.564  19.962  0.00  0.00    +0.000 Cl
ENDBRANCH  18  19
ENDBRANCH  16  18
ENDBRANCH  15  16
ENDBRANCH   7  15
TORSDOF 4
ENDMDL
MODEL 9
REMARK VINA RESULT:      -6.9      5.684      7.825
REMARK  Name = 
REMARK  6 active torsions:
REMARK  status: ('A' for Active; 'I' for Inactive)
REMARK    1  A    between atoms: C_1  and  N_2
REMARK    2  A    between atoms: C_7  and  C_8
REMARK    3  A    between atoms: C_8  and  N_9
REMARK    4  A    between atoms: N_9  and  C_10
REMARK    5  A    between atoms: C_10  and  C_11
REMARK    6  A    between atoms: N_20  and  C_21
REMARK                            x       y       z     vdW  Elec       q    Type
REMARK                         _______ _______ _______ _____ _____    ______ ____
ROOT
ATOM      1  C   UNL     1      -1.400  11.368  22.932  0.00  0.00    +0.000 C 
ATOM      2  N   UNL     1      -0.836  11.018  21.645  0.00  0.00    +0.000 N 
ATOM      3  C   UNL     1       0.107   9.975  21.610  0.00  0.00    +0.000 A 
ATOM      4  O   UNL     1       0.470   9.340  22.599  0.00  0.00    +0.000 OA
ATOM      5  C   UNL     1       0.622   9.721  20.283  0.00  0.00    +0.000 A 
ATOM      6  N   UNL     1       1.556   8.796  19.877  0.00  0.00    +0.000 NA
ATOM      7  C   UNL     1       1.680   8.976  18.574  0.00  0.00    +0.000 A 
ATOM      8  N   UNL     1       0.847   9.982  18.132  0.00  0.00    +0.000 N 
ATOM      9  C   UNL     1       0.175  10.454  19.220  0.00  0.00    +0.000 A 
ATOM     10  N   UNL     1      -0.767  11.455  19.278  0.00  0.00    +0.000 N 
ATOM     11  C   UNL     1      -1.248  12.216  18.141  0.00  0.00    +0.000 C 
ATOM     12  C   UNL     1      -1.301  11.763  20.543  0.00  0.00    +0.000 A 
ATOM     13  O   UNL     1      -2.145  12.656  20.675  0.00  0.00    +0.000 OA
ATOM     14  H   UNL     1       0.750  10.285  17.174  0.00  0.00    +0.000 HD
ENDROOT
BRANCH   7  15
ATOM     15  C   UNL     1       2.530   8.178  17.635  0.00  0.00    +0.000 C 
BRANCH  15  16
ATOM     16  N   UNL     1       2.871   6.857  18.170  0.00  0.00    +0.000 NA
ATOM     17  H   UNL     1       2.002   6.316  18.201  0.00  0.00    +0.000 HD
BRANCH  16  18
ATOM     18  C   UNL     1       3.815   6.130  17.312  0.00  0.00    +0.000 C 
BRANCH  18  19
ATOM     19  C   UNL     1       5.247   6.223  17.795  0.00  0.00    +0.000 A 
ATOM     20  C   UNL     1       6.143   7.130  17.199  0.00  0.00    +0.000 A 
ATOM     21  C   UNL     1       7.468   7.225  17.627  0.00  0.00    +0.000 A 
ATOM     22  C   UNL     1       7.931   6.399  18.646  0.00  0.00    +0.000 A 
ATOM     23  C   UNL     1       7.072   5.471  19.228  0.00  0.00    +0.000 A 
ATOM     24  C   UNL     1       5.743   5.375  18.802  0.00  0.00    +0.000 A 
ATOM     25 CL   UNL     1       4.759   4.169  19.559  0.00  0.00    +0.000 Cl
ENDBRANCH  18  19
ENDBRANCH  16  18
ENDBRANCH  15  16
ENDBRANCH   7  15
TORSDOF 4
ENDMDL
