MODEL 1
REMARK VINA RESULT:      -7.4      0.000      0.000
REMARK  Name = 
REMARK  4 active torsions:
REMARK  status: ('A' for Active; 'I' for Inactive)
REMARK    1  A    between atoms: C_2  and  C_3
REMARK    2  A    between atoms: C_5  and  O_6
REMARK    3  A    between atoms: C_13  and  O_14
REMARK    4  A    between atoms: C_15  and  C_16
REMARK                            x       y       z     vdW  Elec       q    Type
REMARK                         _______ _______ _______ _____ _____    ______ ____
ROOT
ATOM      1  C   UNL     1       3.885   4.262  17.540  0.00  0.00    +0.000 A 
ATOM      2  C   UNL     1       4.200   2.884  17.475  0.00  0.00    +0.000 A 
ATOM      3  C   UNL     1       3.748   2.014  18.447  0.00  0.00    +0.000 A 
ATOM      4  C   UNL     1       3.000   2.494  19.497  0.00  0.00    +0.000 A 
ATOM      5  C   UNL     1       2.670   3.864  19.580  0.00  0.00    +0.000 A 
ATOM      6  C   UNL     1       3.070   4.796  18.589  0.00  0.00    +0.000 A 
ATOM      7  C   UNL     1       2.623   6.231  18.729  0.00  0.00    +0.000 A 
ATOM      8  C   UNL     1       2.845   7.214  17.742  0.00  0.00    +0.000 A 
ATOM      9  C   UNL     1       2.491   8.558  17.898  0.00  0.00    +0.000 A 
ATOM     10  C   UNL     1       1.842   8.968  19.046  0.00  0.00    +0.000 A 
ATOM     11  C   UNL     1       1.520   8.043  20.037  0.00  0.00    +0.000 A 
ATOM     12  C   UNL     1       0.742   8.489  21.253  0.00  0.00    +0.000 C 
ATOM     13  C   UNL     1       1.913   6.674  19.876  0.00  0.00    +0.000 A 
ATOM     14  C   UNL     1       1.530   5.715  20.973  0.00  0.00    +0.000 C 
ATOM     15  C   UNL     1       1.889   4.252  20.803  0.00  0.00    +0.000 C 
ENDROOT
BRANCH   1  17
ATOM     16  C   UNL     1       5.295   4.447  15.534  0.00  0.00    +0.000 C 
ATOM     17  C   UNL     1       4.519   5.028  16.458  0.00  0.00    +0.000 C 
ENDBRANCH   1  17
BRANCH   3  18
ATOM     18  O   UNL     1       4.035   0.682  18.422  0.00  0.00    +0.000 OA
ATOM     19  H   UNL     1       4.885   0.541  18.873  0.00  0.00    +0.000 HD
ENDBRANCH   3  18
BRANCH  10  20
ATOM     20  O   UNL     1       1.501  10.280  19.202  0.00  0.00    +0.000 OA
ATOM     21  H   UNL     1       2.312  10.805  19.298  0.00  0.00    +0.000 HD
ENDBRANCH  10  20
TORSDOF 3
ENDMDL
MODEL 2
REMARK VINA RESULT:      -7.3      1.315      1.527
REMARK  Name = 
REMARK  4 active torsions:
REMARK  status: ('A' for Active; 'I' for Inactive)
REMARK    1  A    between atoms: C_2  and  C_3
REMARK    2  A    between atoms: C_5  and  O_6
REMARK    3  A    between atoms: C_13  and  O_14
REMARK    4  A    between atoms: C_15  and  C_16
REMARK                            x       y       z     vdW  Elec       q    Type
REMARK                         _______ _______ _______ _____ _____    ______ ____
ROOT
ATOM      1  C   UNL     1       4.185   5.814  17.897  0.00  0.00    +0.000 A 
ATOM      2  C   UNL     1       4.757   4.522  17.975  0.00  0.00    +0.000 A 
ATOM      3  C   UNL     1       4.380   3.646  18.974  0.00  0.00    +0.000 A 
ATOM      4  C   UNL     1       3.454   4.039  19.912  0.00  0.00    +0.000 A 
ATOM      5  C   UNL     1       2.867   5.323  19.852  0.00  0.00    +0.000 A 
ATOM      6  C   UNL     1       3.183   6.247  18.824  0.00  0.00    +0.000 A 
ATOM      7  C   UNL     1       2.465   7.575  18.805  0.00  0.00    +0.000 A 
ATOM      8  C   UNL     1       2.598   8.515  17.762  0.00  0.00    +0.000 A 
ATOM      9  C   UNL     1       1.985   9.772  17.775  0.00  0.00    +0.000 A 
ATOM     10  C   UNL     1       1.160  10.123  18.824  0.00  0.00    +0.000 A 
ATOM     11  C   UNL     1       0.917   9.220  19.858  0.00  0.00    +0.000 A 
ATOM     12  C   UNL     1      -0.048   9.586  20.961  0.00  0.00    +0.000 C 
ATOM     13  C   UNL     1       1.573   7.946  19.846  0.00  0.00    +0.000 A 
ATOM     14  C   UNL     1       1.269   7.004  20.983  0.00  0.00    +0.000 C 
ATOM     15  C   UNL     1       1.909   5.631  20.967  0.00  0.00    +0.000 C 
ENDROOT
BRANCH   1  17
ATOM     16  C   UNL     1       5.275   6.056  15.707  0.00  0.00    +0.000 C 
ATOM     17  C   UNL     1       4.770   6.615  16.814  0.00  0.00    +0.000 C 
ENDBRANCH   1  17
BRANCH   3  18
ATOM     18  O   UNL     1       4.911   2.396  19.084  0.00  0.00    +0.000 OA
ATOM     19  H   UNL     1       4.289   1.761  18.688  0.00  0.00    +0.000 HD
ENDBRANCH   3  18
BRANCH  10  20
ATOM     20  O   UNL     1       0.565  11.352  18.841  0.00  0.00    +0.000 OA
ATOM     21  H   UNL     1       0.244  11.556  17.948  0.00  0.00    +0.000 HD
ENDBRANCH  10  20
TORSDOF 3
ENDMDL
MODEL 3
REMARK VINA RESULT:      -7.3      0.931      3.244
REMARK  Name = 
REMARK  4 active torsions:
REMARK  status: ('A' for Active; 'I' for Inactive)
REMARK    1  A    between atoms: C_2  and  C_3
REMARK    2  A    between atoms: C_5  and  O_6
REMARK    3  A    between atoms: C_13  and  O_14
REMARK    4  A    between atoms: C_15  and  C_16
REMARK                            x       y       z     vdW  Elec       q    Type
REMARK                         _______ _______ _______ _____ _____    ______ ____
ROOT
ATOM      1  C   UNL     1       2.349   3.504  19.916  0.00  0.00    +0.000 A 
ATOM      2  C   UNL     1       2.883   2.240  19.572  0.00  0.00    +0.000 A 
ATOM      3  C   UNL     1       3.743   2.109  18.500  0.00  0.00    +0.000 A 
ATOM      4  C   UNL     1       4.068   3.213  17.748  0.00  0.00    +0.000 A 
ATOM      5  C   UNL     1       3.550   4.486  18.074  0.00  0.00    +0.000 A 
ATOM      6  C   UNL     1       2.698   4.688  19.189  0.00  0.00    +0.000 A 
ATOM      7  C   UNL     1       2.237   6.092  19.498  0.00  0.00    +0.000 A 
ATOM      8  C   UNL     1       1.501   6.433  20.651  0.00  0.00    +0.000 A 
ATOM      9  C   UNL     1       1.017   7.720  20.905  0.00  0.00    +0.000 A 
ATOM     10  C   UNL     1       1.300   8.746  20.025  0.00  0.00    +0.000 A 
ATOM     11  C   UNL     1       2.085   8.506  18.899  0.00  0.00    +0.000 A 
ATOM     12  C   UNL     1       2.453   9.652  17.985  0.00  0.00    +0.000 C 
ATOM     13  C   UNL     1       2.552   7.177  18.637  0.00  0.00    +0.000 A 
ATOM     14  C   UNL     1       3.405   6.976  17.411  0.00  0.00    +0.000 C 
ATOM     15  C   UNL     1       3.953   5.589  17.139  0.00  0.00    +0.000 C 
ENDROOT
BRANCH   1  17
ATOM     16  C   UNL     1       1.507   2.488  21.990  0.00  0.00    +0.000 C 
ATOM     17  C   UNL     1       1.401   3.421  21.036  0.00  0.00    +0.000 C 
ENDBRANCH   1  17
BRANCH   3  18
ATOM     18  O   UNL     1       4.274   0.907  18.136  0.00  0.00    +0.000 OA
ATOM     19  H   UNL     1       3.558   0.343  17.798  0.00  0.00    +0.000 HD
ENDBRANCH   3  18
BRANCH  10  20
ATOM     20  O   UNL     1       0.824  10.001  20.269  0.00  0.00    +0.000 OA
ATOM     21  H   UNL     1       1.451  10.468  20.845  0.00  0.00    +0.000 HD
ENDBRANCH  10  20
TORSDOF 3
ENDMDL
MODEL 4
REMARK VINA RESULT:      -7.3      1.417      6.533
REMARK  Name = 
REMARK  4 active torsions:
REMARK  status: ('A' for Active; 'I' for Inactive)
REMARK    1  A    between atoms: C_2  and  C_3
REMARK    2  A    between atoms: C_5  and  O_6
REMARK    3  A    between atoms: C_13  and  O_14
REMARK    4  A    between atoms: C_15  and  C_16
REMARK                            x       y       z     vdW  Elec       q    Type
REMARK                         _______ _______ _______ _____ _____    ______ ____
ROOT
ATOM      1  C   UNL     1       1.067   8.702  20.266  0.00  0.00    +0.000 A 
ATOM      2  C   UNL     1       0.727  10.019  19.876  0.00  0.00    +0.000 A 
ATOM      3  C   UNL     1       1.209  10.548  18.695  0.00  0.00    +0.000 A 
ATOM      4  C   UNL     1       2.042   9.795  17.901  0.00  0.00    +0.000 A 
ATOM      5  C   UNL     1       2.392   8.477  18.268  0.00  0.00    +0.000 A 
ATOM      6  C   UNL     1       1.892   7.867  19.447  0.00  0.00    +0.000 A 
ATOM      7  C   UNL     1       2.272   6.434  19.732  0.00  0.00    +0.000 A 
ATOM      8  C   UNL     1       1.732   5.684  20.797  0.00  0.00    +0.000 A 
ATOM      9  C   UNL     1       2.132   4.379  21.102  0.00  0.00    +0.000 A 
ATOM     10  C   UNL     1       3.066   3.744  20.308  0.00  0.00    +0.000 A 
ATOM     11  C   UNL     1       3.593   4.391  19.192  0.00  0.00    +0.000 A 
ATOM     12  C   UNL     1       4.557   3.659  18.288  0.00  0.00    +0.000 C 
ATOM     13  C   UNL     1       3.195   5.738  18.907  0.00  0.00    +0.000 A 
ATOM     14  C   UNL     1       3.789   6.387  17.683  0.00  0.00    +0.000 C 
ATOM     15  C   UNL     1       3.344   7.792  17.331  0.00  0.00    +0.000 C 
ENDROOT
BRANCH   1  17
ATOM     16  C   UNL     1      -0.066   9.264  22.375  0.00  0.00    +0.000 C 
ATOM     17  C   UNL     1       0.517   8.354  21.583  0.00  0.00    +0.000 C 
ENDBRANCH   1  17
BRANCH   3  18
ATOM     18  O   UNL     1       0.908  11.813  18.288  0.00  0.00    +0.000 OA
ATOM     19  H   UNL     1      -0.060  11.901  18.244  0.00  0.00    +0.000 HD
ENDBRANCH   3  18
BRANCH  10  20
ATOM     20  O   UNL     1       3.461   2.472  20.608  0.00  0.00    +0.000 OA
ATOM     21  H   UNL     1       4.184   2.220  20.010  0.00  0.00    +0.000 HD
ENDBRANCH  10  20
TORSDOF 3
ENDMDL
MODEL 5
REMARK VINA RESULT:      -7.3      1.457      3.565
REMARK  Name = 
REMARK  4 active torsions:
REMARK  status: ('A' for Active; 'I' for Inactive)
REMARK    1  A    between atoms: C_2  and  C_3
REMARK    2  A    between atoms: C_5  and  O_6
REMARK    3  A    between atoms: C_13  and  O_14
REMARK    4  A    between atoms: C_15  and  C_16
REMARK                            x       y       z     vdW  Elec       q    Type
REMARK                         _______ _______ _______ _____ _____    ______ ____
ROOT
ATOM      1  C   UNL     1       2.783   4.951  19.902  0.00  0.00    +0.000 A 
ATOM      2  C   UNL     1       3.597   3.936  19.345  0.00  0.00    +0.000 A 
ATOM      3  C   UNL     1       4.297   4.159  18.177  0.00  0.00    +0.000 A 
ATOM      4  C   UNL     1       4.190   5.372  17.538  0.00  0.00    +0.000 A 
ATOM      5  C   UNL     1       3.387   6.402  18.078  0.00  0.00    +0.000 A 
ATOM      6  C   UNL     1       2.680   6.244  19.296  0.00  0.00    +0.000 A 
ATOM      7  C   UNL     1       1.893   7.417  19.828  0.00  0.00    +0.000 A 
ATOM      8  C   UNL     1       1.262   7.423  21.090  0.00  0.00    +0.000 A 
ATOM      9  C   UNL     1       0.477   8.482  21.556  0.00  0.00    +0.000 A 
ATOM     10  C   UNL     1       0.334   9.620  20.787  0.00  0.00    +0.000 A 
ATOM     11  C   UNL     1       0.986   9.723  19.560  0.00  0.00    +0.000 A 
ATOM     12  C   UNL     1       0.884  11.003  18.762  0.00  0.00    +0.000 C 
ATOM     13  C   UNL     1       1.765   8.619  19.082  0.00  0.00    +0.000 A 
ATOM     14  C   UNL     1       2.457   8.788  17.754  0.00  0.00    +0.000 C 
ATOM     15  C   UNL     1       3.328   7.654  17.251  0.00  0.00    +0.000 C 
ENDROOT
BRANCH   1  17
ATOM     16  C   UNL     1       2.144   3.230  21.537  0.00  0.00    +0.000 C 
ATOM     17  C   UNL     1       2.066   4.493  21.100  0.00  0.00    +0.000 C 
ENDBRANCH   1  17
BRANCH   3  18
ATOM     18  O   UNL     1       5.087   3.205  17.608  0.00  0.00    +0.000 OA
ATOM     19  H   UNL     1       5.855   3.642  17.202  0.00  0.00    +0.000 HD
ENDBRANCH   3  18
BRANCH  10  20
ATOM     20  O   UNL     1      -0.436  10.653  21.238  0.00  0.00    +0.000 OA
ATOM     21  H   UNL     1       0.106  11.220  21.809  0.00  0.00    +0.000 HD
ENDBRANCH  10  20
TORSDOF 3
ENDMDL
MODEL 6
REMARK VINA RESULT:      -7.1      2.443      4.922
REMARK  Name = 
REMARK  4 active torsions:
REMARK  status: ('A' for Active; 'I' for Inactive)
REMARK    1  A    between atoms: C_2  and  C_3
REMARK    2  A    between atoms: C_5  and  O_6
REMARK    3  A    between atoms: C_13  and  O_14
REMARK    4  A    between atoms: C_15  and  C_16
REMARK                            x       y       z     vdW  Elec       q    Type
REMARK                         _______ _______ _______ _____ _____    ______ ____
ROOT
ATOM      1  C   UNL     1       2.344   5.157  20.058  0.00  0.00    +0.000 A 
ATOM      2  C   UNL     1       1.634   4.561  21.127  0.00  0.00    +0.000 A 
ATOM      3  C   UNL     1       1.573   3.188  21.252  0.00  0.00    +0.000 A 
ATOM      4  C   UNL     1       2.193   2.390  20.318  0.00  0.00    +0.000 A 
ATOM      5  C   UNL     1       2.911   2.962  19.245  0.00  0.00    +0.000 A 
ATOM      6  C   UNL     1       3.044   4.366  19.091  0.00  0.00    +0.000 A 
ATOM      7  C   UNL     1       3.877   4.889  17.947  0.00  0.00    +0.000 A 
ATOM      8  C   UNL     1       4.190   6.253  17.772  0.00  0.00    +0.000 A 
ATOM      9  C   UNL     1       4.906   6.747  16.677  0.00  0.00    +0.000 A 
ATOM     10  C   UNL     1       5.392   5.873  15.724  0.00  0.00    +0.000 A 
ATOM     11  C   UNL     1       5.190   4.501  15.863  0.00  0.00    +0.000 A 
ATOM     12  C   UNL     1       5.792   3.550  14.856  0.00  0.00    +0.000 C 
ATOM     13  C   UNL     1       4.431   4.012  16.976  0.00  0.00    +0.000 A 
ATOM     14  C   UNL     1       4.251   2.519  17.083  0.00  0.00    +0.000 C 
ATOM     15  C   UNL     1       3.496   1.973  18.278  0.00  0.00    +0.000 C 
ENDROOT
BRANCH   1  17
ATOM     16  C   UNL     1       1.370   7.265  20.864  0.00  0.00    +0.000 C 
ATOM     17  C   UNL     1       2.227   6.621  20.061  0.00  0.00    +0.000 C 
ENDBRANCH   1  17
BRANCH   3  18
ATOM     18  O   UNL     1       0.896   2.578  22.265  0.00  0.00    +0.000 OA
ATOM     19  H   UNL     1       0.509   3.265  22.835  0.00  0.00    +0.000 HD
ENDBRANCH   3  18
BRANCH  10  20
ATOM     20  O   UNL     1       6.086   6.354  14.652  0.00  0.00    +0.000 OA
ATOM     21  H   UNL     1       6.299   7.288  14.810  0.00  0.00    +0.000 HD
ENDBRANCH  10  20
TORSDOF 3
ENDMDL
MODEL 7
REMARK VINA RESULT:      -6.9      2.333      4.548
REMARK  Name = 
REMARK  4 active torsions:
REMARK  status: ('A' for Active; 'I' for Inactive)
REMARK    1  A    between atoms: C_2  and  C_3
REMARK    2  A    between atoms: C_5  and  O_6
REMARK    3  A    between atoms: C_13  and  O_14
REMARK    4  A    between atoms: C_15  and  C_16
REMARK                            x       y       z     vdW  Elec       q    Type
REMARK                         _______ _______ _______ _____ _____    ______ ____
ROOT
ATOM      1  C   UNL     1       2.316   6.299  19.764  0.00  0.00    +0.000 A 
ATOM      2  C   UNL     1       3.136   5.565  18.874  0.00  0.00    +0.000 A 
ATOM      3  C   UNL     1       3.625   6.152  17.724  0.00  0.00    +0.000 A 
ATOM      4  C   UNL     1       3.298   7.455  17.432  0.00  0.00    +0.000 A 
ATOM      5  C   UNL     1       2.484   8.208  18.307  0.00  0.00    +0.000 A 
ATOM      6  C   UNL     1       1.990   7.672  19.522  0.00  0.00    +0.000 A 
ATOM      7  C   UNL     1       1.175   8.566  20.425  0.00  0.00    +0.000 A 
ATOM      8  C   UNL     1       0.746   8.187  21.714  0.00  0.00    +0.000 A 
ATOM      9  C   UNL     1      -0.064   8.989  22.524  0.00  0.00    +0.000 A 
ATOM     10  C   UNL     1      -0.439  10.245  22.091  0.00  0.00    +0.000 A 
ATOM     11  C   UNL     1       0.006  10.724  20.861  0.00  0.00    +0.000 A 
ATOM     12  C   UNL     1      -0.347  12.129  20.431  0.00  0.00    +0.000 C 
ATOM     13  C   UNL     1       0.813   9.881  20.028  0.00  0.00    +0.000 A 
ATOM     14  C   UNL     1       1.274  10.452  18.712  0.00  0.00    +0.000 C 
ATOM     15  C   UNL     1       2.172   9.600  17.837  0.00  0.00    +0.000 C 
ENDROOT
BRANCH   1  17
ATOM     16  C   UNL     1       1.430   4.213  20.717  0.00  0.00    +0.000 C 
ATOM     17  C   UNL     1       1.840   5.477  20.885  0.00  0.00    +0.000 C 
ENDBRANCH   1  17
BRANCH   3  18
ATOM     18  O   UNL     1       4.414   5.477  16.841  0.00  0.00    +0.000 OA
ATOM     19  H   UNL     1       5.311   5.417  17.212  0.00  0.00    +0.000 HD
ENDBRANCH   3  18
BRANCH  10  20
ATOM     20  O   UNL     1      -1.234  11.027  22.879  0.00  0.00    +0.000 OA
ATOM     21  H   UNL     1      -0.928  11.946  22.817  0.00  0.00    +0.000 HD
ENDBRANCH  10  20
TORSDOF 3
ENDMDL
MODEL 8
REMARK VINA RESULT:      -6.9      1.512      5.878
REMARK  Name = 
REMARK  4 active torsions:
REMARK  status: ('A' for Active; 'I' for Inactive)
REMARK    1  A    between atoms: C_2  and  C_3
REMARK    2  A    between atoms: C_5  and  O_6
REMARK    3  A    between atoms: C_13  and  O_14
REMARK    4  A    between atoms: C_15  and  C_16
REMARK                            x       y       z     vdW  Elec       q    Type
REMARK                         _______ _______ _______ _____ _____    ______ ____
ROOT
ATOM      1  C   UNL     1       2.038   5.583  20.367  0.00  0.00    +0.000 A 
ATOM      2  C   UNL     1       1.233   6.434  21.160  0.00  0.00    +0.000 A 
ATOM      3  C   UNL     1       1.066   7.761  20.819  0.00  0.00    +0.000 A 
ATOM      4  C   UNL     1       1.703   8.265  19.708  0.00  0.00    +0.000 A 
ATOM      5  C   UNL     1       2.509   7.434  18.900  0.00  0.00    +0.000 A 
ATOM      6  C   UNL     1       2.681   6.054  19.177  0.00  0.00    +0.000 A 
ATOM      7  C   UNL     1       3.513   5.227  18.227  0.00  0.00    +0.000 A 
ATOM      8  C   UNL     1       3.645   3.827  18.325  0.00  0.00    +0.000 A 
ATOM      9  C   UNL     1       4.468   3.068  17.486  0.00  0.00    +0.000 A 
ATOM     10  C   UNL     1       5.162   3.686  16.465  0.00  0.00    +0.000 A 
ATOM     11  C   UNL     1       5.028   5.057  16.255  0.00  0.00    +0.000 A 
ATOM     12  C   UNL     1       5.733   5.708  15.088  0.00  0.00    +0.000 C 
ATOM     13  C   UNL     1       4.203   5.826  17.139  0.00  0.00    +0.000 A 
ATOM     14  C   UNL     1       4.085   7.303  16.860  0.00  0.00    +0.000 C 
ATOM     15  C   UNL     1       3.178   8.129  17.750  0.00  0.00    +0.000 C 
ENDROOT
BRANCH   1  17
ATOM     16  C   UNL     1       1.145   3.349  20.871  0.00  0.00    +0.000 C 
ATOM     17  C   UNL     1       2.148   4.233  20.937  0.00  0.00    +0.000 C 
ENDBRANCH   1  17
BRANCH   3  18
ATOM     18  O   UNL     1       0.302   8.613  21.559  0.00  0.00    +0.000 OA
ATOM     19  H   UNL     1       0.388   8.369  22.497  0.00  0.00    +0.000 HD
ENDBRANCH   3  18
BRANCH  10  20
ATOM     20  O   UNL     1       5.970   2.948  15.649  0.00  0.00    +0.000 OA
ATOM     21  H   UNL     1       5.461   2.675  14.869  0.00  0.00    +0.000 HD
ENDBRANCH  10  20
TORSDOF 3
ENDMDL
MODEL 9
REMARK VINA RESULT:      -6.7      1.944      7.096
REMARK  Name = 
REMARK  4 active torsions:
REMARK  status: ('A' for Active; 'I' for Inactive)
REMARK    1  A    between atoms: C_2  and  C_3
REMARK    2  A    between atoms: C_5  and  O_6
REMARK    3  A    between atoms: C_13  and  O_14
REMARK    4  A    between atoms: C_15  and  C_16
REMARK                            x       y       z     vdW  Elec       q    Type
REMARK                         _______ _______ _______ _____ _____    ______ ____
ROOT
ATOM      1  C   UNL     1       0.234   9.508  20.991  0.00  0.00    +0.000 A 
ATOM      2  C   UNL     1      -0.378  10.782  20.918  0.00  0.00    +0.000 A 
ATOM      3  C   UNL     1      -0.197  11.586  19.811  0.00  0.00    +0.000 A 
ATOM      4  C   UNL     1       0.600  11.153  18.777  0.00  0.00    +0.000 A 
ATOM      5  C   UNL     1       1.218   9.884  18.825  0.00  0.00    +0.000 A 
ATOM      6  C   UNL     1       1.033   8.999  19.917  0.00  0.00    +0.000 A 
ATOM      7  C   UNL     1       1.686   7.639  19.859  0.00  0.00    +0.000 A 
ATOM      8  C   UNL     1       1.466   6.629  20.819  0.00  0.00    +0.000 A 
ATOM      9  C   UNL     1       2.120   5.394  20.803  0.00  0.00    +0.000 A 
ATOM     10  C   UNL     1       2.997   5.095  19.779  0.00  0.00    +0.000 A 
ATOM     11  C   UNL     1       3.213   6.010  18.751  0.00  0.00    +0.000 A 
ATOM     12  C   UNL     1       4.115   5.642  17.596  0.00  0.00    +0.000 C 
ATOM     13  C   UNL     1       2.556   7.284  18.795  0.00  0.00    +0.000 A 
ATOM     14  C   UNL     1       2.818   8.233  17.653  0.00  0.00    +0.000 C 
ATOM     15  C   UNL     1       2.096   9.565  17.650  0.00  0.00    +0.000 C 
ENDROOT
BRANCH   1  17
ATOM     16  C   UNL     1      -0.093   9.523  23.427  0.00  0.00    +0.000 C 
ATOM     17  C   UNL     1      -0.019   8.843  22.276  0.00  0.00    +0.000 C 
ENDBRANCH   1  17
BRANCH   3  18
ATOM     18  O   UNL     1      -0.767  12.820  19.706  0.00  0.00    +0.000 OA
ATOM     19  H   UNL     1      -0.777  13.076  18.768  0.00  0.00    +0.000 HD
ENDBRANCH   3  18
BRANCH  10  20
ATOM     20  O   UNL     1       3.640   3.891  19.765  0.00  0.00    +0.000 OA
ATOM     21  H   UNL     1       4.573   4.032  19.992  0.00  0.00    +0.000 HD
ENDBRANCH  10  20
TORSDOF 3
ENDMDL
