MODEL 1
REMARK VINA RESULT:      -6.5      0.000      0.000
REMARK  Name = 
REMARK  7 active torsions:
REMARK  status: ('A' for Active; 'I' for Inactive)
REMARK    1  A    between atoms: C_1  and  C_2
REMARK    2  A    between atoms: C_2  and  C_4
REMARK    3  A    between atoms: C_7  and  C_8
REMARK    4  A    between atoms: C_11  and  C_12
REMARK    5  A    between atoms: N_15  and  S_16
REMARK    6  A    between atoms: S_16  and  C_19
REMARK    7  A    between atoms: C_22  and  C_23
REMARK                            x       y       z     vdW  Elec       q    Type
REMARK                         _______ _______ _______ _____ _____    ______ ____
ROOT
ATOM      1  C   UNL     1       6.818   4.803  14.079  0.00  0.00    +0.000 C 
ATOM      2  C   UNL     1       5.983   3.813  13.742  0.00  0.00    +0.000 C 
ATOM      3  C   UNL     1       4.995   3.287  14.720  0.00  0.00    +0.000 C 
ATOM      4  C   UNL     1       5.330   3.567  16.211  0.00  0.00    +0.000 C 
ATOM      5  N   UNL     1       5.821   4.964  16.412  0.00  0.00    +0.000 NA
ATOM      6  C   UNL     1       6.844   5.461  15.431  0.00  0.00    +0.000 C 
ENDROOT
BRANCH   4   7
ATOM      7  C   UNL     1       4.047   3.184  16.939  0.00  0.00    +0.000 A 
ATOM      8  C   UNL     1       2.878   3.930  16.722  0.00  0.00    +0.000 A 
ATOM      9  C   UNL     1       1.759   3.749  17.539  0.00  0.00    +0.000 A 
ATOM     10  C   UNL     1       1.782   2.814  18.578  0.00  0.00    +0.000 A 
ATOM     11  C   UNL     1       0.619   2.712  19.522  0.00  0.00    +0.000 C 
ATOM     12  C   UNL     1       2.929   2.039  18.775  0.00  0.00    +0.000 A 
ATOM     13  C   UNL     1       4.052   2.226  17.967  0.00  0.00    +0.000 A 
ENDBRANCH   4   7
BRANCH   1  15
ATOM     14  C   UNL     1       7.610   5.123  11.620  0.00  0.00    +0.000 C 
ATOM     15  C   UNL     1       7.816   5.340  13.099  0.00  0.00    +0.000 C 
ATOM     16  O   UNL     1       8.807   5.947  13.513  0.00  0.00    +0.000 OA
ENDBRANCH   1  15
BRANCH   5  17
ATOM     17  S   UNL     1       6.174   5.469  18.024  0.00  0.00    +0.000 S 
ATOM     18  O   UNL     1       6.661   4.308  18.745  0.00  0.00    +0.000 OA
ATOM     19  O   UNL     1       6.962   6.678  18.000  0.00  0.00    +0.000 OA
BRANCH  17  20
ATOM     20  C   UNL     1       4.591   5.892  18.740  0.00  0.00    +0.000 A 
ATOM     21  C   UNL     1       4.166   5.267  19.917  0.00  0.00    +0.000 A 
ATOM     22  C   UNL     1       2.936   5.611  20.483  0.00  0.00    +0.000 A 
ATOM     23  C   UNL     1       2.135   6.599  19.896  0.00  0.00    +0.000 A 
ATOM     24  C   UNL     1       0.809   6.952  20.504  0.00  0.00    +0.000 C 
ATOM     25  C   UNL     1       2.613   7.286  18.773  0.00  0.00    +0.000 A 
ATOM     26  C   UNL     1       3.836   6.934  18.190  0.00  0.00    +0.000 A 
ENDBRANCH  17  20
ENDBRANCH   5  17
TORSDOF 4
ENDMDL
MODEL 2
REMARK VINA RESULT:      -6.4      2.547      3.527
REMARK  Name = 
REMARK  7 active torsions:
REMARK  status: ('A' for Active; 'I' for Inactive)
REMARK    1  A    between atoms: C_1  and  C_2
REMARK    2  A    between atoms: C_2  and  C_4
REMARK    3  A    between atoms: C_7  and  C_8
REMARK    4  A    between atoms: C_11  and  C_12
REMARK    5  A    between atoms: N_15  and  S_16
REMARK    6  A    between atoms: S_16  and  C_19
REMARK    7  A    between atoms: C_22  and  C_23
REMARK                            x       y       z     vdW  Elec       q    Type
REMARK                         _______ _______ _______ _____ _____    ______ ____
ROOT
ATOM      1  C   UNL     1       6.650   4.702  14.280  0.00  0.00    +0.000 C 
ATOM      2  C   UNL     1       5.493   4.047  14.134  0.00  0.00    +0.000 C 
ATOM      3  C   UNL     1       4.622   3.773  15.308  0.00  0.00    +0.000 C 
ATOM      4  C   UNL     1       5.341   3.816  16.685  0.00  0.00    +0.000 C 
ATOM      5  N   UNL     1       6.281   4.973  16.780  0.00  0.00    +0.000 NA
ATOM      6  C   UNL     1       7.173   5.209  15.595  0.00  0.00    +0.000 C 
ENDROOT
BRANCH   4   7
ATOM      7  C   UNL     1       4.190   3.790  17.684  0.00  0.00    +0.000 A 
ATOM      8  C   UNL     1       4.037   2.685  18.537  0.00  0.00    +0.000 A 
ATOM      9  C   UNL     1       2.873   2.530  19.294  0.00  0.00    +0.000 A 
ATOM     10  C   UNL     1       1.847   3.477  19.223  0.00  0.00    +0.000 A 
ATOM     11  C   UNL     1       0.555   3.239  19.949  0.00  0.00    +0.000 C 
ATOM     12  C   UNL     1       2.009   4.599  18.406  0.00  0.00    +0.000 A 
ATOM     13  C   UNL     1       3.166   4.752  17.641  0.00  0.00    +0.000 A 
ENDBRANCH   4   7
BRANCH   1  15
ATOM     14  C   UNL     1       7.300   4.260  11.797  0.00  0.00    +0.000 C 
ATOM     15  C   UNL     1       7.534   4.983  13.101  0.00  0.00    +0.000 C 
ATOM     16  O   UNL     1       8.454   5.796  13.214  0.00  0.00    +0.000 OA
ENDBRANCH   1  15
BRANCH   5  17
ATOM     17  S   UNL     1       7.112   5.215  18.273  0.00  0.00    +0.000 S 
ATOM     18  O   UNL     1       6.131   5.112  19.337  0.00  0.00    +0.000 OA
ATOM     19  O   UNL     1       8.299   4.394  18.314  0.00  0.00    +0.000 OA
BRANCH  17  20
ATOM     20  C   UNL     1       7.657   6.917  18.237  0.00  0.00    +0.000 A 
ATOM     21  C   UNL     1       7.066   7.822  17.350  0.00  0.00    +0.000 A 
ATOM     22  C   UNL     1       7.482   9.156  17.336  0.00  0.00    +0.000 A 
ATOM     23  C   UNL     1       8.470   9.602  18.223  0.00  0.00    +0.000 A 
ATOM     24  C   UNL     1       8.920  11.033  18.190  0.00  0.00    +0.000 C 
ATOM     25  C   UNL     1       8.987   8.711  19.172  0.00  0.00    +0.000 A 
ATOM     26  C   UNL     1       8.587   7.369  19.180  0.00  0.00    +0.000 A 
ENDBRANCH  17  20
ENDBRANCH   5  17
TORSDOF 4
ENDMDL
MODEL 3
REMARK VINA RESULT:      -6.3      0.677      1.211
REMARK  Name = 
REMARK  7 active torsions:
REMARK  status: ('A' for Active; 'I' for Inactive)
REMARK    1  A    between atoms: C_1  and  C_2
REMARK    2  A    between atoms: C_2  and  C_4
REMARK    3  A    between atoms: C_7  and  C_8
REMARK    4  A    between atoms: C_11  and  C_12
REMARK    5  A    between atoms: N_15  and  S_16
REMARK    6  A    between atoms: S_16  and  C_19
REMARK    7  A    between atoms: C_22  and  C_23
REMARK                            x       y       z     vdW  Elec       q    Type
REMARK                         _______ _______ _______ _____ _____    ______ ____
ROOT
ATOM      1  C   UNL     1       6.709   4.697  14.250  0.00  0.00    +0.000 C 
ATOM      2  C   UNL     1       5.926   3.641  13.999  0.00  0.00    +0.000 C 
ATOM      3  C   UNL     1       4.929   3.181  15.001  0.00  0.00    +0.000 C 
ATOM      4  C   UNL     1       5.204   3.634  16.461  0.00  0.00    +0.000 C 
ATOM      5  N   UNL     1       5.631   5.065  16.522  0.00  0.00    +0.000 NA
ATOM      6  C   UNL     1       6.665   5.498  15.522  0.00  0.00    +0.000 C 
ENDROOT
BRANCH   4   7
ATOM      7  C   UNL     1       3.914   3.277  17.190  0.00  0.00    +0.000 A 
ATOM      8  C   UNL     1       2.748   4.020  16.942  0.00  0.00    +0.000 A 
ATOM      9  C   UNL     1       1.623   3.866  17.755  0.00  0.00    +0.000 A 
ATOM     10  C   UNL     1       1.635   2.963  18.822  0.00  0.00    +0.000 A 
ATOM     11  C   UNL     1       0.464   2.892  19.759  0.00  0.00    +0.000 C 
ATOM     12  C   UNL     1       2.778   2.191  19.051  0.00  0.00    +0.000 A 
ATOM     13  C   UNL     1       3.908   2.350  18.246  0.00  0.00    +0.000 A 
ENDBRANCH   4   7
BRANCH   1  15
ATOM     14  C   UNL     1       7.561   4.794  11.791  0.00  0.00    +0.000 C 
ATOM     15  C   UNL     1       7.717   5.168  13.244  0.00  0.00    +0.000 C 
ATOM     16  O   UNL     1       8.674   5.849  13.620  0.00  0.00    +0.000 OA
ENDBRANCH   1  15
BRANCH   5  17
ATOM     17  S   UNL     1       5.910   5.756  18.079  0.00  0.00    +0.000 S 
ATOM     18  O   UNL     1       6.022   4.662  19.025  0.00  0.00    +0.000 OA
ATOM     19  O   UNL     1       6.963   6.741  17.998  0.00  0.00    +0.000 OA
BRANCH  17  20
ATOM     20  C   UNL     1       4.405   6.633  18.480  0.00  0.00    +0.000 A 
ATOM     21  C   UNL     1       3.919   7.620  17.616  0.00  0.00    +0.000 A 
ATOM     22  C   UNL     1       2.734   8.292  17.924  0.00  0.00    +0.000 A 
ATOM     23  C   UNL     1       2.011   7.967  19.079  0.00  0.00    +0.000 A 
ATOM     24  C   UNL     1       0.746   8.705  19.408  0.00  0.00    +0.000 C 
ATOM     25  C   UNL     1       2.455   6.912  19.886  0.00  0.00    +0.000 A 
ATOM     26  C   UNL     1       3.651   6.246  19.594  0.00  0.00    +0.000 A 
ENDBRANCH  17  20
ENDBRANCH   5  17
TORSDOF 4
ENDMDL
MODEL 4
REMARK VINA RESULT:      -6.2      2.505      3.270
REMARK  Name = 
REMARK  7 active torsions:
REMARK  status: ('A' for Active; 'I' for Inactive)
REMARK    1  A    between atoms: C_1  and  C_2
REMARK    2  A    between atoms: C_2  and  C_4
REMARK    3  A    between atoms: C_7  and  C_8
REMARK    4  A    between atoms: C_11  and  C_12
REMARK    5  A    between atoms: N_15  and  S_16
REMARK    6  A    between atoms: S_16  and  C_19
REMARK    7  A    between atoms: C_22  and  C_23
REMARK                            x       y       z     vdW  Elec       q    Type
REMARK                         _______ _______ _______ _____ _____    ______ ____
ROOT
ATOM      1  C   UNL     1       6.686   4.768  14.268  0.00  0.00    +0.000 C 
ATOM      2  C   UNL     1       5.574   4.066  14.021  0.00  0.00    +0.000 C 
ATOM      3  C   UNL     1       4.630   3.728  15.119  0.00  0.00    +0.000 C 
ATOM      4  C   UNL     1       5.239   3.772  16.548  0.00  0.00    +0.000 C 
ATOM      5  N   UNL     1       6.115   4.968  16.737  0.00  0.00    +0.000 NA
ATOM      6  C   UNL     1       7.084   5.269  15.629  0.00  0.00    +0.000 C 
ENDROOT
BRANCH   4   7
ATOM      7  C   UNL     1       4.017   3.674  17.455  0.00  0.00    +0.000 A 
ATOM      8  C   UNL     1       3.100   4.735  17.502  0.00  0.00    +0.000 A 
ATOM      9  C   UNL     1       2.107   4.771  18.482  0.00  0.00    +0.000 A 
ATOM     10  C   UNL     1       2.001   3.745  19.426  0.00  0.00    +0.000 A 
ATOM     11  C   UNL     1       1.007   3.854  20.545  0.00  0.00    +0.000 C 
ATOM     12  C   UNL     1       2.886   2.665  19.361  0.00  0.00    +0.000 A 
ATOM     13  C   UNL     1       3.886   2.632  18.389  0.00  0.00    +0.000 A 
ENDBRANCH   4   7
BRANCH   1  15
ATOM     14  C   UNL     1       7.430   4.552  11.782  0.00  0.00    +0.000 C 
ATOM     15  C   UNL     1       7.643   5.113  13.167  0.00  0.00    +0.000 C 
ATOM     16  O   UNL     1       8.606   5.845  13.408  0.00  0.00    +0.000 OA
ENDBRANCH   1  15
BRANCH   5  17
ATOM     17  S   UNL     1       6.818   5.212  18.294  0.00  0.00    +0.000 S 
ATOM     18  O   UNL     1       5.743   5.171  19.267  0.00  0.00    +0.000 OA
ATOM     19  O   UNL     1       7.964   4.349  18.458  0.00  0.00    +0.000 OA
BRANCH  17  20
ATOM     20  C   UNL     1       7.431   6.892  18.274  0.00  0.00    +0.000 A 
ATOM     21  C   UNL     1       8.504   7.255  19.093  0.00  0.00    +0.000 A 
ATOM     22  C   UNL     1       8.991   8.564  19.064  0.00  0.00    +0.000 A 
ATOM     23  C   UNL     1       8.430   9.512  18.199  0.00  0.00    +0.000 A 
ATOM     24  C   UNL     1       8.951  10.919  18.185  0.00  0.00    +0.000 C 
ATOM     25  C   UNL     1       7.420   9.114  17.315  0.00  0.00    +0.000 A 
ATOM     26  C   UNL     1       6.915   7.809  17.351  0.00  0.00    +0.000 A 
ENDBRANCH  17  20
ENDBRANCH   5  17
TORSDOF 4
ENDMDL
MODEL 5
REMARK VINA RESULT:      -6.2      2.461      3.364
REMARK  Name = 
REMARK  7 active torsions:
REMARK  status: ('A' for Active; 'I' for Inactive)
REMARK    1  A    between atoms: C_1  and  C_2
REMARK    2  A    between atoms: C_2  and  C_4
REMARK    3  A    between atoms: C_7  and  C_8
REMARK    4  A    between atoms: C_11  and  C_12
REMARK    5  A    between atoms: N_15  and  S_16
REMARK    6  A    between atoms: S_16  and  C_19
REMARK    7  A    between atoms: C_22  and  C_23
REMARK                            x       y       z     vdW  Elec       q    Type
REMARK                         _______ _______ _______ _____ _____    ______ ____
ROOT
ATOM      1  C   UNL     1       6.773   4.808  14.204  0.00  0.00    +0.000 C 
ATOM      2  C   UNL     1       5.669   4.094  13.958  0.00  0.00    +0.000 C 
ATOM      3  C   UNL     1       4.743   3.725  15.062  0.00  0.00    +0.000 C 
ATOM      4  C   UNL     1       5.369   3.755  16.484  0.00  0.00    +0.000 C 
ATOM      5  N   UNL     1       6.230   4.960  16.682  0.00  0.00    +0.000 NA
ATOM      6  C   UNL     1       7.180   5.293  15.568  0.00  0.00    +0.000 C 
ENDROOT
BRANCH   4   7
ATOM      7  C   UNL     1       4.160   3.622  17.404  0.00  0.00    +0.000 A 
ATOM      8  C   UNL     1       3.959   2.431  18.118  0.00  0.00    +0.000 A 
ATOM      9  C   UNL     1       2.753   2.198  18.782  0.00  0.00    +0.000 A 
ATOM     10  C   UNL     1       1.730   3.151  18.756  0.00  0.00    +0.000 A 
ATOM     11  C   UNL     1       0.397   2.840  19.372  0.00  0.00    +0.000 C 
ATOM     12  C   UNL     1       1.939   4.357  18.080  0.00  0.00    +0.000 A 
ATOM     13  C   UNL     1       3.139   4.588  17.407  0.00  0.00    +0.000 A 
ENDBRANCH   4   7
BRANCH   1  15
ATOM     14  C   UNL     1       7.445   4.710  11.689  0.00  0.00    +0.000 C 
ATOM     15  C   UNL     1       7.711   5.186  13.096  0.00  0.00    +0.000 C 
ATOM     16  O   UNL     1       8.702   5.875  13.350  0.00  0.00    +0.000 OA
ENDBRANCH   1  15
BRANCH   5  17
ATOM     17  S   UNL     1       6.948   5.189  18.234  0.00  0.00    +0.000 S 
ATOM     18  O   UNL     1       5.890   5.091  19.221  0.00  0.00    +0.000 OA
ATOM     19  O   UNL     1       8.123   4.358  18.361  0.00  0.00    +0.000 OA
BRANCH  17  20
ATOM     20  C   UNL     1       7.508   6.887  18.246  0.00  0.00    +0.000 A 
ATOM     21  C   UNL     1       8.541   7.277  19.104  0.00  0.00    +0.000 A 
ATOM     22  C   UNL     1       8.987   8.601  19.100  0.00  0.00    +0.000 A 
ATOM     23  C   UNL     1       8.425   9.538  18.223  0.00  0.00    +0.000 A 
ATOM     24  C   UNL     1       8.902  10.961  18.236  0.00  0.00    +0.000 C 
ATOM     25  C   UNL     1       7.458   9.115  17.302  0.00  0.00    +0.000 A 
ATOM     26  C   UNL     1       6.994   7.795  17.313  0.00  0.00    +0.000 A 
ENDBRANCH  17  20
ENDBRANCH   5  17
TORSDOF 4
ENDMDL
MODEL 6
REMARK VINA RESULT:      -6.1      0.953      1.106
REMARK  Name = 
REMARK  7 active torsions:
REMARK  status: ('A' for Active; 'I' for Inactive)
REMARK    1  A    between atoms: C_1  and  C_2
REMARK    2  A    between atoms: C_2  and  C_4
REMARK    3  A    between atoms: C_7  and  C_8
REMARK    4  A    between atoms: C_11  and  C_12
REMARK    5  A    between atoms: N_15  and  S_16
REMARK    6  A    between atoms: S_16  and  C_19
REMARK    7  A    between atoms: C_22  and  C_23
REMARK                            x       y       z     vdW  Elec       q    Type
REMARK                         _______ _______ _______ _____ _____    ______ ____
ROOT
ATOM      1  C   UNL     1       6.609   4.662  14.271  0.00  0.00    +0.000 C 
ATOM      2  C   UNL     1       5.918   3.517  14.211  0.00  0.00    +0.000 C 
ATOM      3  C   UNL     1       4.987   3.135  15.305  0.00  0.00    +0.000 C 
ATOM      4  C   UNL     1       5.251   3.831  16.669  0.00  0.00    +0.000 C 
ATOM      5  N   UNL     1       5.552   5.285  16.497  0.00  0.00    +0.000 NA
ATOM      6  C   UNL     1       6.521   5.643  15.407  0.00  0.00    +0.000 C 
ENDROOT
BRANCH   4   7
ATOM      7  C   UNL     1       4.014   3.483  17.488  0.00  0.00    +0.000 A 
ATOM      8  C   UNL     1       2.759   3.974  17.092  0.00  0.00    +0.000 A 
ATOM      9  C   UNL     1       1.655   3.865  17.940  0.00  0.00    +0.000 A 
ATOM     10  C   UNL     1       1.778   3.255  19.193  0.00  0.00    +0.000 A 
ATOM     11  C   UNL     1       0.616   3.250  20.143  0.00  0.00    +0.000 C 
ATOM     12  C   UNL     1       3.015   2.729  19.578  0.00  0.00    +0.000 A 
ATOM     13  C   UNL     1       4.122   2.846  18.736  0.00  0.00    +0.000 A 
ENDBRANCH   4   7
BRANCH   1  15
ATOM     14  C   UNL     1       7.368   4.484  11.786  0.00  0.00    +0.000 C 
ATOM     15  C   UNL     1       7.550   5.055  13.172  0.00  0.00    +0.000 C 
ATOM     16  O   UNL     1       8.474   5.835  13.415  0.00  0.00    +0.000 OA
ENDBRANCH   1  15
BRANCH   5  17
ATOM     17  S   UNL     1       5.801   6.229  17.919  0.00  0.00    +0.000 S 
ATOM     18  O   UNL     1       6.057   5.309  19.011  0.00  0.00    +0.000 OA
ATOM     19  O   UNL     1       6.739   7.292  17.646  0.00  0.00    +0.000 OA
BRANCH  17  20
ATOM     20  C   UNL     1       4.223   7.000  18.254  0.00  0.00    +0.000 A 
ATOM     21  C   UNL     1       3.515   6.669  19.413  0.00  0.00    +0.000 A 
ATOM     22  C   UNL     1       2.289   7.284  19.680  0.00  0.00    +0.000 A 
ATOM     23  C   UNL     1       1.776   8.253  18.809  0.00  0.00    +0.000 A 
ATOM     24  C   UNL     1       0.451   8.898  19.097  0.00  0.00    +0.000 C 
ATOM     25  C   UNL     1       2.537   8.647  17.702  0.00  0.00    +0.000 A 
ATOM     26  C   UNL     1       3.757   8.021  17.418  0.00  0.00    +0.000 A 
ENDBRANCH  17  20
ENDBRANCH   5  17
TORSDOF 4
ENDMDL
MODEL 7
REMARK VINA RESULT:      -6.0      0.343      1.382
REMARK  Name = 
REMARK  7 active torsions:
REMARK  status: ('A' for Active; 'I' for Inactive)
REMARK    1  A    between atoms: C_1  and  C_2
REMARK    2  A    between atoms: C_2  and  C_4
REMARK    3  A    between atoms: C_7  and  C_8
REMARK    4  A    between atoms: C_11  and  C_12
REMARK    5  A    between atoms: N_15  and  S_16
REMARK    6  A    between atoms: S_16  and  C_19
REMARK    7  A    between atoms: C_22  and  C_23
REMARK                            x       y       z     vdW  Elec       q    Type
REMARK                         _______ _______ _______ _____ _____    ______ ____
ROOT
ATOM      1  C   UNL     1       6.831   4.767  13.984  0.00  0.00    +0.000 C 
ATOM      2  C   UNL     1       5.986   3.750  13.778  0.00  0.00    +0.000 C 
ATOM      3  C   UNL     1       5.039   3.323  14.841  0.00  0.00    +0.000 C 
ATOM      4  C   UNL     1       5.433   3.746  16.284  0.00  0.00    +0.000 C 
ATOM      5  N   UNL     1       5.927   5.156  16.328  0.00  0.00    +0.000 NA
ATOM      6  C   UNL     1       6.909   5.554  15.264  0.00  0.00    +0.000 C 
ENDROOT
BRANCH   4   7
ATOM      7  C   UNL     1       4.180   3.438  17.096  0.00  0.00    +0.000 A 
ATOM      8  C   UNL     1       4.183   2.358  17.992  0.00  0.00    +0.000 A 
ATOM      9  C   UNL     1       2.993   1.915  18.573  0.00  0.00    +0.000 A 
ATOM     10  C   UNL     1       1.781   2.547  18.281  0.00  0.00    +0.000 A 
ATOM     11  C   UNL     1       0.494   1.990  18.817  0.00  0.00    +0.000 C 
ATOM     12  C   UNL     1       1.776   3.649  17.421  0.00  0.00    +0.000 A 
ATOM     13  C   UNL     1       2.963   4.087  16.831  0.00  0.00    +0.000 A 
ENDBRANCH   4   7
BRANCH   1  15
ATOM     14  C   UNL     1       7.574   4.768  11.488  0.00  0.00    +0.000 C 
ATOM     15  C   UNL     1       7.788   5.205  12.917  0.00  0.00    +0.000 C 
ATOM     16  O   UNL     1       8.753   5.912  13.221  0.00  0.00    +0.000 OA
ENDBRANCH   1  15
BRANCH   5  17
ATOM     17  S   UNL     1       6.342   5.815  17.868  0.00  0.00    +0.000 S 
ATOM     18  O   UNL     1       6.980   4.761  18.634  0.00  0.00    +0.000 OA
ATOM     19  O   UNL     1       7.016   7.081  17.696  0.00  0.00    +0.000 OA
BRANCH  17  20
ATOM     20  C   UNL     1       4.780   6.160  18.667  0.00  0.00    +0.000 A 
ATOM     21  C   UNL     1       3.927   7.136  18.143  0.00  0.00    +0.000 A 
ATOM     22  C   UNL     1       2.700   7.392  18.760  0.00  0.00    +0.000 A 
ATOM     23  C   UNL     1       2.304   6.659  19.886  0.00  0.00    +0.000 A 
ATOM     24  C   UNL     1       0.990   6.951  20.550  0.00  0.00    +0.000 C 
ATOM     25  C   UNL     1       3.122   5.619  20.345  0.00  0.00    +0.000 A 
ATOM     26  C   UNL     1       4.361   5.369  19.743  0.00  0.00    +0.000 A 
ENDBRANCH  17  20
ENDBRANCH   5  17
TORSDOF 4
ENDMDL
MODEL 8
REMARK VINA RESULT:      -5.7      7.001     10.523
REMARK  Name = 
REMARK  7 active torsions:
REMARK  status: ('A' for Active; 'I' for Inactive)
REMARK    1  A    between atoms: C_1  and  C_2
REMARK    2  A    between atoms: C_2  and  C_4
REMARK    3  A    between atoms: C_7  and  C_8
REMARK    4  A    between atoms: C_11  and  C_12
REMARK    5  A    between atoms: N_15  and  S_16
REMARK    6  A    between atoms: S_16  and  C_19
REMARK    7  A    between atoms: C_22  and  C_23
REMARK                            x       y       z     vdW  Elec       q    Type
REMARK                         _______ _______ _______ _____ _____    ______ ____
ROOT
ATOM      1  C   UNL     1       0.930   8.776  20.758  0.00  0.00    +0.000 C 
ATOM      2  C   UNL     1       1.000   9.094  22.056  0.00  0.00    +0.000 C 
ATOM      3  C   UNL     1       0.285  10.286  22.585  0.00  0.00    +0.000 C 
ATOM      4  C   UNL     1      -0.078  11.361  21.523  0.00  0.00    +0.000 C 
ATOM      5  N   UNL     1      -0.606  10.741  20.270  0.00  0.00    +0.000 NA
ATOM      6  C   UNL     1       0.153   9.560  19.737  0.00  0.00    +0.000 C 
ENDROOT
BRANCH   4   7
ATOM      7  C   UNL     1      -1.024  12.292  22.273  0.00  0.00    +0.000 A 
ATOM      8  C   UNL     1      -0.618  13.602  22.569  0.00  0.00    +0.000 A 
ATOM      9  C   UNL     1      -1.362  14.395  23.446  0.00  0.00    +0.000 A 
ATOM     10  C   UNL     1      -2.530  13.900  24.034  0.00  0.00    +0.000 A 
ATOM     11  C   UNL     1      -3.256  14.716  25.064  0.00  0.00    +0.000 C 
ATOM     12  C   UNL     1      -2.963  12.610  23.713  0.00  0.00    +0.000 A 
ATOM     13  C   UNL     1      -2.215  11.812  22.846  0.00  0.00    +0.000 A 
ENDBRANCH   4   7
BRANCH   1  15
ATOM     14  C   UNL     1       2.359   7.660  18.888  0.00  0.00    +0.000 C 
ATOM     15  C   UNL     1       1.647   7.576  20.216  0.00  0.00    +0.000 C 
ATOM     16  O   UNL     1       1.637   6.523  20.859  0.00  0.00    +0.000 OA
ENDBRANCH   1  15
BRANCH   5  17
ATOM     17  S   UNL     1      -1.127  11.797  19.008  0.00  0.00    +0.000 S 
ATOM     18  O   UNL     1      -1.099  11.041  17.771  0.00  0.00    +0.000 OA
ATOM     19  O   UNL     1      -2.339  12.475  19.403  0.00  0.00    +0.000 OA
BRANCH  17  20
ATOM     20  C   UNL     1       0.149  13.042  18.880  0.00  0.00    +0.000 A 
ATOM     21  C   UNL     1       1.446  12.679  18.504  0.00  0.00    +0.000 A 
ATOM     22  C   UNL     1       2.438  13.656  18.390  0.00  0.00    +0.000 A 
ATOM     23  C   UNL     1       2.137  15.004  18.621  0.00  0.00    +0.000 A 
ATOM     24  C   UNL     1       3.213  16.045  18.509  0.00  0.00    +0.000 C 
ATOM     25  C   UNL     1       0.815  15.369  18.903  0.00  0.00    +0.000 A 
ATOM     26  C   UNL     1      -0.180  14.394  19.037  0.00  0.00    +0.000 A 
ENDBRANCH  17  20
ENDBRANCH   5  17
TORSDOF 4
ENDMDL
MODEL 9
REMARK VINA RESULT:      -5.7      7.087     10.500
REMARK  Name = 
REMARK  7 active torsions:
REMARK  status: ('A' for Active; 'I' for Inactive)
REMARK    1  A    between atoms: C_1  and  C_2
REMARK    2  A    between atoms: C_2  and  C_4
REMARK    3  A    between atoms: C_7  and  C_8
REMARK    4  A    between atoms: C_11  and  C_12
REMARK    5  A    between atoms: N_15  and  S_16
REMARK    6  A    between atoms: S_16  and  C_19
REMARK    7  A    between atoms: C_22  and  C_23
REMARK                            x       y       z     vdW  Elec       q    Type
REMARK                         _______ _______ _______ _____ _____    ______ ____
ROOT
ATOM      1  C   UNL     1       1.091   8.961  20.353  0.00  0.00    +0.000 C 
ATOM      2  C   UNL     1       1.252   9.134  21.671  0.00  0.00    +0.000 C 
ATOM      3  C   UNL     1       0.534  10.222  22.386  0.00  0.00    +0.000 C 
ATOM      4  C   UNL     1       0.045  11.391  21.487  0.00  0.00    +0.000 C 
ATOM      5  N   UNL     1      -0.556  10.892  20.214  0.00  0.00    +0.000 NA
ATOM      6  C   UNL     1       0.203   9.817  19.491  0.00  0.00    +0.000 C 
ENDROOT
BRANCH   4   7
ATOM      7  C   UNL     1      -0.874  12.184  22.410  0.00  0.00    +0.000 A 
ATOM      8  C   UNL     1      -2.043  11.586  22.906  0.00  0.00    +0.000 A 
ATOM      9  C   UNL     1      -3.010  12.353  23.558  0.00  0.00    +0.000 A 
ATOM     10  C   UNL     1      -2.826  13.727  23.739  0.00  0.00    +0.000 A 
ATOM     11  C   UNL     1      -3.922  14.561  24.335  0.00  0.00    +0.000 C 
ATOM     12  C   UNL     1      -1.646  14.323  23.283  0.00  0.00    +0.000 A 
ATOM     13  C   UNL     1      -0.682  13.560  22.621  0.00  0.00    +0.000 A 
ENDBRANCH   4   7
BRANCH   1  15
ATOM     14  C   UNL     1       2.241   8.073  18.192  0.00  0.00    +0.000 C 
ATOM     15  C   UNL     1       1.809   7.866  19.624  0.00  0.00    +0.000 C 
ATOM     16  O   UNL     1       2.031   6.798  20.200  0.00  0.00    +0.000 OA
ENDBRANCH   1  15
BRANCH   5  17
ATOM     17  S   UNL     1      -1.219  12.057  19.126  0.00  0.00    +0.000 S 
ATOM     18  O   UNL     1      -1.337  11.420  17.828  0.00  0.00    +0.000 OA
ATOM     19  O   UNL     1      -2.374  12.685  19.721  0.00  0.00    +0.000 OA
BRANCH  17  20
ATOM     20  C   UNL     1       0.037  13.319  18.968  0.00  0.00    +0.000 A 
ATOM     21  C   UNL     1       1.316  12.980  18.515  0.00  0.00    +0.000 A 
ATOM     22  C   UNL     1       2.291  13.971  18.378  0.00  0.00    +0.000 A 
ATOM     23  C   UNL     1       1.990  15.309  18.663  0.00  0.00    +0.000 A 
ATOM     24  C   UNL     1       3.049  16.365  18.525  0.00  0.00    +0.000 C 
ATOM     25  C   UNL     1       0.681  15.652  19.022  0.00  0.00    +0.000 A 
ATOM     26  C   UNL     1      -0.296  14.662  19.180  0.00  0.00    +0.000 A 
ENDBRANCH  17  20
ENDBRANCH   5  17
TORSDOF 4
ENDMDL
