MODEL 1
REMARK VINA RESULT:      -7.1      0.000      0.000
REMARK  Name = 
REMARK  9 active torsions:
REMARK  status: ('A' for Active; 'I' for Inactive)
REMARK    1  A    between atoms: C_1  and  C_2
REMARK    2  A    between atoms: C_2  and  C_3
REMARK    3  A    between atoms: C_3  and  N_4
REMARK    4  A    between atoms: N_4  and  C_5
REMARK    5  A    between atoms: N_4  and  C_8
REMARK    6  A    between atoms: C_5  and  C_6
REMARK    7  A    between atoms: C_6  and  C_7
REMARK    8  A    between atoms: C_15  and  O_16
REMARK    9  A    between atoms: C_17  and  O_18
REMARK                            x       y       z     vdW  Elec       q    Type
REMARK                         _______ _______ _______ _____ _____    ______ ____
ROOT
ATOM      1  C   UNL     1       5.358   4.768  17.403  0.00  0.00    +0.000 C 
ATOM      2  C   UNL     1       4.439   3.841  16.578  0.00  0.00    +0.000 C 
ATOM      3  C   UNL     1       3.699   2.861  17.497  0.00  0.00    +0.000 C 
ATOM      4  C   UNL     1       3.053   3.524  18.688  0.00  0.00    +0.000 A 
ATOM      5  C   UNL     1       3.372   4.853  19.038  0.00  0.00    +0.000 A 
ATOM      6  C   UNL     1       2.718   5.459  20.121  0.00  0.00    +0.000 A 
ATOM      7  C   UNL     1       1.787   4.746  20.875  0.00  0.00    +0.000 A 
ATOM      8  C   UNL     1       1.492   3.415  20.559  0.00  0.00    +0.000 A 
ATOM      9  C   UNL     1       2.123   2.800  19.463  0.00  0.00    +0.000 A 
ATOM     10  C   UNL     1       4.429   5.643  18.298  0.00  0.00    +0.000 C 
ENDROOT
BRANCH   8  11
ATOM     11  O   UNL     1       0.601   2.722  21.301  0.00  0.00    +0.000 OA
ATOM     12  H   UNL     1      -0.349   2.903  21.266  0.00  0.00    +0.000 HD
ENDBRANCH   8  11
BRANCH   9  13
ATOM     13  O   UNL     1       1.841   1.518  19.136  0.00  0.00    +0.000 OA
ATOM     14  H   UNL     1       2.391   0.772  19.414  0.00  0.00    +0.000 HD
ENDBRANCH   9  13
BRANCH   1  15
ATOM     15  N   UNL     1       6.279   5.600  16.548  0.00  0.00    +0.000 NA
BRANCH  15  16
ATOM     16  C   UNL     1       5.891   5.538  15.106  0.00  0.00    +0.000 C 
BRANCH  16  18
ATOM     17  C   UNL     1       6.200   3.747  13.304  0.00  0.00    +0.000 C 
ATOM     18  C   UNL     1       6.877   4.802  14.174  0.00  0.00    +0.000 C 
ENDBRANCH  16  18
ENDBRANCH  15  16
BRANCH  15  19
ATOM     19  C   UNL     1       6.408   7.010  17.035  0.00  0.00    +0.000 C 
BRANCH  19  20
ATOM     20  C   UNL     1       7.708   7.295  17.825  0.00  0.00    +0.000 C 
ATOM     21  C   UNL     1       8.046   8.782  17.839  0.00  0.00    +0.000 C 
ENDBRANCH  19  20
ENDBRANCH  15  19
ENDBRANCH   1  15
TORSDOF 7
ENDMDL
MODEL 2
REMARK VINA RESULT:      -7.0      0.419      2.738
REMARK  Name = 
REMARK  9 active torsions:
REMARK  status: ('A' for Active; 'I' for Inactive)
REMARK    1  A    between atoms: C_1  and  C_2
REMARK    2  A    between atoms: C_2  and  C_3
REMARK    3  A    between atoms: C_3  and  N_4
REMARK    4  A    between atoms: N_4  and  C_5
REMARK    5  A    between atoms: N_4  and  C_8
REMARK    6  A    between atoms: C_5  and  C_6
REMARK    7  A    between atoms: C_6  and  C_7
REMARK    8  A    between atoms: C_15  and  O_16
REMARK    9  A    between atoms: C_17  and  O_18
REMARK                            x       y       z     vdW  Elec       q    Type
REMARK                         _______ _______ _______ _____ _____    ______ ____
ROOT
ATOM      1  C   UNL     1       5.046   4.916  17.212  0.00  0.00    +0.000 C 
ATOM      2  C   UNL     1       4.180   3.867  16.481  0.00  0.00    +0.000 C 
ATOM      3  C   UNL     1       3.565   2.884  17.486  0.00  0.00    +0.000 C 
ATOM      4  C   UNL     1       2.912   3.559  18.665  0.00  0.00    +0.000 A 
ATOM      5  C   UNL     1       3.127   4.929  18.926  0.00  0.00    +0.000 A 
ATOM      6  C   UNL     1       2.467   5.541  20.002  0.00  0.00    +0.000 A 
ATOM      7  C   UNL     1       1.632   4.797  20.835  0.00  0.00    +0.000 A 
ATOM      8  C   UNL     1       1.441   3.431  20.607  0.00  0.00    +0.000 A 
ATOM      9  C   UNL     1       2.079   2.806  19.520  0.00  0.00    +0.000 A 
ATOM     10  C   UNL     1       4.081   5.760  18.097  0.00  0.00    +0.000 C 
ENDROOT
BRANCH   8  11
ATOM     11  O   UNL     1       0.644   2.710  21.426  0.00  0.00    +0.000 OA
ATOM     12  H   UNL     1       0.412   1.789  21.239  0.00  0.00    +0.000 HD
ENDBRANCH   8  11
BRANCH   9  13
ATOM     13  O   UNL     1       1.897   1.488  19.278  0.00  0.00    +0.000 OA
ATOM     14  H   UNL     1       1.572   1.149  18.432  0.00  0.00    +0.000 HD
ENDBRANCH   9  13
BRANCH   1  15
ATOM     15  N   UNL     1       5.858   5.770  16.271  0.00  0.00    +0.000 NA
BRANCH  15  16
ATOM     16  C   UNL     1       6.238   7.070  16.904  0.00  0.00    +0.000 C 
BRANCH  16  18
ATOM     17  C   UNL     1       8.126   8.482  17.901  0.00  0.00    +0.000 C 
ATOM     18  C   UNL     1       7.573   7.077  17.678  0.00  0.00    +0.000 C 
ENDBRANCH  16  18
ENDBRANCH  15  16
BRANCH  15  19
ATOM     19  C   UNL     1       7.045   5.050  15.712  0.00  0.00    +0.000 C 
BRANCH  19  20
ATOM     20  C   UNL     1       7.076   4.978  14.165  0.00  0.00    +0.000 C 
ATOM     21  C   UNL     1       6.186   3.859  13.634  0.00  0.00    +0.000 C 
ENDBRANCH  19  20
ENDBRANCH  15  19
ENDBRANCH   1  15
TORSDOF 7
ENDMDL
MODEL 3
REMARK VINA RESULT:      -6.9      0.943      2.722
REMARK  Name = 
REMARK  9 active torsions:
REMARK  status: ('A' for Active; 'I' for Inactive)
REMARK    1  A    between atoms: C_1  and  C_2
REMARK    2  A    between atoms: C_2  and  C_3
REMARK    3  A    between atoms: C_3  and  N_4
REMARK    4  A    between atoms: N_4  and  C_5
REMARK    5  A    between atoms: N_4  and  C_8
REMARK    6  A    between atoms: C_5  and  C_6
REMARK    7  A    between atoms: C_6  and  C_7
REMARK    8  A    between atoms: C_15  and  O_16
REMARK    9  A    between atoms: C_17  and  O_18
REMARK                            x       y       z     vdW  Elec       q    Type
REMARK                         _______ _______ _______ _____ _____    ______ ____
ROOT
ATOM      1  C   UNL     1       5.019   4.974  17.276  0.00  0.00    +0.000 C 
ATOM      2  C   UNL     1       4.136   3.967  16.509  0.00  0.00    +0.000 C 
ATOM      3  C   UNL     1       3.513   2.952  17.476  0.00  0.00    +0.000 C 
ATOM      4  C   UNL     1       2.874   3.588  18.685  0.00  0.00    +0.000 A 
ATOM      5  C   UNL     1       3.109   4.943  18.999  0.00  0.00    +0.000 A 
ATOM      6  C   UNL     1       2.461   5.520  20.102  0.00  0.00    +0.000 A 
ATOM      7  C   UNL     1       1.620   4.754  20.909  0.00  0.00    +0.000 A 
ATOM      8  C   UNL     1       1.411   3.400  20.627  0.00  0.00    +0.000 A 
ATOM      9  C   UNL     1       2.036   2.812  19.513  0.00  0.00    +0.000 A 
ATOM     10  C   UNL     1       4.069   5.795  18.199  0.00  0.00    +0.000 C 
ENDROOT
BRANCH   8  11
ATOM     11  O   UNL     1       0.607   2.657  21.420  0.00  0.00    +0.000 OA
ATOM     12  H   UNL     1      -0.105   3.051  21.944  0.00  0.00    +0.000 HD
ENDBRANCH   8  11
BRANCH   9  13
ATOM     13  O   UNL     1       1.835   1.507  19.219  0.00  0.00    +0.000 OA
ATOM     14  H   UNL     1       2.205   1.083  18.432  0.00  0.00    +0.000 HD
ENDBRANCH   9  13
BRANCH   1  15
ATOM     15  N   UNL     1       5.837   5.855  16.366  0.00  0.00    +0.000 NA
BRANCH  15  16
ATOM     16  C   UNL     1       7.277   5.871  16.770  0.00  0.00    +0.000 C 
BRANCH  16  18
ATOM     17  C   UNL     1       7.894   5.817  19.254  0.00  0.00    +0.000 C 
ATOM     18  C   UNL     1       7.643   4.999  17.990  0.00  0.00    +0.000 C 
ENDBRANCH  16  18
ENDBRANCH  15  16
BRANCH  15  19
ATOM     19  C   UNL     1       5.665   5.513  14.919  0.00  0.00    +0.000 C 
BRANCH  19  20
ATOM     20  C   UNL     1       6.797   4.636  14.332  0.00  0.00    +0.000 C 
ATOM     21  C   UNL     1       6.307   3.790  13.161  0.00  0.00    +0.000 C 
ENDBRANCH  19  20
ENDBRANCH  15  19
ENDBRANCH   1  15
TORSDOF 7
ENDMDL
MODEL 4
REMARK VINA RESULT:      -6.8      1.357      3.365
REMARK  Name = 
REMARK  9 active torsions:
REMARK  status: ('A' for Active; 'I' for Inactive)
REMARK    1  A    between atoms: C_1  and  C_2
REMARK    2  A    between atoms: C_2  and  C_3
REMARK    3  A    between atoms: C_3  and  N_4
REMARK    4  A    between atoms: N_4  and  C_5
REMARK    5  A    between atoms: N_4  and  C_8
REMARK    6  A    between atoms: C_5  and  C_6
REMARK    7  A    between atoms: C_6  and  C_7
REMARK    8  A    between atoms: C_15  and  O_16
REMARK    9  A    between atoms: C_17  and  O_18
REMARK                            x       y       z     vdW  Elec       q    Type
REMARK                         _______ _______ _______ _____ _____    ______ ____
ROOT
ATOM      1  C   UNL     1       4.497   5.348  17.044  0.00  0.00    +0.000 C 
ATOM      2  C   UNL     1       3.875   6.463  17.913  0.00  0.00    +0.000 C 
ATOM      3  C   UNL     1       2.689   5.916  18.719  0.00  0.00    +0.000 C 
ATOM      4  C   UNL     1       2.993   4.626  19.436  0.00  0.00    +0.000 A 
ATOM      5  C   UNL     1       4.154   3.884  19.131  0.00  0.00    +0.000 A 
ATOM      6  C   UNL     1       4.436   2.713  19.850  0.00  0.00    +0.000 A 
ATOM      7  C   UNL     1       3.558   2.258  20.834  0.00  0.00    +0.000 A 
ATOM      8  C   UNL     1       2.386   2.966  21.118  0.00  0.00    +0.000 A 
ATOM      9  C   UNL     1       2.100   4.154  20.421  0.00  0.00    +0.000 A 
ATOM     10  C   UNL     1       5.098   4.296  18.022  0.00  0.00    +0.000 C 
ENDROOT
BRANCH   8  11
ATOM     11  O   UNL     1       1.530   2.514  22.061  0.00  0.00    +0.000 OA
ATOM     12  H   UNL     1       0.581   2.424  21.894  0.00  0.00    +0.000 HD
ENDBRANCH   8  11
BRANCH   9  13
ATOM     13  O   UNL     1       0.976   4.858  20.690  0.00  0.00    +0.000 OA
ATOM     14  H   UNL     1       0.582   5.478  20.061  0.00  0.00    +0.000 HD
ENDBRANCH   9  13
BRANCH   1  15
ATOM     15  N   UNL     1       5.517   5.866  16.062  0.00  0.00    +0.000 NA
BRANCH  15  16
ATOM     16  C   UNL     1       6.908   5.720  16.590  0.00  0.00    +0.000 C 
BRANCH  16  18
ATOM     17  C   UNL     1       7.968   6.591  18.750  0.00  0.00    +0.000 C 
ATOM     18  C   UNL     1       7.471   6.939  17.350  0.00  0.00    +0.000 C 
ENDBRANCH  16  18
ENDBRANCH  15  16
BRANCH  15  19
ATOM     19  C   UNL     1       5.368   5.264  14.699  0.00  0.00    +0.000 C 
BRANCH  19  20
ATOM     20  C   UNL     1       6.264   4.027  14.447  0.00  0.00    +0.000 C 
ATOM     21  C   UNL     1       6.215   3.580  12.990  0.00  0.00    +0.000 C 
ENDBRANCH  19  20
ENDBRANCH  15  19
ENDBRANCH   1  15
TORSDOF 7
ENDMDL
MODEL 5
REMARK VINA RESULT:      -6.7      3.764      6.335
REMARK  Name = 
REMARK  9 active torsions:
REMARK  status: ('A' for Active; 'I' for Inactive)
REMARK    1  A    between atoms: C_1  and  C_2
REMARK    2  A    between atoms: C_2  and  C_3
REMARK    3  A    between atoms: C_3  and  N_4
REMARK    4  A    between atoms: N_4  and  C_5
REMARK    5  A    between atoms: N_4  and  C_8
REMARK    6  A    between atoms: C_5  and  C_6
REMARK    7  A    between atoms: C_6  and  C_7
REMARK    8  A    between atoms: C_15  and  O_16
REMARK    9  A    between atoms: C_17  and  O_18
REMARK                            x       y       z     vdW  Elec       q    Type
REMARK                         _______ _______ _______ _____ _____    ______ ____
ROOT
ATOM      1  C   UNL     1       2.137   7.380  19.991  0.00  0.00    +0.000 C 
ATOM      2  C   UNL     1       2.548   7.086  18.532  0.00  0.00    +0.000 C 
ATOM      3  C   UNL     1       3.724   6.101  18.492  0.00  0.00    +0.000 C 
ATOM      4  C   UNL     1       3.524   4.890  19.368  0.00  0.00    +0.000 A 
ATOM      5  C   UNL     1       2.491   4.853  20.328  0.00  0.00    +0.000 A 
ATOM      6  C   UNL     1       2.299   3.693  21.094  0.00  0.00    +0.000 A 
ATOM      7  C   UNL     1       3.145   2.596  20.940  0.00  0.00    +0.000 A 
ATOM      8  C   UNL     1       4.196   2.637  20.017  0.00  0.00    +0.000 A 
ATOM      9  C   UNL     1       4.388   3.784  19.226  0.00  0.00    +0.000 A 
ATOM     10  C   UNL     1       1.595   6.045  20.584  0.00  0.00    +0.000 C 
ENDROOT
BRANCH   8  11
ATOM     11  O   UNL     1       5.023   1.577  19.881  0.00  0.00    +0.000 OA
ATOM     12  H   UNL     1       4.915   0.927  19.172  0.00  0.00    +0.000 HD
ENDBRANCH   8  11
BRANCH   9  13
ATOM     13  O   UNL     1       5.392   3.837  18.321  0.00  0.00    +0.000 OA
ATOM     14  H   UNL     1       5.566   4.616  17.774  0.00  0.00    +0.000 HD
ENDBRANCH   9  13
BRANCH   1  15
ATOM     15  N   UNL     1       1.142   8.506  20.109  0.00  0.00    +0.000 NA
BRANCH  15  16
ATOM     16  C   UNL     1       1.080   9.036  21.506  0.00  0.00    +0.000 C 
BRANCH  16  18
ATOM     17  C   UNL     1      -0.650  10.136  23.038  0.00  0.00    +0.000 C 
ATOM     18  C   UNL     1      -0.284   8.903  22.216  0.00  0.00    +0.000 C 
ENDBRANCH  16  18
ENDBRANCH  15  16
BRANCH  15  19
ATOM     19  C   UNL     1       1.374   9.593  19.106  0.00  0.00    +0.000 C 
BRANCH  19  20
ATOM     20  C   UNL     1       0.195   9.820  18.129  0.00  0.00    +0.000 C 
ATOM     21  C   UNL     1      -1.028  10.388  18.842  0.00  0.00    +0.000 C 
ENDBRANCH  19  20
ENDBRANCH  15  19
ENDBRANCH   1  15
TORSDOF 7
ENDMDL
MODEL 6
REMARK VINA RESULT:      -6.7      2.704      3.573
REMARK  Name = 
REMARK  9 active torsions:
REMARK  status: ('A' for Active; 'I' for Inactive)
REMARK    1  A    between atoms: C_1  and  C_2
REMARK    2  A    between atoms: C_2  and  C_3
REMARK    3  A    between atoms: C_3  and  N_4
REMARK    4  A    between atoms: N_4  and  C_5
REMARK    5  A    between atoms: N_4  and  C_8
REMARK    6  A    between atoms: C_5  and  C_6
REMARK    7  A    between atoms: C_6  and  C_7
REMARK    8  A    between atoms: C_15  and  O_16
REMARK    9  A    between atoms: C_17  and  O_18
REMARK                            x       y       z     vdW  Elec       q    Type
REMARK                         _______ _______ _______ _____ _____    ______ ____
ROOT
ATOM      1  C   UNL     1       4.961   5.286  18.270  0.00  0.00    +0.000 C 
ATOM      2  C   UNL     1       3.883   4.540  19.084  0.00  0.00    +0.000 C 
ATOM      3  C   UNL     1       3.175   5.501  20.047  0.00  0.00    +0.000 C 
ATOM      4  C   UNL     1       2.724   6.783  19.394  0.00  0.00    +0.000 A 
ATOM      5  C   UNL     1       3.188   7.144  18.110  0.00  0.00    +0.000 A 
ATOM      6  C   UNL     1       2.712   8.318  17.508  0.00  0.00    +0.000 A 
ATOM      7  C   UNL     1       1.818   9.148  18.183  0.00  0.00    +0.000 A 
ATOM      8  C   UNL     1       1.382   8.819  19.471  0.00  0.00    +0.000 A 
ATOM      9  C   UNL     1       1.832   7.634  20.080  0.00  0.00    +0.000 A 
ATOM     10  C   UNL     1       4.214   6.315  17.370  0.00  0.00    +0.000 C 
ENDROOT
BRANCH   8  11
ATOM     11  O   UNL     1       0.528   9.633  20.128  0.00  0.00    +0.000 OA
ATOM     12  H   UNL     1       0.827  10.432  20.586  0.00  0.00    +0.000 HD
ENDBRANCH   8  11
BRANCH   9  13
ATOM     13  O   UNL     1       1.412   7.294  21.320  0.00  0.00    +0.000 OA
ATOM     14  H   UNL     1       0.917   6.483  21.503  0.00  0.00    +0.000 HD
ENDBRANCH   9  13
BRANCH   1  15
ATOM     15  N   UNL     1       5.844   4.361  17.471  0.00  0.00    +0.000 NA
BRANCH  15  16
ATOM     16  C   UNL     1       5.373   4.239  16.058  0.00  0.00    +0.000 C 
BRANCH  16  18
ATOM     17  C   UNL     1       6.118   3.864  13.638  0.00  0.00    +0.000 C 
ATOM     18  C   UNL     1       6.424   4.545  14.969  0.00  0.00    +0.000 C 
ENDBRANCH  16  18
ENDBRANCH  15  16
BRANCH  15  19
ATOM     19  C   UNL     1       7.293   4.731  17.550  0.00  0.00    +0.000 C 
BRANCH  19  20
ATOM     20  C   UNL     1       7.627   5.766  18.652  0.00  0.00    +0.000 C 
ATOM     21  C   UNL     1       7.859   7.156  18.070  0.00  0.00    +0.000 C 
ENDBRANCH  19  20
ENDBRANCH  15  19
ENDBRANCH   1  15
TORSDOF 7
ENDMDL
MODEL 7
REMARK VINA RESULT:      -6.6      1.239      1.878
REMARK  Name = 
REMARK  9 active torsions:
REMARK  status: ('A' for Active; 'I' for Inactive)
REMARK    1  A    between atoms: C_1  and  C_2
REMARK    2  A    between atoms: C_2  and  C_3
REMARK    3  A    between atoms: C_3  and  N_4
REMARK    4  A    between atoms: N_4  and  C_5
REMARK    5  A    between atoms: N_4  and  C_8
REMARK    6  A    between atoms: C_5  and  C_6
REMARK    7  A    between atoms: C_6  and  C_7
REMARK    8  A    between atoms: C_15  and  O_16
REMARK    9  A    between atoms: C_17  and  O_18
REMARK                            x       y       z     vdW  Elec       q    Type
REMARK                         _______ _______ _______ _____ _____    ______ ____
ROOT
ATOM      1  C   UNL     1       4.753   5.009  17.388  0.00  0.00    +0.000 C 
ATOM      2  C   UNL     1       4.030   6.172  18.102  0.00  0.00    +0.000 C 
ATOM      3  C   UNL     1       2.748   5.672  18.781  0.00  0.00    +0.000 C 
ATOM      4  C   UNL     1       2.953   4.429  19.609  0.00  0.00    +0.000 A 
ATOM      5  C   UNL     1       4.140   3.673  19.501  0.00  0.00    +0.000 A 
ATOM      6  C   UNL     1       4.322   2.549  20.320  0.00  0.00    +0.000 A 
ATOM      7  C   UNL     1       3.324   2.152  21.209  0.00  0.00    +0.000 A 
ATOM      8  C   UNL     1       2.128   2.873  21.297  0.00  0.00    +0.000 A 
ATOM      9  C   UNL     1       1.939   4.015  20.498  0.00  0.00    +0.000 A 
ATOM     10  C   UNL     1       5.219   4.020  18.498  0.00  0.00    +0.000 C 
ENDROOT
BRANCH   8  11
ATOM     11  O   UNL     1       1.157   2.477  22.149  0.00  0.00    +0.000 OA
ATOM     12  H   UNL     1       0.228   2.711  22.015  0.00  0.00    +0.000 HD
ENDBRANCH   8  11
BRANCH   9  13
ATOM     13  O   UNL     1       0.793   4.730  20.579  0.00  0.00    +0.000 OA
ATOM     14  H   UNL     1       0.091   4.674  19.915  0.00  0.00    +0.000 HD
ENDBRANCH   9  13
BRANCH   1  15
ATOM     15  N   UNL     1       5.892   5.469  16.515  0.00  0.00    +0.000 NA
BRANCH  15  16
ATOM     16  C   UNL     1       5.620   5.195  15.071  0.00  0.00    +0.000 C 
BRANCH  16  18
ATOM     17  C   UNL     1       6.071   3.742  13.012  0.00  0.00    +0.000 C 
ATOM     18  C   UNL     1       6.134   3.842  14.534  0.00  0.00    +0.000 C 
ENDBRANCH  16  18
ENDBRANCH  15  16
BRANCH  15  19
ATOM     19  C   UNL     1       6.266   6.899  16.754  0.00  0.00    +0.000 C 
BRANCH  19  20
ATOM     20  C   UNL     1       7.528   7.090  17.630  0.00  0.00    +0.000 C 
ATOM     21  C   UNL     1       7.932   8.557  17.726  0.00  0.00    +0.000 C 
ENDBRANCH  19  20
ENDBRANCH  15  19
ENDBRANCH   1  15
TORSDOF 7
ENDMDL
MODEL 8
REMARK VINA RESULT:      -6.6      1.313      3.076
REMARK  Name = 
REMARK  9 active torsions:
REMARK  status: ('A' for Active; 'I' for Inactive)
REMARK    1  A    between atoms: C_1  and  C_2
REMARK    2  A    between atoms: C_2  and  C_3
REMARK    3  A    between atoms: C_3  and  N_4
REMARK    4  A    between atoms: N_4  and  C_5
REMARK    5  A    between atoms: N_4  and  C_8
REMARK    6  A    between atoms: C_5  and  C_6
REMARK    7  A    between atoms: C_6  and  C_7
REMARK    8  A    between atoms: C_15  and  O_16
REMARK    9  A    between atoms: C_17  and  O_18
REMARK                            x       y       z     vdW  Elec       q    Type
REMARK                         _______ _______ _______ _____ _____    ______ ____
ROOT
ATOM      1  C   UNL     1       4.797   5.317  17.774  0.00  0.00    +0.000 C 
ATOM      2  C   UNL     1       5.350   3.890  17.973  0.00  0.00    +0.000 C 
ATOM      3  C   UNL     1       4.979   3.359  19.364  0.00  0.00    +0.000 C 
ATOM      4  C   UNL     1       3.523   3.547  19.711  0.00  0.00    +0.000 A 
ATOM      5  C   UNL     1       2.697   4.390  18.937  0.00  0.00    +0.000 A 
ATOM      6  C   UNL     1       1.336   4.505  19.255  0.00  0.00    +0.000 A 
ATOM      7  C   UNL     1       0.804   3.826  20.351  0.00  0.00    +0.000 A 
ATOM      8  C   UNL     1       1.623   3.018  21.146  0.00  0.00    +0.000 A 
ATOM      9  C   UNL     1       2.986   2.874  20.829  0.00  0.00    +0.000 A 
ATOM     10  C   UNL     1       3.243   5.205  17.785  0.00  0.00    +0.000 C 
ENDROOT
BRANCH   8  11
ATOM     11  O   UNL     1       1.108   2.374  22.216  0.00  0.00    +0.000 OA
ATOM     12  H   UNL     1       0.182   2.095  22.253  0.00  0.00    +0.000 HD
ENDBRANCH   8  11
BRANCH   9  13
ATOM     13  O   UNL     1       3.790   2.088  21.580  0.00  0.00    +0.000 OA
ATOM     14  H   UNL     1       4.171   2.377  22.421  0.00  0.00    +0.000 HD
ENDBRANCH   9  13
BRANCH   1  15
ATOM     15  N   UNL     1       5.314   5.982  16.523  0.00  0.00    +0.000 NA
BRANCH  15  16
ATOM     16  C   UNL     1       6.038   7.251  16.838  0.00  0.00    +0.000 C 
BRANCH  16  18
ATOM     17  C   UNL     1       8.083   8.425  17.833  0.00  0.00    +0.000 C 
ATOM     18  C   UNL     1       7.389   7.092  17.569  0.00  0.00    +0.000 C 
ENDBRANCH  16  18
ENDBRANCH  15  16
BRANCH  15  19
ATOM     19  C   UNL     1       6.137   5.062  15.676  0.00  0.00    +0.000 C 
BRANCH  19  20
ATOM     20  C   UNL     1       5.369   4.431  14.489  0.00  0.00    +0.000 C 
ATOM     21  C   UNL     1       6.318   3.884  13.429  0.00  0.00    +0.000 C 
ENDBRANCH  19  20
ENDBRANCH  15  19
ENDBRANCH   1  15
TORSDOF 7
ENDMDL
MODEL 9
REMARK VINA RESULT:      -6.5      3.762      5.419
REMARK  Name = 
REMARK  9 active torsions:
REMARK  status: ('A' for Active; 'I' for Inactive)
REMARK    1  A    between atoms: C_1  and  C_2
REMARK    2  A    between atoms: C_2  and  C_3
REMARK    3  A    between atoms: C_3  and  N_4
REMARK    4  A    between atoms: N_4  and  C_5
REMARK    5  A    between atoms: N_4  and  C_8
REMARK    6  A    between atoms: C_5  and  C_6
REMARK    7  A    between atoms: C_6  and  C_7
REMARK    8  A    between atoms: C_15  and  O_16
REMARK    9  A    between atoms: C_17  and  O_18
REMARK                            x       y       z     vdW  Elec       q    Type
REMARK                         _______ _______ _______ _____ _____    ______ ____
ROOT
ATOM      1  C   UNL     1       3.009   5.803  18.394  0.00  0.00    +0.000 C 
ATOM      2  C   UNL     1       3.672   7.011  17.697  0.00  0.00    +0.000 C 
ATOM      3  C   UNL     1       2.670   8.164  17.552  0.00  0.00    +0.000 C 
ATOM      4  C   UNL     1       1.925   8.477  18.826  0.00  0.00    +0.000 A 
ATOM      5  C   UNL     1       1.960   7.588  19.922  0.00  0.00    +0.000 A 
ATOM      6  C   UNL     1       1.298   7.930  21.110  0.00  0.00    +0.000 A 
ATOM      7  C   UNL     1       0.576   9.119  21.202  0.00  0.00    +0.000 A 
ATOM      8  C   UNL     1       0.504   9.988  20.108  0.00  0.00    +0.000 A 
ATOM      9  C   UNL     1       1.180   9.671  18.916  0.00  0.00    +0.000 A 
ATOM     10  C   UNL     1       2.667   6.253  19.846  0.00  0.00    +0.000 C 
ENDROOT
BRANCH   8  11
ATOM     11  O   UNL     1      -0.209  11.133  20.195  0.00  0.00    +0.000 OA
ATOM     12  H   UNL     1       0.200  11.978  20.429  0.00  0.00    +0.000 HD
ENDBRANCH   8  11
BRANCH   9  13
ATOM     13  O   UNL     1       1.132  10.505  17.853  0.00  0.00    +0.000 OA
ATOM     14  H   UNL     1       0.462  11.198  17.758  0.00  0.00    +0.000 HD
ENDBRANCH   9  13
BRANCH   1  15
ATOM     15  N   UNL     1       3.865   4.562  18.365  0.00  0.00    +0.000 NA
BRANCH  15  16
ATOM     16  C   UNL     1       3.105   3.386  17.841  0.00  0.00    +0.000 C 
BRANCH  16  18
ATOM     17  C   UNL     1       0.933   2.640  18.971  0.00  0.00    +0.000 C 
ATOM     18  C   UNL     1       1.567   3.505  17.885  0.00  0.00    +0.000 C 
ENDBRANCH  16  18
ENDBRANCH  15  16
BRANCH  15  19
ATOM     19  C   UNL     1       5.157   4.765  17.637  0.00  0.00    +0.000 C 
BRANCH  19  20
ATOM     20  C   UNL     1       5.260   4.000  16.295  0.00  0.00    +0.000 C 
ATOM     21  C   UNL     1       5.583   4.934  15.135  0.00  0.00    +0.000 C 
ENDBRANCH  19  20
ENDBRANCH  15  19
ENDBRANCH   1  15
TORSDOF 7
ENDMDL
