MODEL 1
REMARK VINA RESULT:      -8.3      0.000      0.000
REMARK  Name = 
REMARK  10 active torsions:
REMARK  status: ('A' for Active; 'I' for Inactive)
REMARK    1  A    between atoms: C_1  and  O_2
REMARK    2  A    between atoms: O_2  and  C_3
REMARK    3  A    between atoms: C_6  and  C_7
REMARK    4  A    between atoms: C_7  and  C_8
REMARK    5  A    between atoms: C_7  and  N_23
REMARK    6  A    between atoms: C_9  and  O_10
REMARK    7  A    between atoms: C_12  and  C_13
REMARK    8  A    between atoms: N_14  and  C_15
REMARK    9  A    between atoms: C_15  and  C_16
REMARK   10  A    between atoms: N_26  and  C_27
REMARK                            x       y       z     vdW  Elec       q    Type
REMARK                         _______ _______ _______ _____ _____    ______ ____
ROOT
ATOM      1  C   UNL     1       0.272   9.481  19.961  0.00  0.00    +0.000 C 
ENDROOT
BRANCH   1   2
ATOM      2  C   UNL     1       1.478   8.758  19.309  0.00  0.00    +0.000 A 
ATOM      3  C   UNL     1       2.052   9.016  18.119  0.00  0.00    +0.000 A 
ATOM      4  C   UNL     1       3.047   8.157  17.539  0.00  0.00    +0.000 A 
ATOM      5  C   UNL     1       3.385   6.996  18.119  0.00  0.00    +0.000 A 
ATOM      6  C   UNL     1       4.400   6.087  17.482  0.00  0.00    +0.000 C 
ATOM      7  N   UNL     1       2.829   6.674  19.356  0.00  0.00    +0.000 N 
ATOM      8  C   UNL     1       2.088   7.614  20.077  0.00  0.00    +0.000 A 
ATOM      9  O   UNL     1       1.928   7.526  21.293  0.00  0.00    +0.000 OA
BRANCH   3  10
ATOM     10  O   UNL     1       1.735  10.084  17.313  0.00  0.00    +0.000 OA
ATOM     11  H   UNL     1       0.762  10.056  17.187  0.00  0.00    +0.000 HD
ENDBRANCH   3  10
BRANCH   7  12
ATOM     12  C   UNL     1       3.091   5.396  20.024  0.00  0.00    +0.000 C 
BRANCH  12  13
ATOM     13  C   UNL     1       2.115   4.358  19.609  0.00  0.00    +0.000 A 
ATOM     14  C   UNL     1       0.864   3.999  20.083  0.00  0.00    +0.000 A 
ATOM     15  C   UNL     1       0.423   2.926  19.272  0.00  0.00    +0.000 A 
ATOM     16  C   UNL     1       1.413   2.720  18.350  0.00  0.00    +0.000 A 
ATOM     17  O   UNL     1       2.441   3.587  18.529  0.00  0.00    +0.000 OA
ENDBRANCH  12  13
ENDBRANCH   7  12
ENDBRANCH   1   2
BRANCH   1  21
ATOM     18  C   UNL     1      -2.795  11.382  17.536  0.00  0.00    +0.000 A 
ATOM     19  C   UNL     1      -1.675  12.109  17.931  0.00  0.00    +0.000 A 
ATOM     20  C   UNL     1      -0.594  11.458  18.564  0.00  0.00    +0.000 A 
ATOM     21  C   UNL     1      -0.651  10.079  18.875  0.00  0.00    +0.000 A 
ATOM     22  C   UNL     1      -1.780   9.377  18.437  0.00  0.00    +0.000 A 
ATOM     23  C   UNL     1      -2.808  10.006  17.739  0.00  0.00    +0.000 A 
BRANCH  18  25
ATOM     24  C   UNL     1      -5.184  11.302  17.453  0.00  0.00    +0.000 C 
ATOM     25  O   UNL     1      -3.957  11.855  16.997  0.00  0.00    +0.000 OA
ENDBRANCH  18  25
ENDBRANCH   1  21
BRANCH   1  26
ATOM     26  N   UNL     1       0.704  10.382  21.072  0.00  0.00    +0.000 NA
ATOM     27  C   UNL     1       0.614  11.838  20.908  0.00  0.00    +0.000 C 
ATOM     28  C   UNL     1      -0.687  12.531  21.328  0.00  0.00    +0.000 C 
ATOM     29  N   UNL     1      -1.256  12.049  22.589  0.00  0.00    +0.000 N 
ATOM     30  C   UNL     1      -1.002  10.659  23.006  0.00  0.00    +0.000 C 
ATOM     31  C   UNL     1       0.298  10.036  22.438  0.00  0.00    +0.000 C 
BRANCH  29  32
ATOM     32  C   UNL     1      -2.304  12.793  23.149  0.00  0.00    +0.000 A 
ATOM     33  C   UNL     1      -3.407  12.173  23.774  0.00  0.00    +0.000 A 
ATOM     34  C   UNL     1      -4.557  12.877  24.145  0.00  0.00    +0.000 A 
ATOM     35  C   UNL     1      -4.624  14.244  23.936  0.00  0.00    +0.000 A 
ATOM     36  C   UNL     1      -3.516  14.906  23.422  0.00  0.00    +0.000 A 
ATOM     37  C   UNL     1      -2.369  14.189  23.049  0.00  0.00    +0.000 A 
ENDBRANCH  29  32
ENDBRANCH   1  26
TORSDOF 8
ENDMDL
MODEL 2
REMARK VINA RESULT:      -8.3      3.661      8.537
REMARK  Name = 
REMARK  10 active torsions:
REMARK  status: ('A' for Active; 'I' for Inactive)
REMARK    1  A    between atoms: C_1  and  O_2
REMARK    2  A    between atoms: O_2  and  C_3
REMARK    3  A    between atoms: C_6  and  C_7
REMARK    4  A    between atoms: C_7  and  C_8
REMARK    5  A    between atoms: C_7  and  N_23
REMARK    6  A    between atoms: C_9  and  O_10
REMARK    7  A    between atoms: C_12  and  C_13
REMARK    8  A    between atoms: N_14  and  C_15
REMARK    9  A    between atoms: C_15  and  C_16
REMARK   10  A    between atoms: N_26  and  C_27
REMARK                            x       y       z     vdW  Elec       q    Type
REMARK                         _______ _______ _______ _____ _____    ______ ____
ROOT
ATOM      1  C   UNL     1      -2.284  13.943  20.979  0.00  0.00    +0.000 C 
ENDROOT
BRANCH   1   2
ATOM      2  C   UNL     1      -3.532  13.758  21.879  0.00  0.00    +0.000 A 
ATOM      3  C   UNL     1      -3.568  13.532  23.206  0.00  0.00    +0.000 A 
ATOM      4  C   UNL     1      -4.781  13.192  23.898  0.00  0.00    +0.000 A 
ATOM      5  C   UNL     1      -5.927  12.990  23.232  0.00  0.00    +0.000 A 
ATOM      6  C   UNL     1      -7.180  12.598  23.965  0.00  0.00    +0.000 C 
ATOM      7  N   UNL     1      -5.955  13.213  21.857  0.00  0.00    +0.000 N 
ATOM      8  C   UNL     1      -4.878  13.819  21.205  0.00  0.00    +0.000 A 
ATOM      9  O   UNL     1      -5.005  14.385  20.121  0.00  0.00    +0.000 OA
BRANCH   3  10
ATOM     10  O   UNL     1      -2.471  13.558  24.033  0.00  0.00    +0.000 OA
ATOM     11  H   UNL     1      -2.177  12.627  24.131  0.00  0.00    +0.000 HD
ENDBRANCH   3  10
BRANCH   7  12
ATOM     12  C   UNL     1      -7.146  12.949  21.045  0.00  0.00    +0.000 C 
BRANCH  12  13
ATOM     13  C   UNL     1      -7.078  11.613  20.402  0.00  0.00    +0.000 A 
ATOM     14  C   UNL     1      -6.634  11.187  19.161  0.00  0.00    +0.000 A 
ATOM     15  C   UNL     1      -6.826   9.784  19.129  0.00  0.00    +0.000 A 
ATOM     16  C   UNL     1      -7.346   9.448  20.349  0.00  0.00    +0.000 A 
ATOM     17  O   UNL     1      -7.494  10.540  21.139  0.00  0.00    +0.000 OA
ENDBRANCH  12  13
ENDBRANCH   7  12
ENDBRANCH   1   2
BRANCH   1  21
ATOM     18  C   UNL     1      -0.004  10.412  19.867  0.00  0.00    +0.000 A 
ATOM     19  C   UNL     1      -0.491  10.541  21.165  0.00  0.00    +0.000 A 
ATOM     20  C   UNL     1      -1.378  11.591  21.488  0.00  0.00    +0.000 A 
ATOM     21  C   UNL     1      -1.733  12.570  20.531  0.00  0.00    +0.000 A 
ATOM     22  C   UNL     1      -1.245  12.391  19.230  0.00  0.00    +0.000 A 
ATOM     23  C   UNL     1      -0.437  11.307  18.895  0.00  0.00    +0.000 A 
BRANCH  18  25
ATOM     24  C   UNL     1       1.107   9.419  17.996  0.00  0.00    +0.000 C 
ATOM     25  O   UNL     1       0.920   9.521  19.402  0.00  0.00    +0.000 OA
ENDBRANCH  18  25
ENDBRANCH   1  21
BRANCH   1  26
ATOM     26  N   UNL     1      -1.315  14.914  21.571  0.00  0.00    +0.000 NA
ATOM     27  C   UNL     1      -0.037  14.434  22.109  0.00  0.00    +0.000 C 
ATOM     28  C   UNL     1       1.164  14.362  21.158  0.00  0.00    +0.000 C 
ATOM     29  N   UNL     1       1.302  15.513  20.262  0.00  0.00    +0.000 N 
ATOM     30  C   UNL     1       0.096  16.260  19.861  0.00  0.00    +0.000 C 
ATOM     31  C   UNL     1      -1.084  16.176  20.862  0.00  0.00    +0.000 C 
BRANCH  29  32
ATOM     32  C   UNL     1       2.497  15.627  19.538  0.00  0.00    +0.000 A 
ATOM     33  C   UNL     1       2.975  14.582  18.718  0.00  0.00    +0.000 A 
ATOM     34  C   UNL     1       4.258  14.587  18.162  0.00  0.00    +0.000 A 
ATOM     35  C   UNL     1       5.098  15.667  18.378  0.00  0.00    +0.000 A 
ATOM     36  C   UNL     1       4.625  16.761  19.092  0.00  0.00    +0.000 A 
ATOM     37  C   UNL     1       3.337  16.744  19.649  0.00  0.00    +0.000 A 
ENDBRANCH  29  32
ENDBRANCH   1  26
TORSDOF 8
ENDMDL
MODEL 3
REMARK VINA RESULT:      -8.2      3.766      8.975
REMARK  Name = 
REMARK  10 active torsions:
REMARK  status: ('A' for Active; 'I' for Inactive)
REMARK    1  A    between atoms: C_1  and  O_2
REMARK    2  A    between atoms: O_2  and  C_3
REMARK    3  A    between atoms: C_6  and  C_7
REMARK    4  A    between atoms: C_7  and  C_8
REMARK    5  A    between atoms: C_7  and  N_23
REMARK    6  A    between atoms: C_9  and  O_10
REMARK    7  A    between atoms: C_12  and  C_13
REMARK    8  A    between atoms: N_14  and  C_15
REMARK    9  A    between atoms: C_15  and  C_16
REMARK   10  A    between atoms: N_26  and  C_27
REMARK                            x       y       z     vdW  Elec       q    Type
REMARK                         _______ _______ _______ _____ _____    ______ ____
ROOT
ATOM      1  C   UNL     1      -2.079  13.319  21.386  0.00  0.00    +0.000 C 
ENDROOT
BRANCH   1   2
ATOM      2  C   UNL     1      -3.501  13.362  22.003  0.00  0.00    +0.000 A 
ATOM      3  C   UNL     1      -3.848  13.700  23.258  0.00  0.00    +0.000 A 
ATOM      4  C   UNL     1      -5.181  13.522  23.765  0.00  0.00    +0.000 A 
ATOM      5  C   UNL     1      -6.127  12.917  23.033  0.00  0.00    +0.000 A 
ATOM      6  C   UNL     1      -7.508  12.703  23.589  0.00  0.00    +0.000 C 
ATOM      7  N   UNL     1      -5.831  12.547  21.722  0.00  0.00    +0.000 N 
ATOM      8  C   UNL     1      -4.647  12.965  21.108  0.00  0.00    +0.000 A 
ATOM      9  O   UNL     1      -4.527  13.012  19.885  0.00  0.00    +0.000 OA
BRANCH   3  10
ATOM     10  O   UNL     1      -2.983  14.206  24.199  0.00  0.00    +0.000 OA
ATOM     11  H   UNL     1      -2.447  13.448  24.517  0.00  0.00    +0.000 HD
ENDBRANCH   3  10
BRANCH   7  12
ATOM     12  C   UNL     1      -6.784  11.821  20.879  0.00  0.00    +0.000 C 
BRANCH  12  13
ATOM     13  C   UNL     1      -7.196  12.632  19.705  0.00  0.00    +0.000 A 
ATOM     14  C   UNL     1      -7.739  13.900  19.581  0.00  0.00    +0.000 A 
ATOM     15  C   UNL     1      -7.917  14.123  18.194  0.00  0.00    +0.000 A 
ATOM     16  C   UNL     1      -7.452  12.999  17.570  0.00  0.00    +0.000 A 
ATOM     17  O   UNL     1      -6.998  12.089  18.467  0.00  0.00    +0.000 OA
ENDBRANCH  12  13
ENDBRANCH   7  12
ENDBRANCH   1   2
BRANCH   1  21
ATOM     18  C   UNL     1       0.338   9.758  21.999  0.00  0.00    +0.000 A 
ATOM     19  C   UNL     1      -0.402  10.283  23.055  0.00  0.00    +0.000 A 
ATOM     20  C   UNL     1      -1.324  11.327  22.825  0.00  0.00    +0.000 A 
ATOM     21  C   UNL     1      -1.465  11.910  21.544  0.00  0.00    +0.000 A 
ATOM     22  C   UNL     1      -0.724  11.337  20.502  0.00  0.00    +0.000 A 
ATOM     23  C   UNL     1       0.123  10.252  20.717  0.00  0.00    +0.000 A 
BRANCH  18  25
ATOM     24  C   UNL     1       1.306   7.767  21.095  0.00  0.00    +0.000 C 
ATOM     25  O   UNL     1       1.327   8.818  22.052  0.00  0.00    +0.000 OA
ENDBRANCH  18  25
ENDBRANCH   1  21
BRANCH   1  26
ATOM     26  N   UNL     1      -1.253  14.484  21.824  0.00  0.00    +0.000 NA
ATOM     27  C   UNL     1       0.206  14.448  21.660  0.00  0.00    +0.000 C 
ATOM     28  C   UNL     1       0.796  14.977  20.348  0.00  0.00    +0.000 C 
ATOM     29  N   UNL     1       0.183  16.215  19.858  0.00  0.00    +0.000 N 
ATOM     30  C   UNL     1      -1.223  16.501  20.195  0.00  0.00    +0.000 C 
ATOM     31  C   UNL     1      -1.731  15.831  21.496  0.00  0.00    +0.000 C 
BRANCH  29  32
ATOM     32  C   UNL     1       0.824  16.877  18.802  0.00  0.00    +0.000 A 
ATOM     33  C   UNL     1       0.157  17.834  18.007  0.00  0.00    +0.000 A 
ATOM     34  C   UNL     1       0.704  18.345  16.826  0.00  0.00    +0.000 A 
ATOM     35  C   UNL     1       1.964  17.940  16.419  0.00  0.00    +0.000 A 
ATOM     36  C   UNL     1       2.695  17.081  17.231  0.00  0.00    +0.000 A 
ATOM     37  C   UNL     1       2.136  16.572  18.412  0.00  0.00    +0.000 A 
ENDBRANCH  29  32
ENDBRANCH   1  26
TORSDOF 8
ENDMDL
MODEL 4
REMARK VINA RESULT:      -8.2      2.903      7.695
REMARK  Name = 
REMARK  10 active torsions:
REMARK  status: ('A' for Active; 'I' for Inactive)
REMARK    1  A    between atoms: C_1  and  O_2
REMARK    2  A    between atoms: O_2  and  C_3
REMARK    3  A    between atoms: C_6  and  C_7
REMARK    4  A    between atoms: C_7  and  C_8
REMARK    5  A    between atoms: C_7  and  N_23
REMARK    6  A    between atoms: C_9  and  O_10
REMARK    7  A    between atoms: C_12  and  C_13
REMARK    8  A    between atoms: N_14  and  C_15
REMARK    9  A    between atoms: C_15  and  C_16
REMARK   10  A    between atoms: N_26  and  C_27
REMARK                            x       y       z     vdW  Elec       q    Type
REMARK                         _______ _______ _______ _____ _____    ______ ____
ROOT
ATOM      1  C   UNL     1      -0.176  10.320  19.452  0.00  0.00    +0.000 C 
ENDROOT
BRANCH   1   2
ATOM      2  C   UNL     1       0.184  11.528  20.354  0.00  0.00    +0.000 A 
ATOM      3  C   UNL     1      -0.344  11.855  21.548  0.00  0.00    +0.000 A 
ATOM      4  C   UNL     1      -0.059  13.102  22.203  0.00  0.00    +0.000 A 
ATOM      5  C   UNL     1       0.679  14.048  21.605  0.00  0.00    +0.000 A 
ATOM      6  C   UNL     1       0.938  15.363  22.286  0.00  0.00    +0.000 C 
ATOM      7  N   UNL     1       1.259  13.768  20.369  0.00  0.00    +0.000 N 
ATOM      8  C   UNL     1       1.242  12.473  19.844  0.00  0.00    +0.000 A 
ATOM      9  O   UNL     1       2.051  12.101  18.996  0.00  0.00    +0.000 OA
BRANCH   3  10
ATOM     10  O   UNL     1      -1.231  11.073  22.251  0.00  0.00    +0.000 OA
ATOM     11  H   UNL     1      -0.849  10.170  22.268  0.00  0.00    +0.000 HD
ENDBRANCH   3  10
BRANCH   7  12
ATOM     12  C   UNL     1       2.021  14.768  19.617  0.00  0.00    +0.000 C 
BRANCH  12  13
ATOM     13  C   UNL     1       1.124  15.759  18.971  0.00  0.00    +0.000 A 
ATOM     14  C   UNL     1      -0.223  15.741  18.651  0.00  0.00    +0.000 A 
ATOM     15  C   UNL     1      -0.504  16.988  18.043  0.00  0.00    +0.000 A 
ATOM     16  C   UNL     1       0.671  17.686  18.055  0.00  0.00    +0.000 A 
ATOM     17  O   UNL     1       1.668  16.964  18.625  0.00  0.00    +0.000 OA
ENDBRANCH  12  13
ENDBRANCH   7  12
ENDBRANCH   1   2
BRANCH   1  21
ATOM     18  C   UNL     1       2.603   7.009  18.995  0.00  0.00    +0.000 A 
ATOM     19  C   UNL     1       2.377   7.875  17.928  0.00  0.00    +0.000 A 
ATOM     20  C   UNL     1       1.619   9.051  18.118  0.00  0.00    +0.000 A 
ATOM     21  C   UNL     1       1.013   9.338  19.364  0.00  0.00    +0.000 A 
ATOM     22  C   UNL     1       1.286   8.457  20.419  0.00  0.00    +0.000 A 
ATOM     23  C   UNL     1       2.104   7.343  20.249  0.00  0.00    +0.000 A 
BRANCH  18  25
ATOM     24  C   UNL     1       2.870   4.835  19.957  0.00  0.00    +0.000 C 
ATOM     25  O   UNL     1       3.231   5.797  18.973  0.00  0.00    +0.000 OA
ENDBRANCH  18  25
ENDBRANCH   1  21
BRANCH   1  26
ATOM     26  N   UNL     1      -0.804  10.759  18.168  0.00  0.00    +0.000 NA
ATOM     27  C   UNL     1      -1.807   9.908  17.518  0.00  0.00    +0.000 C 
ATOM     28  C   UNL     1      -3.279  10.114  17.895  0.00  0.00    +0.000 C 
ATOM     29  N   UNL     1      -3.689  11.515  18.013  0.00  0.00    +0.000 N 
ATOM     30  C   UNL     1      -2.688  12.526  18.399  0.00  0.00    +0.000 C 
ATOM     31  C   UNL     1      -1.224  12.158  18.049  0.00  0.00    +0.000 C 
BRANCH  29  32
ATOM     32  C   UNL     1      -5.061  11.779  18.120  0.00  0.00    +0.000 A 
ATOM     33  C   UNL     1      -5.779  12.431  17.094  0.00  0.00    +0.000 A 
ATOM     34  C   UNL     1      -7.088  12.892  17.266  0.00  0.00    +0.000 A 
ATOM     35  C   UNL     1      -7.740  12.680  18.469  0.00  0.00    +0.000 A 
ATOM     36  C   UNL     1      -7.105  11.948  19.465  0.00  0.00    +0.000 A 
ATOM     37  C   UNL     1      -5.790  11.493  19.283  0.00  0.00    +0.000 A 
ENDBRANCH  29  32
ENDBRANCH   1  26
TORSDOF 8
ENDMDL
MODEL 5
REMARK VINA RESULT:      -8.1      3.329      9.300
REMARK  Name = 
REMARK  10 active torsions:
REMARK  status: ('A' for Active; 'I' for Inactive)
REMARK    1  A    between atoms: C_1  and  O_2
REMARK    2  A    between atoms: O_2  and  C_3
REMARK    3  A    between atoms: C_6  and  C_7
REMARK    4  A    between atoms: C_7  and  C_8
REMARK    5  A    between atoms: C_7  and  N_23
REMARK    6  A    between atoms: C_9  and  O_10
REMARK    7  A    between atoms: C_12  and  C_13
REMARK    8  A    between atoms: N_14  and  C_15
REMARK    9  A    between atoms: C_15  and  C_16
REMARK   10  A    between atoms: N_26  and  C_27
REMARK                            x       y       z     vdW  Elec       q    Type
REMARK                         _______ _______ _______ _____ _____    ______ ____
ROOT
ATOM      1  C   UNL     1      -0.129  12.114  20.638  0.00  0.00    +0.000 C 
ENDROOT
BRANCH   1   2
ATOM      2  C   UNL     1      -1.323  12.957  21.155  0.00  0.00    +0.000 A 
ATOM      3  C   UNL     1      -2.498  13.190  20.543  0.00  0.00    +0.000 A 
ATOM      4  C   UNL     1      -3.453  14.141  21.040  0.00  0.00    +0.000 A 
ATOM      5  C   UNL     1      -3.174  14.918  22.097  0.00  0.00    +0.000 A 
ATOM      6  C   UNL     1      -4.168  15.935  22.585  0.00  0.00    +0.000 C 
ATOM      7  N   UNL     1      -1.974  14.721  22.779  0.00  0.00    +0.000 N 
ATOM      8  C   UNL     1      -1.161  13.619  22.500  0.00  0.00    +0.000 A 
ATOM      9  O   UNL     1      -0.340  13.192  23.308  0.00  0.00    +0.000 OA
BRANCH   3  10
ATOM     10  O   UNL     1      -2.901  12.591  19.372  0.00  0.00    +0.000 OA
ATOM     11  H   UNL     1      -3.774  12.979  19.150  0.00  0.00    +0.000 HD
ENDBRANCH   3  10
BRANCH   7  12
ATOM     12  C   UNL     1      -1.562  15.571  23.899  0.00  0.00    +0.000 C 
BRANCH  12  13
ATOM     13  C   UNL     1      -0.627  16.635  23.456  0.00  0.00    +0.000 A 
ATOM     14  C   UNL     1       0.750  16.680  23.317  0.00  0.00    +0.000 A 
ATOM     15  C   UNL     1       1.062  17.980  22.852  0.00  0.00    +0.000 A 
ATOM     16  C   UNL     1      -0.135  18.627  22.715  0.00  0.00    +0.000 A 
ATOM     17  O   UNL     1      -1.172  17.825  23.063  0.00  0.00    +0.000 OA
ENDBRANCH  12  13
ENDBRANCH   7  12
ENDBRANCH   1   2
BRANCH   1  21
ATOM     18  C   UNL     1       2.578  15.143  19.091  0.00  0.00    +0.000 A 
ATOM     19  C   UNL     1       3.080  14.089  19.851  0.00  0.00    +0.000 A 
ATOM     20  C   UNL     1       2.242  13.010  20.206  0.00  0.00    +0.000 A 
ATOM     21  C   UNL     1       0.868  13.006  19.867  0.00  0.00    +0.000 A 
ATOM     22  C   UNL     1       0.408  14.069  19.079  0.00  0.00    +0.000 A 
ATOM     23  C   UNL     1       1.257  15.091  18.659  0.00  0.00    +0.000 A 
BRANCH  18  25
ATOM     24  C   UNL     1       3.050  16.770  17.403  0.00  0.00    +0.000 C 
ATOM     25  O   UNL     1       3.214  16.297  18.734  0.00  0.00    +0.000 OA
ENDBRANCH  18  25
ENDBRANCH   1  21
BRANCH   1  26
ATOM     26  N   UNL     1      -0.589  10.858  19.972  0.00  0.00    +0.000 NA
ATOM     27  C   UNL     1      -0.199  10.583  18.583  0.00  0.00    +0.000 C 
ATOM     28  C   UNL     1       1.104   9.813  18.340  0.00  0.00    +0.000 C 
ATOM     29  N   UNL     1       1.321   8.680  19.243  0.00  0.00    +0.000 N 
ATOM     30  C   UNL     1       0.737   8.718  20.596  0.00  0.00    +0.000 C 
ATOM     31  C   UNL     1      -0.524   9.608  20.735  0.00  0.00    +0.000 C 
BRANCH  29  32
ATOM     32  C   UNL     1       2.363   7.796  18.930  0.00  0.00    +0.000 A 
ATOM     33  C   UNL     1       3.144   7.947  17.764  0.00  0.00    +0.000 A 
ATOM     34  C   UNL     1       4.039   6.966  17.324  0.00  0.00    +0.000 A 
ATOM     35  C   UNL     1       4.210   5.809  18.065  0.00  0.00    +0.000 A 
ATOM     36  C   UNL     1       3.538   5.672  19.273  0.00  0.00    +0.000 A 
ATOM     37  C   UNL     1       2.640   6.661  19.704  0.00  0.00    +0.000 A 
ENDBRANCH  29  32
ENDBRANCH   1  26
TORSDOF 8
ENDMDL
MODEL 6
REMARK VINA RESULT:      -8.1      0.569      1.039
REMARK  Name = 
REMARK  10 active torsions:
REMARK  status: ('A' for Active; 'I' for Inactive)
REMARK    1  A    between atoms: C_1  and  O_2
REMARK    2  A    between atoms: O_2  and  C_3
REMARK    3  A    between atoms: C_6  and  C_7
REMARK    4  A    between atoms: C_7  and  C_8
REMARK    5  A    between atoms: C_7  and  N_23
REMARK    6  A    between atoms: C_9  and  O_10
REMARK    7  A    between atoms: C_12  and  C_13
REMARK    8  A    between atoms: N_14  and  C_15
REMARK    9  A    between atoms: C_15  and  C_16
REMARK   10  A    between atoms: N_26  and  C_27
REMARK                            x       y       z     vdW  Elec       q    Type
REMARK                         _______ _______ _______ _____ _____    ______ ____
ROOT
ATOM      1  C   UNL     1       0.410   9.394  19.951  0.00  0.00    +0.000 C 
ENDROOT
BRANCH   1   2
ATOM      2  C   UNL     1       1.597   8.694  19.241  0.00  0.00    +0.000 A 
ATOM      3  C   UNL     1       2.143   8.997  18.049  0.00  0.00    +0.000 A 
ATOM      4  C   UNL     1       3.119   8.158  17.411  0.00  0.00    +0.000 A 
ATOM      5  C   UNL     1       3.466   6.973  17.935  0.00  0.00    +0.000 A 
ATOM      6  C   UNL     1       4.461   6.088  17.238  0.00  0.00    +0.000 C 
ATOM      7  N   UNL     1       2.939   6.604  19.171  0.00  0.00    +0.000 N 
ATOM      8  C   UNL     1       2.220   7.517  19.948  0.00  0.00    +0.000 A 
ATOM      9  O   UNL     1       2.089   7.381  21.162  0.00  0.00    +0.000 OA
BRANCH   3  10
ATOM     10  O   UNL     1       1.811  10.098  17.295  0.00  0.00    +0.000 OA
ATOM     11  H   UNL     1       2.584  10.282  16.719  0.00  0.00    +0.000 HD
ENDBRANCH   3  10
BRANCH   7  12
ATOM     12  C   UNL     1       3.211   5.300  19.780  0.00  0.00    +0.000 C 
BRANCH  12  13
ATOM     13  C   UNL     1       2.150   4.315  19.449  0.00  0.00    +0.000 A 
ATOM     14  C   UNL     1       1.762   3.713  18.264  0.00  0.00    +0.000 A 
ATOM     15  C   UNL     1       0.679   2.860  18.587  0.00  0.00    +0.000 A 
ATOM     16  C   UNL     1       0.497   2.978  19.937  0.00  0.00    +0.000 A 
ATOM     17  O   UNL     1       1.387   3.845  20.481  0.00  0.00    +0.000 OA
ENDBRANCH  12  13
ENDBRANCH   7  12
ENDBRANCH   1   2
BRANCH   1  21
ATOM     18  C   UNL     1      -2.705  11.392  17.670  0.00  0.00    +0.000 A 
ATOM     19  C   UNL     1      -1.643  12.130  18.186  0.00  0.00    +0.000 A 
ATOM     20  C   UNL     1      -0.540  11.472  18.771  0.00  0.00    +0.000 A 
ATOM     21  C   UNL     1      -0.519  10.064  18.915  0.00  0.00    +0.000 A 
ATOM     22  C   UNL     1      -1.592   9.355  18.359  0.00  0.00    +0.000 A 
ATOM     23  C   UNL     1      -2.639  10.003  17.708  0.00  0.00    +0.000 A 
BRANCH  18  25
ATOM     24  C   UNL     1      -5.096  11.319  17.655  0.00  0.00    +0.000 C 
ATOM     25  O   UNL     1      -3.880  11.859  17.153  0.00  0.00    +0.000 OA
ENDBRANCH  18  25
ENDBRANCH   1  21
BRANCH   1  26
ATOM     26  N   UNL     1       0.870  10.226  21.104  0.00  0.00    +0.000 NA
ATOM     27  C   UNL     1       0.888  11.689  20.988  0.00  0.00    +0.000 C 
ATOM     28  C   UNL     1      -0.373  12.459  21.395  0.00  0.00    +0.000 C 
ATOM     29  N   UNL     1      -1.012  11.978  22.622  0.00  0.00    +0.000 N 
ATOM     30  C   UNL     1      -0.869  10.561  22.998  0.00  0.00    +0.000 C 
ATOM     31  C   UNL     1       0.400   9.865  22.445  0.00  0.00    +0.000 C 
BRANCH  29  32
ATOM     32  C   UNL     1      -2.022  12.776  23.178  0.00  0.00    +0.000 A 
ATOM     33  C   UNL     1      -1.805  14.130  23.512  0.00  0.00    +0.000 A 
ATOM     34  C   UNL     1      -2.722  14.878  24.258  0.00  0.00    +0.000 A 
ATOM     35  C   UNL     1      -3.913  14.301  24.664  0.00  0.00    +0.000 A 
ATOM     36  C   UNL     1      -4.209  13.004  24.263  0.00  0.00    +0.000 A 
ATOM     37  C   UNL     1      -3.281  12.261  23.518  0.00  0.00    +0.000 A 
ENDBRANCH  29  32
ENDBRANCH   1  26
TORSDOF 8
ENDMDL
MODEL 7
REMARK VINA RESULT:      -8.1      6.615     10.781
REMARK  Name = 
REMARK  10 active torsions:
REMARK  status: ('A' for Active; 'I' for Inactive)
REMARK    1  A    between atoms: C_1  and  O_2
REMARK    2  A    between atoms: O_2  and  C_3
REMARK    3  A    between atoms: C_6  and  C_7
REMARK    4  A    between atoms: C_7  and  C_8
REMARK    5  A    between atoms: C_7  and  N_23
REMARK    6  A    between atoms: C_9  and  O_10
REMARK    7  A    between atoms: C_12  and  C_13
REMARK    8  A    between atoms: N_14  and  C_15
REMARK    9  A    between atoms: C_15  and  C_16
REMARK   10  A    between atoms: N_26  and  C_27
REMARK                            x       y       z     vdW  Elec       q    Type
REMARK                         _______ _______ _______ _____ _____    ______ ____
ROOT
ATOM      1  C   UNL     1       4.870  14.969  20.111  0.00  0.00    +0.000 C 
ENDROOT
BRANCH   1   2
ATOM      2  C   UNL     1       3.554  15.512  19.497  0.00  0.00    +0.000 A 
ATOM      3  C   UNL     1       3.175  16.796  19.355  0.00  0.00    +0.000 A 
ATOM      4  C   UNL     1       1.851  17.169  18.941  0.00  0.00    +0.000 A 
ATOM      5  C   UNL     1       0.893  16.248  18.767  0.00  0.00    +0.000 A 
ATOM      6  C   UNL     1      -0.499  16.655  18.369  0.00  0.00    +0.000 C 
ATOM      7  N   UNL     1       1.223  14.900  18.894  0.00  0.00    +0.000 N 
ATOM      8  C   UNL     1       2.556  14.494  19.008  0.00  0.00    +0.000 A 
ATOM      9  O   UNL     1       2.918  13.354  18.726  0.00  0.00    +0.000 OA
BRANCH   3  10
ATOM     10  O   UNL     1       3.977  17.881  19.622  0.00  0.00    +0.000 OA
ATOM     11  H   UNL     1       4.222  17.816  20.569  0.00  0.00    +0.000 HD
ENDBRANCH   3  10
BRANCH   7  12
ATOM     12  C   UNL     1       0.222  13.835  18.787  0.00  0.00    +0.000 C 
BRANCH  12  13
ATOM     13  C   UNL     1      -0.442  13.583  20.091  0.00  0.00    +0.000 A 
ATOM     14  C   UNL     1      -1.748  13.731  20.527  0.00  0.00    +0.000 A 
ATOM     15  C   UNL     1      -1.764  13.327  21.883  0.00  0.00    +0.000 A 
ATOM     16  C   UNL     1      -0.485  12.940  22.175  0.00  0.00    +0.000 A 
ATOM     17  O   UNL     1       0.329  13.075  21.099  0.00  0.00    +0.000 OA
ENDBRANCH  12  13
ENDBRANCH   7  12
ENDBRANCH   1   2
BRANCH   1  21
ATOM     18  C   UNL     1       5.277  14.980  24.440  0.00  0.00    +0.000 A 
ATOM     19  C   UNL     1       4.685  16.064  23.797  0.00  0.00    +0.000 A 
ATOM     20  C   UNL     1       4.387  15.996  22.419  0.00  0.00    +0.000 A 
ATOM     21  C   UNL     1       4.745  14.865  21.648  0.00  0.00    +0.000 A 
ATOM     22  C   UNL     1       5.314  13.784  22.335  0.00  0.00    +0.000 A 
ATOM     23  C   UNL     1       5.530  13.823  23.710  0.00  0.00    +0.000 A 
BRANCH  18  25
ATOM     24  C   UNL     1       6.514  13.793  26.107  0.00  0.00    +0.000 C 
ATOM     25  O   UNL     1       5.711  14.904  25.732  0.00  0.00    +0.000 OA
ENDBRANCH  18  25
ENDBRANCH   1  21
BRANCH   1  26
ATOM     26  N   UNL     1       6.067  15.675  19.563  0.00  0.00    +0.000 NA
ATOM     27  C   UNL     1       7.244  15.886  20.414  0.00  0.00    +0.000 C 
ATOM     28  C   UNL     1       8.329  14.803  20.423  0.00  0.00    +0.000 C 
ATOM     29  N   UNL     1       8.652  14.253  19.104  0.00  0.00    +0.000 N 
ATOM     30  C   UNL     1       7.614  14.237  18.059  0.00  0.00    +0.000 C 
ATOM     31  C   UNL     1       6.518  15.321  18.214  0.00  0.00    +0.000 C 
BRANCH  29  32
ATOM     32  C   UNL     1       9.789  13.438  19.006  0.00  0.00    +0.000 A 
ATOM     33  C   UNL     1      10.093  12.718  17.831  0.00  0.00    +0.000 A 
ATOM     34  C   UNL     1      11.093  11.742  17.783  0.00  0.00    +0.000 A 
ATOM     35  C   UNL     1      11.854  11.479  18.909  0.00  0.00    +0.000 A 
ATOM     36  C   UNL     1      11.656  12.242  20.054  0.00  0.00    +0.000 A 
ATOM     37  C   UNL     1      10.647  13.217  20.093  0.00  0.00    +0.000 A 
ENDBRANCH  29  32
ENDBRANCH   1  26
TORSDOF 8
ENDMDL
MODEL 8
REMARK VINA RESULT:      -8.0      3.170      8.776
REMARK  Name = 
REMARK  10 active torsions:
REMARK  status: ('A' for Active; 'I' for Inactive)
REMARK    1  A    between atoms: C_1  and  O_2
REMARK    2  A    between atoms: O_2  and  C_3
REMARK    3  A    between atoms: C_6  and  C_7
REMARK    4  A    between atoms: C_7  and  C_8
REMARK    5  A    between atoms: C_7  and  N_23
REMARK    6  A    between atoms: C_9  and  O_10
REMARK    7  A    between atoms: C_12  and  C_13
REMARK    8  A    between atoms: N_14  and  C_15
REMARK    9  A    between atoms: C_15  and  C_16
REMARK   10  A    between atoms: N_26  and  C_27
REMARK                            x       y       z     vdW  Elec       q    Type
REMARK                         _______ _______ _______ _____ _____    ______ ____
ROOT
ATOM      1  C   UNL     1       0.056  12.868  20.919  0.00  0.00    +0.000 C 
ENDROOT
BRANCH   1   2
ATOM      2  C   UNL     1      -0.756  13.588  22.027  0.00  0.00    +0.000 A 
ATOM      3  C   UNL     1      -0.332  14.543  22.874  0.00  0.00    +0.000 A 
ATOM      4  C   UNL     1      -1.125  15.001  23.981  0.00  0.00    +0.000 A 
ATOM      5  C   UNL     1      -2.298  14.425  24.281  0.00  0.00    +0.000 A 
ATOM      6  C   UNL     1      -3.101  14.889  25.464  0.00  0.00    +0.000 C 
ATOM      7  N   UNL     1      -2.795  13.432  23.438  0.00  0.00    +0.000 N 
ATOM      8  C   UNL     1      -2.193  13.170  22.204  0.00  0.00    +0.000 A 
ATOM      9  O   UNL     1      -2.798  12.618  21.286  0.00  0.00    +0.000 OA
BRANCH   3  10
ATOM     10  O   UNL     1       0.899  15.154  22.811  0.00  0.00    +0.000 OA
ATOM     11  H   UNL     1       0.958  15.564  21.922  0.00  0.00    +0.000 HD
ENDBRANCH   3  10
BRANCH   7  12
ATOM     12  C   UNL     1      -4.033  12.704  23.729  0.00  0.00    +0.000 C 
BRANCH  12  13
ATOM     13  C   UNL     1      -5.175  13.248  22.953  0.00  0.00    +0.000 A 
ATOM     14  C   UNL     1      -5.630  14.536  22.723  0.00  0.00    +0.000 A 
ATOM     15  C   UNL     1      -6.774  14.413  21.898  0.00  0.00    +0.000 A 
ATOM     16  C   UNL     1      -6.925  13.075  21.661  0.00  0.00    +0.000 A 
ATOM     17  O   UNL     1      -5.959  12.352  22.280  0.00  0.00    +0.000 OA
ENDBRANCH  12  13
ENDBRANCH   7  12
ENDBRANCH   1   2
BRANCH   1  21
ATOM     18  C   UNL     1       1.213  16.169  18.338  0.00  0.00    +0.000 A 
ATOM     19  C   UNL     1       2.161  15.224  18.720  0.00  0.00    +0.000 A 
ATOM     20  C   UNL     1       1.762  14.057  19.407  0.00  0.00    +0.000 A 
ATOM     21  C   UNL     1       0.414  13.855  19.786  0.00  0.00    +0.000 A 
ATOM     22  C   UNL     1      -0.514  14.814  19.359  0.00  0.00    +0.000 A 
ATOM     23  C   UNL     1      -0.128  15.923  18.609  0.00  0.00    +0.000 A 
BRANCH  18  25
ATOM     24  C   UNL     1       0.301  18.106  17.272  0.00  0.00    +0.000 C 
ATOM     25  O   UNL     1       1.427  17.383  17.751  0.00  0.00    +0.000 OA
ENDBRANCH  18  25
ENDBRANCH   1  21
BRANCH   1  26
ATOM     26  N   UNL     1      -0.573  11.570  20.530  0.00  0.00    +0.000 NA
ATOM     27  C   UNL     1      -0.529  11.127  19.131  0.00  0.00    +0.000 C 
ATOM     28  C   UNL     1       0.665  10.276  18.683  0.00  0.00    +0.000 C 
ATOM     29  N   UNL     1       1.068   9.240  19.636  0.00  0.00    +0.000 N 
ATOM     30  C   UNL     1       0.821   9.452  21.074  0.00  0.00    +0.000 C 
ATOM     31  C   UNL     1      -0.353  10.409  21.399  0.00  0.00    +0.000 C 
BRANCH  29  32
ATOM     32  C   UNL     1       1.989   8.280  19.194  0.00  0.00    +0.000 A 
ATOM     33  C   UNL     1       2.668   8.408  17.964  0.00  0.00    +0.000 A 
ATOM     34  C   UNL     1       3.421   7.370  17.407  0.00  0.00    +0.000 A 
ATOM     35  C   UNL     1       3.553   6.172  18.089  0.00  0.00    +0.000 A 
ATOM     36  C   UNL     1       2.988   6.046  19.352  0.00  0.00    +0.000 A 
ATOM     37  C   UNL     1       2.230   7.092  19.900  0.00  0.00    +0.000 A 
ENDBRANCH  29  32
ENDBRANCH   1  26
TORSDOF 8
ENDMDL
MODEL 9
REMARK VINA RESULT:      -8.0      2.891      9.179
REMARK  Name = 
REMARK  10 active torsions:
REMARK  status: ('A' for Active; 'I' for Inactive)
REMARK    1  A    between atoms: C_1  and  O_2
REMARK    2  A    between atoms: O_2  and  C_3
REMARK    3  A    between atoms: C_6  and  C_7
REMARK    4  A    between atoms: C_7  and  C_8
REMARK    5  A    between atoms: C_7  and  N_23
REMARK    6  A    between atoms: C_9  and  O_10
REMARK    7  A    between atoms: C_12  and  C_13
REMARK    8  A    between atoms: N_14  and  C_15
REMARK    9  A    between atoms: C_15  and  C_16
REMARK   10  A    between atoms: N_26  and  C_27
REMARK                            x       y       z     vdW  Elec       q    Type
REMARK                         _______ _______ _______ _____ _____    ______ ____
ROOT
ATOM      1  C   UNL     1      -1.963  13.276  20.801  0.00  0.00    +0.000 C 
ENDROOT
BRANCH   1   2
ATOM      2  C   UNL     1      -3.155  13.862  21.601  0.00  0.00    +0.000 A 
ATOM      3  C   UNL     1      -3.828  13.293  22.618  0.00  0.00    +0.000 A 
ATOM      4  C   UNL     1      -5.035  13.857  23.157  0.00  0.00    +0.000 A 
ATOM      5  C   UNL     1      -5.604  14.938  22.603  0.00  0.00    +0.000 A 
ATOM      6  C   UNL     1      -6.887  15.496  23.154  0.00  0.00    +0.000 C 
ATOM      7  N   UNL     1      -4.952  15.576  21.550  0.00  0.00    +0.000 N 
ATOM      8  C   UNL     1      -3.646  15.228  21.196  0.00  0.00    +0.000 A 
ATOM      9  O   UNL     1      -2.911  15.994  20.577  0.00  0.00    +0.000 OA
BRANCH   3  10
ATOM     10  O   UNL     1      -3.476  12.110  23.224  0.00  0.00    +0.000 OA
ATOM     11  H   UNL     1      -3.770  12.179  24.157  0.00  0.00    +0.000 HD
ENDBRANCH   3  10
BRANCH   7  12
ATOM     12  C   UNL     1      -5.538  16.720  20.845  0.00  0.00    +0.000 C 
BRANCH  12  13
ATOM     13  C   UNL     1      -6.100  16.316  19.532  0.00  0.00    +0.000 A 
ATOM     14  C   UNL     1      -6.548  15.104  19.032  0.00  0.00    +0.000 A 
ATOM     15  C   UNL     1      -6.970  15.353  17.703  0.00  0.00    +0.000 A 
ATOM     16  C   UNL     1      -6.777  16.690  17.492  0.00  0.00    +0.000 A 
ATOM     17  O   UNL     1      -6.263  17.294  18.592  0.00  0.00    +0.000 OA
ENDBRANCH  12  13
ENDBRANCH   7  12
ENDBRANCH   1   2
BRANCH   1  21
ATOM     18  C   UNL     1      -3.123  10.848  17.386  0.00  0.00    +0.000 A 
ATOM     19  C   UNL     1      -4.067  11.174  18.357  0.00  0.00    +0.000 A 
ATOM     20  C   UNL     1      -3.749  12.103  19.371  0.00  0.00    +0.000 A 
ATOM     21  C   UNL     1      -2.455  12.666  19.470  0.00  0.00    +0.000 A 
ATOM     22  C   UNL     1      -1.542  12.335  18.460  0.00  0.00    +0.000 A 
ATOM     23  C   UNL     1      -1.885  11.483  17.413  0.00  0.00    +0.000 A 
BRANCH  18  25
ATOM     24  C   UNL     1      -3.064  10.345  15.049  0.00  0.00    +0.000 C 
ATOM     25  O   UNL     1      -3.225   9.916  16.395  0.00  0.00    +0.000 OA
ENDBRANCH  18  25
ENDBRANCH   1  21
BRANCH   1  26
ATOM     26  N   UNL     1      -1.083  12.430  21.663  0.00  0.00    +0.000 NA
ATOM     27  C   UNL     1      -1.369  10.999  21.818  0.00  0.00    +0.000 C 
ATOM     28  C   UNL     1      -0.728  10.025  20.823  0.00  0.00    +0.000 C 
ATOM     29  N   UNL     1       0.674  10.310  20.507  0.00  0.00    +0.000 N 
ATOM     30  C   UNL     1       1.159  11.699  20.584  0.00  0.00    +0.000 C 
ATOM     31  C   UNL     1       0.368  12.612  21.555  0.00  0.00    +0.000 C 
BRANCH  29  32
ATOM     32  C   UNL     1       1.385   9.334  19.796  0.00  0.00    +0.000 A 
ATOM     33  C   UNL     1       1.686   9.480  18.425  0.00  0.00    +0.000 A 
ATOM     34  C   UNL     1       2.201   8.435  17.651  0.00  0.00    +0.000 A 
ATOM     35  C   UNL     1       2.470   7.211  18.238  0.00  0.00    +0.000 A 
ATOM     36  C   UNL     1       2.287   7.061  19.608  0.00  0.00    +0.000 A 
ATOM     37  C   UNL     1       1.767   8.115  20.375  0.00  0.00    +0.000 A 
ENDBRANCH  29  32
ENDBRANCH   1  26
TORSDOF 8
ENDMDL
