MODEL 1
REMARK VINA RESULT:      -8.0      0.000      0.000
REMARK  Name = 
REMARK  6 active torsions:
REMARK  status: ('A' for Active; 'I' for Inactive)
REMARK    1  A    between atoms: C_1  and  C_2
REMARK    2  A    between atoms: C_2  and  N_3
REMARK    3  A    between atoms: N_5  and  C_6
REMARK    4  A    between atoms: C_9  and  C_10
REMARK    5  A    between atoms: C_18  and  O_19
REMARK    6  A    between atoms: O_19  and  C_20
REMARK                            x       y       z     vdW  Elec       q    Type
REMARK                         _______ _______ _______ _____ _____    ______ ____
ROOT
ATOM      1  N   UNL     1      -1.414  11.620  19.412  0.00  0.00    +0.000 N 
ATOM      2  C   UNL     1      -0.565  10.694  18.841  0.00  0.00    +0.000 A 
ATOM      3  N   UNL     1       0.689  10.483  19.310  0.00  0.00    +0.000 N 
ATOM      4  N   UNL     1      -1.158  10.067  17.843  0.00  0.00    +0.000 NA
ATOM      5  C   UNL     1      -2.409  10.601  17.760  0.00  0.00    +0.000 A 
ATOM      6  C   UNL     1      -3.471  10.346  16.904  0.00  0.00    +0.000 A 
ATOM      7  N   UNL     1      -4.635  11.013  17.073  0.00  0.00    +0.000 NA
ATOM      8  C   UNL     1      -4.736  11.863  18.127  0.00  0.00    +0.000 A 
ATOM      9  N   UNL     1      -3.755  12.224  18.990  0.00  0.00    +0.000 NA
ATOM     10  C   UNL     1      -2.613  11.552  18.746  0.00  0.00    +0.000 A 
ATOM     11  H   UNL     1       1.294  11.271  19.520  0.00  0.00    +0.000 HD
ENDROOT
BRANCH   3  12
ATOM     12  C   UNL     1       1.399   9.278  19.083  0.00  0.00    +0.000 A 
ATOM     13  C   UNL     1       2.066   9.072  17.864  0.00  0.00    +0.000 A 
ATOM     14  C   UNL     1       2.792   7.908  17.616  0.00  0.00    +0.000 A 
ATOM     15  C   UNL     1       2.888   6.914  18.591  0.00  0.00    +0.000 A 
ATOM     16  C   UNL     1       3.681   5.669  18.326  0.00  0.00    +0.000 C 
ATOM     17  C   UNL     1       2.240   7.106  19.819  0.00  0.00    +0.000 A 
ATOM     18  C   UNL     1       1.501   8.273  20.060  0.00  0.00    +0.000 A 
ATOM     19 CL   UNL     1       0.731   8.457  21.598  0.00  0.00    +0.000 Cl
ENDBRANCH   3  12
BRANCH   1  21
ATOM     20  C   UNL     1      -1.358  11.635  21.875  0.00  0.00    +0.000 C 
ATOM     21  C   UNL     1      -1.152  12.419  20.591  0.00  0.00    +0.000 C 
ENDBRANCH   1  21
BRANCH   8  22
ATOM     22  O   UNL     1      -5.980  12.436  18.381  0.00  0.00    +0.000 OA
BRANCH  22  23
ATOM     23  C   UNL     1      -6.630  12.033  19.527  0.00  0.00    +0.000 A 
ATOM     24  C   UNL     1      -7.174  10.757  19.704  0.00  0.00    +0.000 A 
ATOM     25  F   UNL     1      -7.059   9.822  18.750  0.00  0.00    +0.000 F 
ATOM     26  C   UNL     1      -7.836  10.411  20.882  0.00  0.00    +0.000 A 
ATOM     27  C   UNL     1      -7.917  11.325  21.929  0.00  0.00    +0.000 A 
ATOM     28  C   UNL     1      -7.328  12.583  21.789  0.00  0.00    +0.000 A 
ATOM     29  C   UNL     1      -6.694  12.929  20.593  0.00  0.00    +0.000 A 
ATOM     30  F   UNL     1      -6.141  14.146  20.488  0.00  0.00    +0.000 F 
ENDBRANCH  22  23
ENDBRANCH   8  22
TORSDOF 4
ENDMDL
MODEL 2
REMARK VINA RESULT:      -7.9      0.112      1.534
REMARK  Name = 
REMARK  6 active torsions:
REMARK  status: ('A' for Active; 'I' for Inactive)
REMARK    1  A    between atoms: C_1  and  C_2
REMARK    2  A    between atoms: C_2  and  N_3
REMARK    3  A    between atoms: N_5  and  C_6
REMARK    4  A    between atoms: C_9  and  C_10
REMARK    5  A    between atoms: C_18  and  O_19
REMARK    6  A    between atoms: O_19  and  C_20
REMARK                            x       y       z     vdW  Elec       q    Type
REMARK                         _______ _______ _______ _____ _____    ______ ____
ROOT
ATOM      1  N   UNL     1      -1.358  11.597  19.459  0.00  0.00    +0.000 N 
ATOM      2  C   UNL     1      -0.518  10.667  18.881  0.00  0.00    +0.000 A 
ATOM      3  N   UNL     1       0.737  10.448  19.344  0.00  0.00    +0.000 N 
ATOM      4  N   UNL     1      -1.121  10.045  17.887  0.00  0.00    +0.000 NA
ATOM      5  C   UNL     1      -2.369  10.587  17.811  0.00  0.00    +0.000 A 
ATOM      6  C   UNL     1      -3.437  10.339  16.962  0.00  0.00    +0.000 A 
ATOM      7  N   UNL     1      -4.596  11.012  17.139  0.00  0.00    +0.000 NA
ATOM      8  C   UNL     1      -4.686  11.861  18.194  0.00  0.00    +0.000 A 
ATOM      9  N   UNL     1      -3.698  12.216  19.051  0.00  0.00    +0.000 NA
ATOM     10  C   UNL     1      -2.562  11.538  18.800  0.00  0.00    +0.000 A 
ATOM     11  H   UNL     1       1.348  11.233  19.550  0.00  0.00    +0.000 HD
ENDROOT
BRANCH   3  12
ATOM     12  C   UNL     1       1.439   9.239  19.110  0.00  0.00    +0.000 A 
ATOM     13  C   UNL     1       2.135   9.049  17.906  0.00  0.00    +0.000 A 
ATOM     14  C   UNL     1       2.855   7.881  17.653  0.00  0.00    +0.000 A 
ATOM     15  C   UNL     1       2.912   6.867  18.610  0.00  0.00    +0.000 A 
ATOM     16  C   UNL     1       3.697   5.618  18.340  0.00  0.00    +0.000 C 
ATOM     17  C   UNL     1       2.234   7.042  19.824  0.00  0.00    +0.000 A 
ATOM     18  C   UNL     1       1.503   8.214  20.069  0.00  0.00    +0.000 A 
ATOM     19 CL   UNL     1       0.695   8.376  21.590  0.00  0.00    +0.000 Cl
ENDBRANCH   3  12
BRANCH   1  21
ATOM     20  C   UNL     1      -1.380  11.640  21.922  0.00  0.00    +0.000 C 
ATOM     21  C   UNL     1      -1.085  12.393  20.638  0.00  0.00    +0.000 C 
ENDBRANCH   1  21
BRANCH   8  22
ATOM     22  O   UNL     1      -5.926  12.442  18.456  0.00  0.00    +0.000 OA
BRANCH  22  23
ATOM     23  C   UNL     1      -6.553  12.071  19.625  0.00  0.00    +0.000 A 
ATOM     24  C   UNL     1      -6.646  12.893  20.752  0.00  0.00    +0.000 A 
ATOM     25  F   UNL     1      -6.140  14.135  20.741  0.00  0.00    +0.000 F 
ATOM     26  C   UNL     1      -7.280  12.456  21.915  0.00  0.00    +0.000 A 
ATOM     27  C   UNL     1      -7.883  11.201  21.949  0.00  0.00    +0.000 A 
ATOM     28  C   UNL     1      -7.848  10.393  20.813  0.00  0.00    +0.000 A 
ATOM     29  C   UNL     1      -7.184  10.829  19.664  0.00  0.00    +0.000 A 
ATOM     30  F   UNL     1      -7.166  10.027  18.589  0.00  0.00    +0.000 F 
ENDBRANCH  22  23
ENDBRANCH   8  22
TORSDOF 4
ENDMDL
MODEL 3
REMARK VINA RESULT:      -7.9      5.396      8.982
REMARK  Name = 
REMARK  6 active torsions:
REMARK  status: ('A' for Active; 'I' for Inactive)
REMARK    1  A    between atoms: C_1  and  C_2
REMARK    2  A    between atoms: C_2  and  N_3
REMARK    3  A    between atoms: N_5  and  C_6
REMARK    4  A    between atoms: C_9  and  C_10
REMARK    5  A    between atoms: C_18  and  O_19
REMARK    6  A    between atoms: O_19  and  C_20
REMARK                            x       y       z     vdW  Elec       q    Type
REMARK                         _______ _______ _______ _____ _____    ______ ____
ROOT
ATOM      1  N   UNL     1       0.235   9.075  20.971  0.00  0.00    +0.000 N 
ATOM      2  C   UNL     1       0.255  10.231  20.218  0.00  0.00    +0.000 A 
ATOM      3  N   UNL     1      -0.470  11.324  20.559  0.00  0.00    +0.000 N 
ATOM      4  N   UNL     1       1.075  10.108  19.192  0.00  0.00    +0.000 NA
ATOM      5  C   UNL     1       1.589   8.848  19.275  0.00  0.00    +0.000 A 
ATOM      6  C   UNL     1       2.488   8.159  18.475  0.00  0.00    +0.000 A 
ATOM      7  N   UNL     1       2.858   6.905  18.820  0.00  0.00    +0.000 NA
ATOM      8  C   UNL     1       2.378   6.396  19.983  0.00  0.00    +0.000 A 
ATOM      9  N   UNL     1       1.462   6.955  20.811  0.00  0.00    +0.000 NA
ATOM     10  C   UNL     1       1.109   8.186  20.394  0.00  0.00    +0.000 A 
ATOM     11  H   UNL     1      -1.445  11.224  20.827  0.00  0.00    +0.000 HD
ENDROOT
BRANCH   3  12
ATOM     12  C   UNL     1      -0.142  12.630  20.118  0.00  0.00    +0.000 A 
ATOM     13  C   UNL     1       0.699  13.445  20.893  0.00  0.00    +0.000 A 
ATOM     14  C   UNL     1       1.060  14.727  20.478  0.00  0.00    +0.000 A 
ATOM     15  C   UNL     1       0.601  15.230  19.260  0.00  0.00    +0.000 A 
ATOM     16  C   UNL     1       1.002  16.603  18.811  0.00  0.00    +0.000 C 
ATOM     17  C   UNL     1      -0.229  14.427  18.466  0.00  0.00    +0.000 A 
ATOM     18  C   UNL     1      -0.599  13.143  18.893  0.00  0.00    +0.000 A 
ATOM     19 CL   UNL     1      -1.619  12.196  17.865  0.00  0.00    +0.000 Cl
ENDBRANCH   3  12
BRANCH   1  21
ATOM     20  C   UNL     1       0.288   9.468  23.402  0.00  0.00    +0.000 C 
ATOM     21  C   UNL     1      -0.462   8.873  22.224  0.00  0.00    +0.000 C 
ENDBRANCH   1  21
BRANCH   8  22
ATOM     22  O   UNL     1       2.873   5.163  20.405  0.00  0.00    +0.000 OA
BRANCH  22  23
ATOM     23  C   UNL     1       2.757   4.111  19.525  0.00  0.00    +0.000 A 
ATOM     24  C   UNL     1       3.817   3.619  18.757  0.00  0.00    +0.000 A 
ATOM     25  F   UNL     1       5.046   4.145  18.864  0.00  0.00    +0.000 F 
ATOM     26  C   UNL     1       3.636   2.559  17.868  0.00  0.00    +0.000 A 
ATOM     27  C   UNL     1       2.395   1.934  17.775  0.00  0.00    +0.000 A 
ATOM     28  C   UNL     1       1.343   2.376  18.578  0.00  0.00    +0.000 A 
ATOM     29  C   UNL     1       1.528   3.459  19.442  0.00  0.00    +0.000 A 
ATOM     30  F   UNL     1       0.497   3.861  20.198  0.00  0.00    +0.000 F 
ENDBRANCH  22  23
ENDBRANCH   8  22
TORSDOF 4
ENDMDL
MODEL 4
REMARK VINA RESULT:      -7.8      5.356      8.929
REMARK  Name = 
REMARK  6 active torsions:
REMARK  status: ('A' for Active; 'I' for Inactive)
REMARK    1  A    between atoms: C_1  and  C_2
REMARK    2  A    between atoms: C_2  and  N_3
REMARK    3  A    between atoms: N_5  and  C_6
REMARK    4  A    between atoms: C_9  and  C_10
REMARK    5  A    between atoms: C_18  and  O_19
REMARK    6  A    between atoms: O_19  and  C_20
REMARK                            x       y       z     vdW  Elec       q    Type
REMARK                         _______ _______ _______ _____ _____    ______ ____
ROOT
ATOM      1  N   UNL     1       0.231   9.087  20.948  0.00  0.00    +0.000 N 
ATOM      2  C   UNL     1       0.217  10.252  20.207  0.00  0.00    +0.000 A 
ATOM      3  N   UNL     1      -0.530  11.324  20.567  0.00  0.00    +0.000 N 
ATOM      4  N   UNL     1       1.031  10.159  19.174  0.00  0.00    +0.000 NA
ATOM      5  C   UNL     1       1.575   8.911  19.239  0.00  0.00    +0.000 A 
ATOM      6  C   UNL     1       2.483   8.251  18.424  0.00  0.00    +0.000 A 
ATOM      7  N   UNL     1       2.884   7.003  18.752  0.00  0.00    +0.000 NA
ATOM      8  C   UNL     1       2.426   6.470  19.913  0.00  0.00    +0.000 A 
ATOM      9  N   UNL     1       1.505   6.999  20.755  0.00  0.00    +0.000 NA
ATOM     10  C   UNL     1       1.120   8.226  20.354  0.00  0.00    +0.000 A 
ATOM     11  H   UNL     1      -1.500  11.199  20.842  0.00  0.00    +0.000 HD
ENDROOT
BRANCH   3  12
ATOM     12  C   UNL     1      -0.236  12.642  20.137  0.00  0.00    +0.000 A 
ATOM     13  C   UNL     1       0.549  13.486  20.939  0.00  0.00    +0.000 A 
ATOM     14  C   UNL     1       0.876  14.780  20.537  0.00  0.00    +0.000 A 
ATOM     15  C   UNL     1       0.437  15.269  19.305  0.00  0.00    +0.000 A 
ATOM     16  C   UNL     1       0.802  16.657  18.870  0.00  0.00    +0.000 C 
ATOM     17  C   UNL     1      -0.337  14.437  18.484  0.00  0.00    +0.000 A 
ATOM     18  C   UNL     1      -0.672  13.140  18.898  0.00  0.00    +0.000 A 
ATOM     19 CL   UNL     1      -1.623  12.158  17.837  0.00  0.00    +0.000 Cl
ENDBRANCH   3  12
BRANCH   1  21
ATOM     20  C   UNL     1       0.274   9.492  23.378  0.00  0.00    +0.000 C 
ATOM     21  C   UNL     1      -0.450   8.856  22.205  0.00  0.00    +0.000 C 
ENDBRANCH   1  21
BRANCH   8  22
ATOM     22  O   UNL     1       2.954   5.245  20.318  0.00  0.00    +0.000 OA
BRANCH  22  23
ATOM     23  C   UNL     1       2.706   4.161  19.506  0.00  0.00    +0.000 A 
ATOM     24  C   UNL     1       1.469   3.513  19.430  0.00  0.00    +0.000 A 
ATOM     25  F   UNL     1       0.420   3.948  20.144  0.00  0.00    +0.000 F 
ATOM     26  C   UNL     1       1.281   2.407  18.600  0.00  0.00    +0.000 A 
ATOM     27  C   UNL     1       2.321   1.964  17.786  0.00  0.00    +0.000 A 
ATOM     28  C   UNL     1       3.543   2.637  17.808  0.00  0.00    +0.000 A 
ATOM     29  C   UNL     1       3.729   3.724  18.666  0.00  0.00    +0.000 A 
ATOM     30  F   UNL     1       4.916   4.347  18.666  0.00  0.00    +0.000 F 
ENDBRANCH  22  23
ENDBRANCH   8  22
TORSDOF 4
ENDMDL
MODEL 5
REMARK VINA RESULT:      -7.8      5.635      8.631
REMARK  Name = 
REMARK  6 active torsions:
REMARK  status: ('A' for Active; 'I' for Inactive)
REMARK    1  A    between atoms: C_1  and  C_2
REMARK    2  A    between atoms: C_2  and  N_3
REMARK    3  A    between atoms: N_5  and  C_6
REMARK    4  A    between atoms: C_9  and  C_10
REMARK    5  A    between atoms: C_18  and  O_19
REMARK    6  A    between atoms: O_19  and  C_20
REMARK                            x       y       z     vdW  Elec       q    Type
REMARK                         _______ _______ _______ _____ _____    ______ ____
ROOT
ATOM      1  N   UNL     1       1.087   9.463  20.880  0.00  0.00    +0.000 N 
ATOM      2  C   UNL     1       0.813  10.625  20.184  0.00  0.00    +0.000 A 
ATOM      3  N   UNL     1       0.276  11.713  20.787  0.00  0.00    +0.000 N 
ATOM      4  N   UNL     1       1.173  10.509  18.921  0.00  0.00    +0.000 NA
ATOM      5  C   UNL     1       1.680   9.251  18.791  0.00  0.00    +0.000 A 
ATOM      6  C   UNL     1       2.200   8.569  17.701  0.00  0.00    +0.000 A 
ATOM      7  N   UNL     1       2.674   7.314  17.868  0.00  0.00    +0.000 NA
ATOM      8  C   UNL     1       2.681   6.796  19.123  0.00  0.00    +0.000 A 
ATOM      9  N   UNL     1       2.157   7.348  20.244  0.00  0.00    +0.000 NA
ATOM     10  C   UNL     1       1.670   8.581  20.004  0.00  0.00    +0.000 A 
ATOM     11  H   UNL     1      -0.519  11.609  21.410  0.00  0.00    +0.000 HD
ENDROOT
BRANCH   3  12
ATOM     12  C   UNL     1       0.409  13.023  20.262  0.00  0.00    +0.000 A 
ATOM     13  C   UNL     1       1.457  13.852  20.692  0.00  0.00    +0.000 A 
ATOM     14  C   UNL     1       1.629  15.138  20.180  0.00  0.00    +0.000 A 
ATOM     15  C   UNL     1       0.762  15.631  19.204  0.00  0.00    +0.000 A 
ATOM     16  C   UNL     1       0.958  17.009  18.645  0.00  0.00    +0.000 C 
ATOM     17  C   UNL     1      -0.284  14.814  18.752  0.00  0.00    +0.000 A 
ATOM     18  C   UNL     1      -0.460  13.526  19.278  0.00  0.00    +0.000 A 
ATOM     19 CL   UNL     1      -1.763  12.561  18.674  0.00  0.00    +0.000 Cl
ENDBRANCH   3  12
BRANCH   1  21
ATOM     20  C   UNL     1      -0.513   8.970  22.687  0.00  0.00    +0.000 C 
ATOM     21  C   UNL     1       0.928   9.252  22.303  0.00  0.00    +0.000 C 
ENDBRANCH   1  21
BRANCH   8  22
ATOM     22  O   UNL     1       3.302   5.562  19.312  0.00  0.00    +0.000 OA
BRANCH  22  23
ATOM     23  C   UNL     1       2.479   4.473  19.494  0.00  0.00    +0.000 A 
ATOM     24  C   UNL     1       2.069   4.009  20.748  0.00  0.00    +0.000 A 
ATOM     25  F   UNL     1       2.442   4.641  21.870  0.00  0.00    +0.000 F 
ATOM     26  C   UNL     1       1.247   2.889  20.871  0.00  0.00    +0.000 A 
ATOM     27  C   UNL     1       0.776   2.243  19.730  0.00  0.00    +0.000 A 
ATOM     28  C   UNL     1       1.130   2.730  18.471  0.00  0.00    +0.000 A 
ATOM     29  C   UNL     1       1.978   3.834  18.361  0.00  0.00    +0.000 A 
ATOM     30  F   UNL     1       2.303   4.276  17.137  0.00  0.00    +0.000 F 
ENDBRANCH  22  23
ENDBRANCH   8  22
TORSDOF 4
ENDMDL
MODEL 6
REMARK VINA RESULT:      -7.8      5.590      8.691
REMARK  Name = 
REMARK  6 active torsions:
REMARK  status: ('A' for Active; 'I' for Inactive)
REMARK    1  A    between atoms: C_1  and  C_2
REMARK    2  A    between atoms: C_2  and  N_3
REMARK    3  A    between atoms: N_5  and  C_6
REMARK    4  A    between atoms: C_9  and  C_10
REMARK    5  A    between atoms: C_18  and  O_19
REMARK    6  A    between atoms: O_19  and  C_20
REMARK                            x       y       z     vdW  Elec       q    Type
REMARK                         _______ _______ _______ _____ _____    ______ ____
ROOT
ATOM      1  N   UNL     1       1.058   9.492  20.915  0.00  0.00    +0.000 N 
ATOM      2  C   UNL     1       0.788  10.631  20.184  0.00  0.00    +0.000 A 
ATOM      3  N   UNL     1       0.226  11.729  20.745  0.00  0.00    +0.000 N 
ATOM      4  N   UNL     1       1.179  10.487  18.932  0.00  0.00    +0.000 NA
ATOM      5  C   UNL     1       1.701   9.231  18.847  0.00  0.00    +0.000 A 
ATOM      6  C   UNL     1       2.254   8.527  17.788  0.00  0.00    +0.000 A 
ATOM      7  N   UNL     1       2.738   7.282  17.999  0.00  0.00    +0.000 NA
ATOM      8  C   UNL     1       2.721   6.798  19.267  0.00  0.00    +0.000 A 
ATOM      9  N   UNL     1       2.165   7.373  20.360  0.00  0.00    +0.000 NA
ATOM     10  C   UNL     1       1.670   8.594  20.077  0.00  0.00    +0.000 A 
ATOM     11  H   UNL     1      -0.583  11.633  21.352  0.00  0.00    +0.000 HD
ENDROOT
BRANCH   3  12
ATOM     12  C   UNL     1       0.356  13.026  20.189  0.00  0.00    +0.000 A 
ATOM     13  C   UNL     1       1.392  13.874  20.612  0.00  0.00    +0.000 A 
ATOM     14  C   UNL     1       1.563  15.147  20.070  0.00  0.00    +0.000 A 
ATOM     15  C   UNL     1       0.705  15.609  19.070  0.00  0.00    +0.000 A 
ATOM     16  C   UNL     1       0.900  16.974  18.479  0.00  0.00    +0.000 C 
ATOM     17  C   UNL     1      -0.328  14.773  18.624  0.00  0.00    +0.000 A 
ATOM     18  C   UNL     1      -0.502  13.497  19.181  0.00  0.00    +0.000 A 
ATOM     19 CL   UNL     1      -1.790  12.508  18.583  0.00  0.00    +0.000 Cl
ENDBRANCH   3  12
BRANCH   1  21
ATOM     20  C   UNL     1      -0.576   9.017  22.697  0.00  0.00    +0.000 C 
ATOM     21  C   UNL     1       0.868   9.316  22.340  0.00  0.00    +0.000 C 
ENDBRANCH   1  21
BRANCH   8  22
ATOM     22  O   UNL     1       3.350   5.577  19.503  0.00  0.00    +0.000 OA
BRANCH  22  23
ATOM     23  C   UNL     1       2.599   4.440  19.305  0.00  0.00    +0.000 A 
ATOM     24  C   UNL     1       2.539   3.750  18.090  0.00  0.00    +0.000 A 
ATOM     25  F   UNL     1       3.257   4.155  17.033  0.00  0.00    +0.000 F 
ATOM     26  C   UNL     1       1.746   2.611  17.944  0.00  0.00    +0.000 A 
ATOM     27  C   UNL     1       1.039   2.112  19.034  0.00  0.00    +0.000 A 
ATOM     28  C   UNL     1       1.135   2.757  20.268  0.00  0.00    +0.000 A 
ATOM     29  C   UNL     1       1.908   3.913  20.395  0.00  0.00    +0.000 A 
ATOM     30  F   UNL     1       1.977   4.512  21.592  0.00  0.00    +0.000 F 
ENDBRANCH  22  23
ENDBRANCH   8  22
TORSDOF 4
ENDMDL
MODEL 7
REMARK VINA RESULT:      -7.8      5.484      8.598
REMARK  Name = 
REMARK  6 active torsions:
REMARK  status: ('A' for Active; 'I' for Inactive)
REMARK    1  A    between atoms: C_1  and  C_2
REMARK    2  A    between atoms: C_2  and  N_3
REMARK    3  A    between atoms: N_5  and  C_6
REMARK    4  A    between atoms: C_9  and  C_10
REMARK    5  A    between atoms: C_18  and  O_19
REMARK    6  A    between atoms: O_19  and  C_20
REMARK                            x       y       z     vdW  Elec       q    Type
REMARK                         _______ _______ _______ _____ _____    ______ ____
ROOT
ATOM      1  N   UNL     1       1.019   9.834  20.854  0.00  0.00    +0.000 N 
ATOM      2  C   UNL     1       0.764  10.952  20.084  0.00  0.00    +0.000 A 
ATOM      3  N   UNL     1       0.249  12.088  20.615  0.00  0.00    +0.000 N 
ATOM      4  N   UNL     1       1.118  10.747  18.830  0.00  0.00    +0.000 NA
ATOM      5  C   UNL     1       1.601   9.474  18.782  0.00  0.00    +0.000 A 
ATOM      6  C   UNL     1       2.105   8.712  17.738  0.00  0.00    +0.000 A 
ATOM      7  N   UNL     1       2.557   7.462  17.986  0.00  0.00    +0.000 NA
ATOM      8  C   UNL     1       2.559   7.029  19.273  0.00  0.00    +0.000 A 
ATOM      9  N   UNL     1       2.049   7.663  20.356  0.00  0.00    +0.000 NA
ATOM     10  C   UNL     1       1.583   8.886  20.036  0.00  0.00    +0.000 A 
ATOM     11  H   UNL     1      -0.546  12.040  21.245  0.00  0.00    +0.000 HD
ENDROOT
BRANCH   3  12
ATOM     12  C   UNL     1       0.403  13.357  20.004  0.00  0.00    +0.000 A 
ATOM     13  C   UNL     1      -0.662  13.930  19.290  0.00  0.00    +0.000 A 
ATOM     14  C   UNL     1      -0.552  15.187  18.696  0.00  0.00    +0.000 A 
ATOM     15  C   UNL     1       0.629  15.921  18.811  0.00  0.00    +0.000 A 
ATOM     16  C   UNL     1       0.740  17.277  18.182  0.00  0.00    +0.000 C 
ATOM     17  C   UNL     1       1.700  15.372  19.529  0.00  0.00    +0.000 A 
ATOM     18  C   UNL     1       1.589  14.103  20.116  0.00  0.00    +0.000 A 
ATOM     19 CL   UNL     1       2.942  13.482  20.998  0.00  0.00    +0.000 Cl
ENDBRANCH   3  12
BRANCH   1  21
ATOM     20  C   UNL     1      -0.546   9.316  22.684  0.00  0.00    +0.000 C 
ATOM     21  C   UNL     1       0.863   9.721  22.289  0.00  0.00    +0.000 C 
ENDBRANCH   1  21
BRANCH   8  22
ATOM     22  O   UNL     1       3.158   5.799  19.542  0.00  0.00    +0.000 OA
BRANCH  22  23
ATOM     23  C   UNL     1       2.447   4.671  19.199  0.00  0.00    +0.000 A 
ATOM     24  C   UNL     1       2.591   4.001  17.981  0.00  0.00    +0.000 A 
ATOM     25  F   UNL     1       3.480   4.418  17.068  0.00  0.00    +0.000 F 
ATOM     26  C   UNL     1       1.830   2.871  17.683  0.00  0.00    +0.000 A 
ATOM     27  C   UNL     1       0.945   2.358  18.629  0.00  0.00    +0.000 A 
ATOM     28  C   UNL     1       0.833   2.983  19.871  0.00  0.00    +0.000 A 
ATOM     29  C   UNL     1       1.578   4.132  20.147  0.00  0.00    +0.000 A 
ATOM     30  F   UNL     1       1.445   4.711  21.349  0.00  0.00    +0.000 F 
ENDBRANCH  22  23
ENDBRANCH   8  22
TORSDOF 4
ENDMDL
MODEL 8
REMARK VINA RESULT:      -7.7      5.434      8.644
REMARK  Name = 
REMARK  6 active torsions:
REMARK  status: ('A' for Active; 'I' for Inactive)
REMARK    1  A    between atoms: C_1  and  C_2
REMARK    2  A    between atoms: C_2  and  N_3
REMARK    3  A    between atoms: N_5  and  C_6
REMARK    4  A    between atoms: C_9  and  C_10
REMARK    5  A    between atoms: C_18  and  O_19
REMARK    6  A    between atoms: O_19  and  C_20
REMARK                            x       y       z     vdW  Elec       q    Type
REMARK                         _______ _______ _______ _____ _____    ______ ____
ROOT
ATOM      1  N   UNL     1       1.039   9.774  20.815  0.00  0.00    +0.000 N 
ATOM      2  C   UNL     1       0.773  10.896  20.055  0.00  0.00    +0.000 A 
ATOM      3  N   UNL     1       0.246  12.021  20.596  0.00  0.00    +0.000 N 
ATOM      4  N   UNL     1       1.129  10.707  18.800  0.00  0.00    +0.000 NA
ATOM      5  C   UNL     1       1.626   9.439  18.740  0.00  0.00    +0.000 A 
ATOM      6  C   UNL     1       2.138   8.692  17.690  0.00  0.00    +0.000 A 
ATOM      7  N   UNL     1       2.603   7.445  17.926  0.00  0.00    +0.000 NA
ATOM      8  C   UNL     1       2.609   6.999  19.209  0.00  0.00    +0.000 A 
ATOM      9  N   UNL     1       2.092   7.618  20.297  0.00  0.00    +0.000 NA
ATOM     10  C   UNL     1       1.613   8.839  19.989  0.00  0.00    +0.000 A 
ATOM     11  H   UNL     1      -0.549  11.959  21.226  0.00  0.00    +0.000 HD
ENDROOT
BRANCH   3  12
ATOM     12  C   UNL     1       0.387  13.298  19.997  0.00  0.00    +0.000 A 
ATOM     13  C   UNL     1      -0.679  13.860  19.277  0.00  0.00    +0.000 A 
ATOM     14  C   UNL     1      -0.581  15.123  18.694  0.00  0.00    +0.000 A 
ATOM     15  C   UNL     1       0.588  15.874  18.828  0.00  0.00    +0.000 A 
ATOM     16  C   UNL     1       0.684  17.238  18.211  0.00  0.00    +0.000 C 
ATOM     17  C   UNL     1       1.659  15.336  19.554  0.00  0.00    +0.000 A 
ATOM     18  C   UNL     1       1.560  14.060  20.129  0.00  0.00    +0.000 A 
ATOM     19 CL   UNL     1       2.913  13.453  21.021  0.00  0.00    +0.000 Cl
ENDBRANCH   3  12
BRANCH   1  21
ATOM     20  C   UNL     1      -0.514   9.196  22.637  0.00  0.00    +0.000 C 
ATOM     21  C   UNL     1       0.883   9.645  22.248  0.00  0.00    +0.000 C 
ENDBRANCH   1  21
BRANCH   8  22
ATOM     22  O   UNL     1       3.221   5.773  19.467  0.00  0.00    +0.000 OA
BRANCH  22  23
ATOM     23  C   UNL     1       2.479   4.641  19.213  0.00  0.00    +0.000 A 
ATOM     24  C   UNL     1       1.462   4.173  20.052  0.00  0.00    +0.000 A 
ATOM     25  F   UNL     1       1.127   4.842  21.165  0.00  0.00    +0.000 F 
ATOM     26  C   UNL     1       0.755   3.010  19.751  0.00  0.00    +0.000 A 
ATOM     27  C   UNL     1       1.018   2.322  18.569  0.00  0.00    +0.000 A 
ATOM     28  C   UNL     1       1.990   2.809  17.694  0.00  0.00    +0.000 A 
ATOM     29  C   UNL     1       2.713   3.959  18.021  0.00  0.00    +0.000 A 
ATOM     30  F   UNL     1       3.642   4.399  17.161  0.00  0.00    +0.000 F 
ENDBRANCH  22  23
ENDBRANCH   8  22
TORSDOF 4
ENDMDL
MODEL 9
REMARK VINA RESULT:      -7.7      5.431      8.686
REMARK  Name = 
REMARK  6 active torsions:
REMARK  status: ('A' for Active; 'I' for Inactive)
REMARK    1  A    between atoms: C_1  and  C_2
REMARK    2  A    between atoms: C_2  and  N_3
REMARK    3  A    between atoms: N_5  and  C_6
REMARK    4  A    between atoms: C_9  and  C_10
REMARK    5  A    between atoms: C_18  and  O_19
REMARK    6  A    between atoms: O_19  and  C_20
REMARK                            x       y       z     vdW  Elec       q    Type
REMARK                         _______ _______ _______ _____ _____    ______ ____
ROOT
ATOM      1  N   UNL     1       0.254   9.208  20.726  0.00  0.00    +0.000 N 
ATOM      2  C   UNL     1       0.072  10.405  20.063  0.00  0.00    +0.000 A 
ATOM      3  N   UNL     1      -0.762  11.366  20.532  0.00  0.00    +0.000 N 
ATOM      4  N   UNL     1       0.826  10.463  18.983  0.00  0.00    +0.000 NA
ATOM      5  C   UNL     1       1.502   9.280  18.937  0.00  0.00    +0.000 A 
ATOM      6  C   UNL     1       2.423   8.773  18.033  0.00  0.00    +0.000 A 
ATOM      7  N   UNL     1       2.974   7.559  18.256  0.00  0.00    +0.000 NA
ATOM      8  C   UNL     1       2.648   6.913  19.404  0.00  0.00    +0.000 A 
ATOM      9  N   UNL     1       1.729   7.287  20.327  0.00  0.00    +0.000 NA
ATOM     10  C   UNL     1       1.192   8.486  20.029  0.00  0.00    +0.000 A 
ATOM     11  H   UNL     1      -1.694  11.119  20.851  0.00  0.00    +0.000 HD
ENDROOT
BRANCH   3  12
ATOM     12  C   UNL     1      -0.636  12.731  20.174  0.00  0.00    +0.000 A 
ATOM     13  C   UNL     1      -0.492  13.095  18.825  0.00  0.00    +0.000 A 
ATOM     14  C   UNL     1      -0.389  14.430  18.436  0.00  0.00    +0.000 A 
ATOM     15  C   UNL     1      -0.441  15.450  19.388  0.00  0.00    +0.000 A 
ATOM     16  C   UNL     1      -0.343  16.885  18.964  0.00  0.00    +0.000 C 
ATOM     17  C   UNL     1      -0.597  15.107  20.738  0.00  0.00    +0.000 A 
ATOM     18  C   UNL     1      -0.690  13.763  21.126  0.00  0.00    +0.000 A 
ATOM     19 CL   UNL     1      -0.890  13.403  22.807  0.00  0.00    +0.000 Cl
ENDBRANCH   3  12
BRANCH   1  21
ATOM     20  C   UNL     1       0.403   9.472  23.170  0.00  0.00    +0.000 C 
ATOM     21  C   UNL     1      -0.320   8.830  22.000  0.00  0.00    +0.000 C 
ENDBRANCH   1  21
BRANCH   8  22
ATOM     22  O   UNL     1       3.327   5.731  19.699  0.00  0.00    +0.000 OA
BRANCH  22  23
ATOM     23  C   UNL     1       2.651   4.552  19.477  0.00  0.00    +0.000 A 
ATOM     24  C   UNL     1       2.519   3.956  18.219  0.00  0.00    +0.000 A 
ATOM     25  F   UNL     1       3.089   4.504  17.136  0.00  0.00    +0.000 F 
ATOM     26  C   UNL     1       1.807   2.768  18.053  0.00  0.00    +0.000 A 
ATOM     27  C   UNL     1       1.259   2.125  19.160  0.00  0.00    +0.000 A 
ATOM     28  C   UNL     1       1.432   2.677  20.429  0.00  0.00    +0.000 A 
ATOM     29  C   UNL     1       2.121   3.884  20.580  0.00  0.00    +0.000 A 
ATOM     30  F   UNL     1       2.267   4.391  21.812  0.00  0.00    +0.000 F 
ENDBRANCH  22  23
ENDBRANCH   8  22
TORSDOF 4
ENDMDL
