MODEL 1
REMARK VINA RESULT:      -7.8      0.000      0.000
REMARK  Name = 
REMARK  5 active torsions:
REMARK  status: ('A' for Active; 'I' for Inactive)
REMARK    1  A    between atoms: C_1  and  O_2
REMARK    2  A    between atoms: O_2  and  C_3
REMARK    3  A    between atoms: C_8  and  C_9
REMARK    4  A    between atoms: C_15  and  C_16
REMARK    5  A    between atoms: C_18  and  C_19
REMARK                            x       y       z     vdW  Elec       q    Type
REMARK                         _______ _______ _______ _____ _____    ______ ____
ROOT
ATOM      1  C   UNL     1       4.605   3.921  18.510  0.00  0.00    +0.000 C 
ATOM      2  O   UNL     1       4.676   2.785  18.980  0.00  0.00    +0.000 OA
ATOM      3  N   UNL     1       3.828   4.905  19.151  0.00  0.00    +0.000 N 
ATOM      4  C   UNL     1       3.336   4.605  20.497  0.00  0.00    +0.000 C 
ATOM      5  C   UNL     1       1.838   4.859  20.591  0.00  0.00    +0.000 C 
ATOM      6  C   UNL     1       1.525   6.317  20.268  0.00  0.00    +0.000 C 
ATOM      7  C   UNL     1       2.090   6.721  18.898  0.00  0.00    +0.000 C 
ATOM      8  C   UNL     1       3.552   6.277  18.700  0.00  0.00    +0.000 C 
ENDROOT
BRANCH   7   9
ATOM      9  C   UNL     1       1.949   8.199  18.644  0.00  0.00    +0.000 A 
ATOM     10  C   UNL     1       1.329   9.170  19.467  0.00  0.00    +0.000 A 
ATOM     11  C   UNL     1       1.431  10.353  18.774  0.00  0.00    +0.000 A 
ATOM     12  C   UNL     1       0.972  11.724  19.080  0.00  0.00    +0.000 C 
ATOM     13  N   UNL     1       2.090  10.046  17.617  0.00  0.00    +0.000 N 
ATOM     14  N   UNL     1       2.399   8.747  17.507  0.00  0.00    +0.000 NA
ATOM     15  H   UNL     1       2.362  10.669  16.861  0.00  0.00    +0.000 HD
ENDBRANCH   7   9
BRANCH   1  21
ATOM     16  C   UNL     1       6.756   4.594  17.366  0.00  0.00    +0.000 A 
ATOM     17  N   UNL     1       7.525   4.904  16.282  0.00  0.00    +0.000 NA
ATOM     18  C   UNL     1       6.936   4.884  15.074  0.00  0.00    +0.000 A 
ATOM     19  C   UNL     1       5.603   4.580  14.890  0.00  0.00    +0.000 A 
ATOM     20  C   UNL     1       4.832   4.271  16.009  0.00  0.00    +0.000 A 
ATOM     21  C   UNL     1       5.411   4.209  17.283  0.00  0.00    +0.000 A 
BRANCH  16  23
ATOM     22  C   UNL     1       7.721   5.986  18.939  0.00  0.00    +0.000 C 
ATOM     23  O   UNL     1       7.400   4.641  18.583  0.00  0.00    +0.000 OA
ENDBRANCH  16  23
ENDBRANCH   1  21
TORSDOF 3
ENDMDL
MODEL 2
REMARK VINA RESULT:      -7.8      3.376      5.744
REMARK  Name = 
REMARK  5 active torsions:
REMARK  status: ('A' for Active; 'I' for Inactive)
REMARK    1  A    between atoms: C_1  and  O_2
REMARK    2  A    between atoms: O_2  and  C_3
REMARK    3  A    between atoms: C_8  and  C_9
REMARK    4  A    between atoms: C_15  and  C_16
REMARK    5  A    between atoms: C_18  and  C_19
REMARK                            x       y       z     vdW  Elec       q    Type
REMARK                         _______ _______ _______ _____ _____    ______ ____
ROOT
ATOM      1  C   UNL     1       3.295   3.418  17.480  0.00  0.00    +0.000 C 
ATOM      2  O   UNL     1       2.742   2.574  16.774  0.00  0.00    +0.000 OA
ATOM      3  N   UNL     1       4.311   4.233  16.944  0.00  0.00    +0.000 N 
ATOM      4  C   UNL     1       4.493   4.217  15.490  0.00  0.00    +0.000 C 
ATOM      5  C   UNL     1       5.952   3.974  15.134  0.00  0.00    +0.000 C 
ATOM      6  C   UNL     1       6.834   5.069  15.727  0.00  0.00    +0.000 C 
ATOM      7  C   UNL     1       6.628   5.195  17.243  0.00  0.00    +0.000 C 
ATOM      8  C   UNL     1       5.139   5.225  17.644  0.00  0.00    +0.000 C 
ENDROOT
BRANCH   7   9
ATOM      9  C   UNL     1       7.351   6.387  17.813  0.00  0.00    +0.000 A 
ATOM     10  C   UNL     1       7.411   7.702  17.292  0.00  0.00    +0.000 A 
ATOM     11  C   UNL     1       8.223   8.399  18.155  0.00  0.00    +0.000 A 
ATOM     12  C   UNL     1       8.691   9.800  18.163  0.00  0.00    +0.000 C 
ATOM     13  N   UNL     1       8.588   7.503  19.120  0.00  0.00    +0.000 N 
ATOM     14  N   UNL     1       8.089   6.275  18.927  0.00  0.00    +0.000 NA
ATOM     15  H   UNL     1       9.174   7.659  19.938  0.00  0.00    +0.000 HD
ENDBRANCH   7   9
BRANCH   1  21
ATOM     16  C   UNL     1       3.247   2.709  19.905  0.00  0.00    +0.000 A 
ATOM     17  N   UNL     1       2.804   2.774  21.194  0.00  0.00    +0.000 NA
ATOM     18  C   UNL     1       1.857   3.684  21.482  0.00  0.00    +0.000 A 
ATOM     19  C   UNL     1       1.312   4.531  20.540  0.00  0.00    +0.000 A 
ATOM     20  C   UNL     1       1.772   4.445  19.227  0.00  0.00    +0.000 A 
ATOM     21  C   UNL     1       2.807   3.565  18.886  0.00  0.00    +0.000 A 
BRANCH  16  23
ATOM     22  C   UNL     1       5.064   1.584  20.785  0.00  0.00    +0.000 C 
ATOM     23  O   UNL     1       4.207   1.753  19.655  0.00  0.00    +0.000 OA
ENDBRANCH  16  23
ENDBRANCH   1  21
TORSDOF 3
ENDMDL
MODEL 3
REMARK VINA RESULT:      -7.5      2.830      5.804
REMARK  Name = 
REMARK  5 active torsions:
REMARK  status: ('A' for Active; 'I' for Inactive)
REMARK    1  A    between atoms: C_1  and  O_2
REMARK    2  A    between atoms: O_2  and  C_3
REMARK    3  A    between atoms: C_8  and  C_9
REMARK    4  A    between atoms: C_15  and  C_16
REMARK    5  A    between atoms: C_18  and  C_19
REMARK                            x       y       z     vdW  Elec       q    Type
REMARK                         _______ _______ _______ _____ _____    ______ ____
ROOT
ATOM      1  C   UNL     1       3.421   3.273  17.592  0.00  0.00    +0.000 C 
ATOM      2  O   UNL     1       2.895   2.390  16.913  0.00  0.00    +0.000 OA
ATOM      3  N   UNL     1       4.417   4.097  17.034  0.00  0.00    +0.000 N 
ATOM      4  C   UNL     1       4.608   4.037  15.582  0.00  0.00    +0.000 C 
ATOM      5  C   UNL     1       6.076   3.822  15.242  0.00  0.00    +0.000 C 
ATOM      6  C   UNL     1       6.924   4.961  15.802  0.00  0.00    +0.000 C 
ATOM      7  C   UNL     1       6.705   5.133  17.312  0.00  0.00    +0.000 C 
ATOM      8  C   UNL     1       5.214   5.135  17.703  0.00  0.00    +0.000 C 
ENDROOT
BRANCH   7   9
ATOM      9  C   UNL     1       7.391   6.363  17.844  0.00  0.00    +0.000 A 
ATOM     10  C   UNL     1       7.412   7.662  17.282  0.00  0.00    +0.000 A 
ATOM     11  C   UNL     1       8.202   8.410  18.122  0.00  0.00    +0.000 A 
ATOM     12  C   UNL     1       8.628   9.825  18.086  0.00  0.00    +0.000 C 
ATOM     13  N   UNL     1       8.594   7.556  19.115  0.00  0.00    +0.000 N 
ATOM     14  N   UNL     1       8.131   6.309  18.961  0.00  0.00    +0.000 NA
ATOM     15  H   UNL     1       9.174   7.755  19.927  0.00  0.00    +0.000 HD
ENDBRANCH   7   9
BRANCH   1  21
ATOM     16  C   UNL     1       2.236   4.615  19.376  0.00  0.00    +0.000 A 
ATOM     17  N   UNL     1       1.792   4.847  20.646  0.00  0.00    +0.000 NA
ATOM     18  C   UNL     1       2.076   3.925  21.583  0.00  0.00    +0.000 A 
ATOM     19  C   UNL     1       2.797   2.779  21.320  0.00  0.00    +0.000 A 
ATOM     20  C   UNL     1       3.247   2.562  20.019  0.00  0.00    +0.000 A 
ATOM     21  C   UNL     1       2.920   3.454  18.990  0.00  0.00    +0.000 A 
BRANCH  16  23
ATOM     22  C   UNL     1       2.413   6.866  18.884  0.00  0.00    +0.000 C 
ATOM     23  O   UNL     1       1.933   5.592  18.454  0.00  0.00    +0.000 OA
ENDBRANCH  16  23
ENDBRANCH   1  21
TORSDOF 3
ENDMDL
MODEL 4
REMARK VINA RESULT:      -7.2      3.324      6.469
REMARK  Name = 
REMARK  5 active torsions:
REMARK  status: ('A' for Active; 'I' for Inactive)
REMARK    1  A    between atoms: C_1  and  O_2
REMARK    2  A    between atoms: O_2  and  C_3
REMARK    3  A    between atoms: C_8  and  C_9
REMARK    4  A    between atoms: C_15  and  C_16
REMARK    5  A    between atoms: C_18  and  C_19
REMARK                            x       y       z     vdW  Elec       q    Type
REMARK                         _______ _______ _______ _____ _____    ______ ____
ROOT
ATOM      1  C   UNL     1       4.664   4.930  19.035  0.00  0.00    +0.000 C 
ATOM      2  O   UNL     1       4.793   5.520  20.109  0.00  0.00    +0.000 OA
ATOM      3  N   UNL     1       5.644   5.061  18.034  0.00  0.00    +0.000 N 
ATOM      4  C   UNL     1       6.911   5.695  18.407  0.00  0.00    +0.000 C 
ATOM      5  C   UNL     1       7.266   6.804  17.428  0.00  0.00    +0.000 C 
ATOM      6  C   UNL     1       7.396   6.244  16.014  0.00  0.00    +0.000 C 
ATOM      7  C   UNL     1       6.126   5.492  15.591  0.00  0.00    +0.000 C 
ATOM      8  C   UNL     1       5.625   4.512  16.670  0.00  0.00    +0.000 C 
ENDROOT
BRANCH   7   9
ATOM      9  C   UNL     1       6.305   4.781  14.276  0.00  0.00    +0.000 A 
ATOM     10  C   UNL     1       5.526   3.725  13.742  0.00  0.00    +0.000 A 
ATOM     11  C   UNL     1       6.119   3.405  12.544  0.00  0.00    +0.000 A 
ATOM     12  C   UNL     1       5.801   2.388  11.520  0.00  0.00    +0.000 C 
ATOM     13  N   UNL     1       7.179   4.259  12.418  0.00  0.00    +0.000 N 
ATOM     14  N   UNL     1       7.323   5.088  13.460  0.00  0.00    +0.000 NA
ATOM     15  H   UNL     1       7.844   4.331  11.652  0.00  0.00    +0.000 HD
ENDBRANCH   7   9
BRANCH   1  21
ATOM     16  C   UNL     1       3.539   2.669  19.120  0.00  0.00    +0.000 A 
ATOM     17  N   UNL     1       2.488   1.813  18.954  0.00  0.00    +0.000 NA
ATOM     18  C   UNL     1       1.337   2.324  18.482  0.00  0.00    +0.000 A 
ATOM     19  C   UNL     1       1.181   3.655  18.153  0.00  0.00    +0.000 A 
ATOM     20  C   UNL     1       2.267   4.512  18.324  0.00  0.00    +0.000 A 
ATOM     21  C   UNL     1       3.467   4.047  18.877  0.00  0.00    +0.000 A 
BRANCH  16  23
ATOM     22  C   UNL     1       4.580   1.767  20.976  0.00  0.00    +0.000 C 
ATOM     23  O   UNL     1       4.699   2.097  19.592  0.00  0.00    +0.000 OA
ENDBRANCH  16  23
ENDBRANCH   1  21
TORSDOF 3
ENDMDL
MODEL 5
REMARK VINA RESULT:      -6.8      2.795      6.627
REMARK  Name = 
REMARK  5 active torsions:
REMARK  status: ('A' for Active; 'I' for Inactive)
REMARK    1  A    between atoms: C_1  and  O_2
REMARK    2  A    between atoms: O_2  and  C_3
REMARK    3  A    between atoms: C_8  and  C_9
REMARK    4  A    between atoms: C_15  and  C_16
REMARK    5  A    between atoms: C_18  and  C_19
REMARK                            x       y       z     vdW  Elec       q    Type
REMARK                         _______ _______ _______ _____ _____    ______ ____
ROOT
ATOM      1  C   UNL     1       4.834   4.687  19.016  0.00  0.00    +0.000 C 
ATOM      2  O   UNL     1       5.027   5.217  20.111  0.00  0.00    +0.000 OA
ATOM      3  N   UNL     1       5.793   4.810  17.992  0.00  0.00    +0.000 N 
ATOM      4  C   UNL     1       7.104   5.353  18.355  0.00  0.00    +0.000 C 
ATOM      5  C   UNL     1       7.496   6.486  17.418  0.00  0.00    +0.000 C 
ATOM      6  C   UNL     1       7.554   5.988  15.977  0.00  0.00    +0.000 C 
ATOM      7  C   UNL     1       6.231   5.330  15.558  0.00  0.00    +0.000 C 
ATOM      8  C   UNL     1       5.704   4.329  16.606  0.00  0.00    +0.000 C 
ENDROOT
BRANCH   7   9
ATOM      9  C   UNL     1       6.332   4.674  14.206  0.00  0.00    +0.000 A 
ATOM     10  C   UNL     1       5.537   3.624  13.685  0.00  0.00    +0.000 A 
ATOM     11  C   UNL     1       6.052   3.362  12.438  0.00  0.00    +0.000 A 
ATOM     12  C   UNL     1       5.682   2.379  11.398  0.00  0.00    +0.000 C 
ATOM     13  N   UNL     1       7.086   4.241  12.275  0.00  0.00    +0.000 N 
ATOM     14  N   UNL     1       7.287   5.032  13.337  0.00  0.00    +0.000 NA
ATOM     15  H   UNL     1       7.696   4.356  11.469  0.00  0.00    +0.000 HD
ENDBRANCH   7   9
BRANCH   1  21
ATOM     16  C   UNL     1       2.337   4.497  18.685  0.00  0.00    +0.000 A 
ATOM     17  N   UNL     1       1.162   3.810  18.570  0.00  0.00    +0.000 NA
ATOM     18  C   UNL     1       1.211   2.471  18.675  0.00  0.00    +0.000 A 
ATOM     19  C   UNL     1       2.379   1.773  18.902  0.00  0.00    +0.000 A 
ATOM     20  C   UNL     1       3.567   2.492  19.022  0.00  0.00    +0.000 A 
ATOM     21  C   UNL     1       3.585   3.882  18.853  0.00  0.00    +0.000 A 
BRANCH  16  23
ATOM     22  C   UNL     1       1.956   6.453  19.856  0.00  0.00    +0.000 C 
ATOM     23  O   UNL     1       2.235   5.867  18.584  0.00  0.00    +0.000 OA
ENDBRANCH  16  23
ENDBRANCH   1  21
TORSDOF 3
ENDMDL
MODEL 6
REMARK VINA RESULT:      -6.7      3.313      5.563
REMARK  Name = 
REMARK  5 active torsions:
REMARK  status: ('A' for Active; 'I' for Inactive)
REMARK    1  A    between atoms: C_1  and  O_2
REMARK    2  A    between atoms: O_2  and  C_3
REMARK    3  A    between atoms: C_8  and  C_9
REMARK    4  A    between atoms: C_15  and  C_16
REMARK    5  A    between atoms: C_18  and  C_19
REMARK                            x       y       z     vdW  Elec       q    Type
REMARK                         _______ _______ _______ _____ _____    ______ ____
ROOT
ATOM      1  C   UNL     1       3.586   3.196  17.514  0.00  0.00    +0.000 C 
ATOM      2  O   UNL     1       3.205   2.156  16.974  0.00  0.00    +0.000 OA
ATOM      3  N   UNL     1       4.523   4.025  16.870  0.00  0.00    +0.000 N 
ATOM      4  C   UNL     1       4.818   3.745  15.462  0.00  0.00    +0.000 C 
ATOM      5  C   UNL     1       6.320   3.649  15.236  0.00  0.00    +0.000 C 
ATOM      6  C   UNL     1       7.001   4.957  15.629  0.00  0.00    +0.000 C 
ATOM      7  C   UNL     1       6.663   5.353  17.074  0.00  0.00    +0.000 C 
ATOM      8  C   UNL     1       5.157   5.246  17.386  0.00  0.00    +0.000 C 
ENDROOT
BRANCH   7   9
ATOM      9  C   UNL     1       7.176   6.727  17.416  0.00  0.00    +0.000 A 
ATOM     10  C   UNL     1       8.128   7.081  18.403  0.00  0.00    +0.000 A 
ATOM     11  C   UNL     1       8.221   8.451  18.345  0.00  0.00    +0.000 A 
ATOM     12  C   UNL     1       9.020   9.425  19.117  0.00  0.00    +0.000 C 
ATOM     13  N   UNL     1       7.359   8.836  17.356  0.00  0.00    +0.000 N 
ATOM     14  N   UNL     1       6.702   7.814  16.792  0.00  0.00    +0.000 NA
ATOM     15  H   UNL     1       7.168   9.775  17.015  0.00  0.00    +0.000 HD
ENDBRANCH   7   9
BRANCH   1  21
ATOM     16  C   UNL     1       3.630   3.269  20.040  0.00  0.00    +0.000 A 
ATOM     17  N   UNL     1       3.101   3.535  21.270  0.00  0.00    +0.000 NA
ATOM     18  C   UNL     1       1.860   4.049  21.316  0.00  0.00    +0.000 A 
ATOM     19  C   UNL     1       1.105   4.302  20.189  0.00  0.00    +0.000 A 
ATOM     20  C   UNL     1       1.660   4.019  18.942  0.00  0.00    +0.000 A 
ATOM     21  C   UNL     1       2.975   3.548  18.833  0.00  0.00    +0.000 A 
BRANCH  16  23
ATOM     22  C   UNL     1       4.890   1.408  20.578  0.00  0.00    +0.000 C 
ATOM     23  O   UNL     1       4.898   2.731  20.043  0.00  0.00    +0.000 OA
ENDBRANCH  16  23
ENDBRANCH   1  21
TORSDOF 3
ENDMDL
MODEL 7
REMARK VINA RESULT:      -6.6      1.844      2.716
REMARK  Name = 
REMARK  5 active torsions:
REMARK  status: ('A' for Active; 'I' for Inactive)
REMARK    1  A    between atoms: C_1  and  O_2
REMARK    2  A    between atoms: O_2  and  C_3
REMARK    3  A    between atoms: C_8  and  C_9
REMARK    4  A    between atoms: C_15  and  C_16
REMARK    5  A    between atoms: C_18  and  C_19
REMARK                            x       y       z     vdW  Elec       q    Type
REMARK                         _______ _______ _______ _____ _____    ______ ____
ROOT
ATOM      1  C   UNL     1       4.966   4.246  18.957  0.00  0.00    +0.000 C 
ATOM      2  O   UNL     1       5.217   3.063  18.722  0.00  0.00    +0.000 OA
ATOM      3  N   UNL     1       3.826   4.592  19.707  0.00  0.00    +0.000 N 
ATOM      4  C   UNL     1       3.117   3.511  20.397  0.00  0.00    +0.000 C 
ATOM      5  C   UNL     1       1.629   3.555  20.080  0.00  0.00    +0.000 C 
ATOM      6  C   UNL     1       1.032   4.890  20.516  0.00  0.00    +0.000 C 
ATOM      7  C   UNL     1       1.786   6.072  19.892  0.00  0.00    +0.000 C 
ATOM      8  C   UNL     1       3.317   5.937  20.013  0.00  0.00    +0.000 C 
ENDROOT
BRANCH   7   9
ATOM      9  C   UNL     1       1.328   7.393  20.452  0.00  0.00    +0.000 A 
ATOM     10  C   UNL     1       0.599   7.629  21.644  0.00  0.00    +0.000 A 
ATOM     11  C   UNL     1       0.399   8.988  21.685  0.00  0.00    +0.000 A 
ATOM     12  C   UNL     1      -0.298   9.859  22.653  0.00  0.00    +0.000 C 
ATOM     13  N   UNL     1       1.003   9.483  20.563  0.00  0.00    +0.000 N 
ATOM     14  N   UNL     1       1.556   8.537  19.792  0.00  0.00    +0.000 NA
ATOM     15  H   UNL     1       1.076  10.451  20.260  0.00  0.00    +0.000 HD
ENDBRANCH   7   9
BRANCH   1  21
ATOM     16  C   UNL     1       5.873   5.769  17.157  0.00  0.00    +0.000 A 
ATOM     17  N   UNL     1       6.760   6.672  16.644  0.00  0.00    +0.000 NA
ATOM     18  C   UNL     1       7.782   7.056  17.429  0.00  0.00    +0.000 A 
ATOM     19  C   UNL     1       7.975   6.574  18.707  0.00  0.00    +0.000 A 
ATOM     20  C   UNL     1       7.062   5.649  19.211  0.00  0.00    +0.000 A 
ATOM     21  C   UNL     1       5.941   5.266  18.463  0.00  0.00    +0.000 A 
BRANCH  16  23
ATOM     22  C   UNL     1       5.351   4.627  15.217  0.00  0.00    +0.000 C 
ATOM     23  O   UNL     1       4.852   5.396  16.311  0.00  0.00    +0.000 OA
ENDBRANCH  16  23
ENDBRANCH   1  21
TORSDOF 3
ENDMDL
MODEL 8
REMARK VINA RESULT:      -6.6      3.412      6.891
REMARK  Name = 
REMARK  5 active torsions:
REMARK  status: ('A' for Active; 'I' for Inactive)
REMARK    1  A    between atoms: C_1  and  O_2
REMARK    2  A    between atoms: O_2  and  C_3
REMARK    3  A    between atoms: C_8  and  C_9
REMARK    4  A    between atoms: C_15  and  C_16
REMARK    5  A    between atoms: C_18  and  C_19
REMARK                            x       y       z     vdW  Elec       q    Type
REMARK                         _______ _______ _______ _____ _____    ______ ____
ROOT
ATOM      1  C   UNL     1       4.730   4.628  18.479  0.00  0.00    +0.000 C 
ATOM      2  O   UNL     1       5.076   5.273  19.471  0.00  0.00    +0.000 OA
ATOM      3  N   UNL     1       5.579   4.542  17.359  0.00  0.00    +0.000 N 
ATOM      4  C   UNL     1       6.956   5.015  17.517  0.00  0.00    +0.000 C 
ATOM      5  C   UNL     1       7.323   5.986  16.404  0.00  0.00    +0.000 C 
ATOM      6  C   UNL     1       7.190   5.309  15.043  0.00  0.00    +0.000 C 
ATOM      7  C   UNL     1       5.787   4.716  14.847  0.00  0.00    +0.000 C 
ATOM      8  C   UNL     1       5.307   3.901  16.065  0.00  0.00    +0.000 C 
ENDROOT
BRANCH   7   9
ATOM      9  C   UNL     1       5.695   3.890  13.591  0.00  0.00    +0.000 A 
ATOM     10  C   UNL     1       6.694   3.072  13.010  0.00  0.00    +0.000 A 
ATOM     11  C   UNL     1       6.131   2.569  11.862  0.00  0.00    +0.000 A 
ATOM     12  C   UNL     1       6.654   1.671  10.811  0.00  0.00    +0.000 C 
ATOM     13  N   UNL     1       4.866   3.084  11.817  0.00  0.00    +0.000 N 
ATOM     14  N   UNL     1       4.584   3.899  12.842  0.00  0.00    +0.000 NA
ATOM     15  H   UNL     1       4.142   2.923  11.120  0.00  0.00    +0.000 HD
ENDBRANCH   7   9
BRANCH   1  21
ATOM     16  C   UNL     1       3.329   2.585  18.978  0.00  0.00    +0.000 A 
ATOM     17  N   UNL     1       2.162   1.878  19.024  0.00  0.00    +0.000 NA
ATOM     18  C   UNL     1       1.048   2.485  18.581  0.00  0.00    +0.000 A 
ATOM     19  C   UNL     1       1.037   3.770  18.079  0.00  0.00    +0.000 A 
ATOM     20  C   UNL     1       2.239   4.475  18.036  0.00  0.00    +0.000 A 
ATOM     21  C   UNL     1       3.417   3.916  18.548  0.00  0.00    +0.000 A 
BRANCH  16  23
ATOM     22  C   UNL     1       4.499   1.917  20.856  0.00  0.00    +0.000 C 
ATOM     23  O   UNL     1       4.445   1.917  19.430  0.00  0.00    +0.000 OA
ENDBRANCH  16  23
ENDBRANCH   1  21
TORSDOF 3
ENDMDL
MODEL 9
REMARK VINA RESULT:      -6.5      2.196      6.383
REMARK  Name = 
REMARK  5 active torsions:
REMARK  status: ('A' for Active; 'I' for Inactive)
REMARK    1  A    between atoms: C_1  and  O_2
REMARK    2  A    between atoms: O_2  and  C_3
REMARK    3  A    between atoms: C_8  and  C_9
REMARK    4  A    between atoms: C_15  and  C_16
REMARK    5  A    between atoms: C_18  and  C_19
REMARK                            x       y       z     vdW  Elec       q    Type
REMARK                         _______ _______ _______ _____ _____    ______ ____
ROOT
ATOM      1  C   UNL     1       2.210   6.183  19.860  0.00  0.00    +0.000 C 
ATOM      2  O   UNL     1       1.612   5.843  20.882  0.00  0.00    +0.000 OA
ATOM      3  N   UNL     1       3.003   5.252  19.161  0.00  0.00    +0.000 N 
ATOM      4  C   UNL     1       2.880   3.842  19.539  0.00  0.00    +0.000 C 
ATOM      5  C   UNL     1       4.250   3.232  19.796  0.00  0.00    +0.000 C 
ATOM      6  C   UNL     1       5.118   3.331  18.544  0.00  0.00    +0.000 C 
ATOM      7  C   UNL     1       5.220   4.779  18.046  0.00  0.00    +0.000 C 
ATOM      8  C   UNL     1       3.852   5.488  17.985  0.00  0.00    +0.000 C 
ENDROOT
BRANCH   7   9
ATOM      9  C   UNL     1       5.919   4.869  16.715  0.00  0.00    +0.000 A 
ATOM     10  C   UNL     1       5.533   4.282  15.485  0.00  0.00    +0.000 A 
ATOM     11  C   UNL     1       6.518   4.628  14.591  0.00  0.00    +0.000 A 
ATOM     12  C   UNL     1       6.711   4.319  13.159  0.00  0.00    +0.000 C 
ATOM     13  N   UNL     1       7.408   5.386  15.300  0.00  0.00    +0.000 N 
ATOM     14  N   UNL     1       7.077   5.532  16.590  0.00  0.00    +0.000 NA
ATOM     15  H   UNL     1       8.260   5.835  14.970  0.00  0.00    +0.000 HD
ENDBRANCH   7   9
BRANCH   1  21
ATOM     16  C   UNL     1       1.412   8.557  20.197  0.00  0.00    +0.000 A 
ATOM     17  N   UNL     1       1.174   9.840  19.797  0.00  0.00    +0.000 NA
ATOM     18  C   UNL     1       1.491  10.168  18.532  0.00  0.00    +0.000 A 
ATOM     19  C   UNL     1       2.028   9.271  17.632  0.00  0.00    +0.000 A 
ATOM     20  C   UNL     1       2.259   7.964  18.057  0.00  0.00    +0.000 A 
ATOM     21  C   UNL     1       2.012   7.586  19.383  0.00  0.00    +0.000 A 
BRANCH  16  23
ATOM     22  C   UNL     1      -0.155   8.926  21.855  0.00  0.00    +0.000 C 
ATOM     23  O   UNL     1       1.059   8.265  21.495  0.00  0.00    +0.000 OA
ENDBRANCH  16  23
ENDBRANCH   1  21
TORSDOF 3
ENDMDL
