MODEL 1
REMARK VINA RESULT:      -8.7      0.000      0.000
REMARK  Name = 
REMARK  7 active torsions:
REMARK  status: ('A' for Active; 'I' for Inactive)
REMARK    1  A    between atoms: C_1  and  C_2
REMARK    2  A    between atoms: C_2  and  C_3
REMARK    3  A    between atoms: C_4  and  N_5
REMARK    4  A    between atoms: N_5  and  O_6
REMARK    5  A    between atoms: N_5  and  C_7
REMARK    6  A    between atoms: C_8  and  C_9
REMARK    7  A    between atoms: C_9  and  C_11
REMARK                            x       y       z     vdW  Elec       q    Type
REMARK                         _______ _______ _______ _____ _____    ______ ____
ROOT
ATOM      1  N   UNL     1       0.250  10.569  18.592  0.00  0.00    +0.000 N 
ENDROOT
BRANCH   1   3
ATOM      2  C   UNL     1      -1.966  11.634  19.137  0.00  0.00    +0.000 A 
ATOM      3  C   UNL     1      -1.158  10.753  18.364  0.00  0.00    +0.000 A 
ATOM      4  C   UNL     1      -1.766  10.040  17.316  0.00  0.00    +0.000 A 
ATOM      5  C   UNL     1      -3.126  10.163  17.042  0.00  0.00    +0.000 A 
ATOM      6  C   UNL     1      -3.946  10.970  17.838  0.00  0.00    +0.000 A 
ATOM      7  C   UNL     1      -5.326  11.031  17.578  0.00  0.00    +0.000 A 
ATOM      8  C   UNL     1      -6.175  11.794  18.375  0.00  0.00    +0.000 A 
ATOM      9  C   UNL     1      -5.649  12.518  19.433  0.00  0.00    +0.000 A 
ATOM     10  C   UNL     1      -4.273  12.490  19.678  0.00  0.00    +0.000 A 
ATOM     11  C   UNL     1      -3.380  11.715  18.901  0.00  0.00    +0.000 A 
BRANCH   2  13
ATOM     12  C   UNL     1      -1.312  11.874  21.560  0.00  0.00    +0.000 C 
ATOM     13  C   UNL     1      -1.335  12.545  20.186  0.00  0.00    +0.000 C 
ENDBRANCH   2  13
ENDBRANCH   1   3
BRANCH   1  14
ATOM     14  O   UNL     1       1.114  11.593  18.218  0.00  0.00    +0.000 OA
ATOM     15  H   UNL     1       1.426  11.309  17.331  0.00  0.00    +0.000 HD
ENDBRANCH   1  14
BRANCH   1  16
ATOM     16  C   UNL     1       0.733   9.619  19.485  0.00  0.00    +0.000 C 
ATOM     17  C   UNL     1       1.699   8.691  19.368  0.00  0.00    +0.000 C 
BRANCH  17  18
ATOM     18  C   UNL     1       2.419   8.388  18.103  0.00  0.00    +0.000 C 
ATOM     19  O   UNL     1       2.550   9.226  17.214  0.00  0.00    +0.000 OA
BRANCH  18  20
ATOM     20  C   UNL     1       2.879   6.997  17.867  0.00  0.00    +0.000 A 
ATOM     21  C   UNL     1       4.151   6.680  17.386  0.00  0.00    +0.000 A 
ATOM     22  C   UNL     1       4.530   5.339  17.264  0.00  0.00    +0.000 A 
ATOM     23  C   UNL     1       3.647   4.304  17.621  0.00  0.00    +0.000 A 
ATOM     24  C   UNL     1       4.025   2.954  17.562  0.00  0.00    +0.000 A 
ATOM     25  C   UNL     1       3.131   1.945  17.936  0.00  0.00    +0.000 A 
ATOM     26  C   UNL     1       1.847   2.275  18.355  0.00  0.00    +0.000 A 
ATOM     27  C   UNL     1       1.451   3.609  18.409  0.00  0.00    +0.000 A 
ATOM     28  C   UNL     1       2.345   4.629  18.060  0.00  0.00    +0.000 A 
ATOM     29  C   UNL     1       1.970   5.972  18.162  0.00  0.00    +0.000 A 
ENDBRANCH  18  20
ENDBRANCH  17  18
ENDBRANCH   1  16
TORSDOF 6
ENDMDL
MODEL 2
REMARK VINA RESULT:      -8.3      3.882      5.761
REMARK  Name = 
REMARK  7 active torsions:
REMARK  status: ('A' for Active; 'I' for Inactive)
REMARK    1  A    between atoms: C_1  and  C_2
REMARK    2  A    between atoms: C_2  and  C_3
REMARK    3  A    between atoms: C_4  and  N_5
REMARK    4  A    between atoms: N_5  and  O_6
REMARK    5  A    between atoms: N_5  and  C_7
REMARK    6  A    between atoms: C_8  and  C_9
REMARK    7  A    between atoms: C_9  and  C_11
REMARK                            x       y       z     vdW  Elec       q    Type
REMARK                         _______ _______ _______ _____ _____    ______ ____
ROOT
ATOM      1  N   UNL     1       1.814   5.493  20.595  0.00  0.00    +0.000 N 
ENDROOT
BRANCH   1   3
ATOM      2  C   UNL     1       1.803   7.657  19.308  0.00  0.00    +0.000 A 
ATOM      3  C   UNL     1       1.513   6.894  20.474  0.00  0.00    +0.000 A 
ATOM      4  C   UNL     1       0.889   7.542  21.555  0.00  0.00    +0.000 A 
ATOM      5  C   UNL     1       0.575   8.898  21.511  0.00  0.00    +0.000 A 
ATOM      6  C   UNL     1       0.918   9.675  20.400  0.00  0.00    +0.000 A 
ATOM      7  C   UNL     1       0.644  11.054  20.404  0.00  0.00    +0.000 A 
ATOM      8  C   UNL     1       1.007  11.863  19.331  0.00  0.00    +0.000 A 
ATOM      9  C   UNL     1       1.635  11.298  18.233  0.00  0.00    +0.000 A 
ATOM     10  C   UNL     1       1.881   9.922  18.205  0.00  0.00    +0.000 A 
ATOM     11  C   UNL     1       1.541   9.069  19.282  0.00  0.00    +0.000 A 
BRANCH   2  13
ATOM     12  C   UNL     1       3.661   7.607  17.604  0.00  0.00    +0.000 C 
ATOM     13  C   UNL     1       2.340   6.979  18.051  0.00  0.00    +0.000 C 
ENDBRANCH   2  13
ENDBRANCH   1   3
BRANCH   1  14
ATOM     14  O   UNL     1       2.598   5.082  21.667  0.00  0.00    +0.000 OA
ATOM     15  H   UNL     1       2.233   4.196  21.884  0.00  0.00    +0.000 HD
ENDBRANCH   1  14
BRANCH   1  16
ATOM     16  C   UNL     1       1.068   4.521  19.938  0.00  0.00    +0.000 C 
ATOM     17  C   UNL     1       1.401   3.310  19.459  0.00  0.00    +0.000 C 
BRANCH  17  18
ATOM     18  C   UNL     1       2.790   2.778  19.423  0.00  0.00    +0.000 C 
ATOM     19  O   UNL     1       3.152   1.862  20.157  0.00  0.00    +0.000 OA
BRANCH  18  20
ATOM     20  C   UNL     1       3.786   3.461  18.562  0.00  0.00    +0.000 A 
ATOM     21  C   UNL     1       3.719   3.470  17.168  0.00  0.00    +0.000 A 
ATOM     22  C   UNL     1       4.658   4.203  16.433  0.00  0.00    +0.000 A 
ATOM     23  C   UNL     1       5.670   4.933  17.082  0.00  0.00    +0.000 A 
ATOM     24  C   UNL     1       6.587   5.721  16.371  0.00  0.00    +0.000 A 
ATOM     25  C   UNL     1       7.575   6.449  17.042  0.00  0.00    +0.000 A 
ATOM     26  C   UNL     1       7.667   6.382  18.429  0.00  0.00    +0.000 A 
ATOM     27  C   UNL     1       6.771   5.595  19.150  0.00  0.00    +0.000 A 
ATOM     28  C   UNL     1       5.763   4.881  18.490  0.00  0.00    +0.000 A 
ATOM     29  C   UNL     1       4.830   4.132  19.213  0.00  0.00    +0.000 A 
ENDBRANCH  18  20
ENDBRANCH  17  18
ENDBRANCH   1  16
TORSDOF 6
ENDMDL
MODEL 3
REMARK VINA RESULT:      -8.3      3.849      5.634
REMARK  Name = 
REMARK  7 active torsions:
REMARK  status: ('A' for Active; 'I' for Inactive)
REMARK    1  A    between atoms: C_1  and  C_2
REMARK    2  A    between atoms: C_2  and  C_3
REMARK    3  A    between atoms: C_4  and  N_5
REMARK    4  A    between atoms: N_5  and  O_6
REMARK    5  A    between atoms: N_5  and  C_7
REMARK    6  A    between atoms: C_8  and  C_9
REMARK    7  A    between atoms: C_9  and  C_11
REMARK                            x       y       z     vdW  Elec       q    Type
REMARK                         _______ _______ _______ _____ _____    ______ ____
ROOT
ATOM      1  N   UNL     1       1.946   5.708  20.277  0.00  0.00    +0.000 N 
ENDROOT
BRANCH   1   3
ATOM      2  C   UNL     1       1.894   7.927  19.090  0.00  0.00    +0.000 A 
ATOM      3  C   UNL     1       1.628   7.108  20.224  0.00  0.00    +0.000 A 
ATOM      4  C   UNL     1       1.010   7.699  21.340  0.00  0.00    +0.000 A 
ATOM      5  C   UNL     1       0.680   9.052  21.362  0.00  0.00    +0.000 A 
ATOM      6  C   UNL     1       0.999   9.883  20.284  0.00  0.00    +0.000 A 
ATOM      7  C   UNL     1       0.709  11.256  20.354  0.00  0.00    +0.000 A 
ATOM      8  C   UNL     1       1.049  12.118  19.314  0.00  0.00    +0.000 A 
ATOM      9  C   UNL     1       1.670  11.611  18.184  0.00  0.00    +0.000 A 
ATOM     10  C   UNL     1       1.931  10.241  18.091  0.00  0.00    +0.000 A 
ATOM     11  C   UNL     1       1.615   9.336  19.132  0.00  0.00    +0.000 A 
BRANCH   2  13
ATOM     12  C   UNL     1       3.952   7.329  17.762  0.00  0.00    +0.000 C 
ATOM     13  C   UNL     1       2.423   7.314  17.797  0.00  0.00    +0.000 C 
ENDBRANCH   2  13
ENDBRANCH   1   3
BRANCH   1  14
ATOM     14  O   UNL     1       2.655   5.238  21.378  0.00  0.00    +0.000 OA
ATOM     15  H   UNL     1       3.263   5.980  21.585  0.00  0.00    +0.000 HD
ENDBRANCH   1  14
BRANCH   1  16
ATOM     16  C   UNL     1       1.273   4.769  19.503  0.00  0.00    +0.000 C 
ATOM     17  C   UNL     1       1.630   3.550  19.063  0.00  0.00    +0.000 C 
BRANCH  17  18
ATOM     18  C   UNL     1       2.987   2.965  19.229  0.00  0.00    +0.000 C 
ATOM     19  O   UNL     1       3.210   2.062  20.031  0.00  0.00    +0.000 OA
BRANCH  18  20
ATOM     20  C   UNL     1       4.117   3.581  18.491  0.00  0.00    +0.000 A 
ATOM     21  C   UNL     1       5.236   4.131  19.121  0.00  0.00    +0.000 A 
ATOM     22  C   UNL     1       6.293   4.625  18.347  0.00  0.00    +0.000 A 
ATOM     23  C   UNL     1       6.243   4.574  16.942  0.00  0.00    +0.000 A 
ATOM     24  C   UNL     1       7.313   5.010  16.147  0.00  0.00    +0.000 A 
ATOM     25  C   UNL     1       7.244   4.935  14.752  0.00  0.00    +0.000 A 
ATOM     26  C   UNL     1       6.097   4.442  14.139  0.00  0.00    +0.000 A 
ATOM     27  C   UNL     1       5.020   4.015  14.913  0.00  0.00    +0.000 A 
ATOM     28  C   UNL     1       5.088   4.063  16.311  0.00  0.00    +0.000 A 
ATOM     29  C   UNL     1       4.031   3.588  17.092  0.00  0.00    +0.000 A 
ENDBRANCH  18  20
ENDBRANCH  17  18
ENDBRANCH   1  16
TORSDOF 6
ENDMDL
MODEL 4
REMARK VINA RESULT:      -8.2      1.044      1.946
REMARK  Name = 
REMARK  7 active torsions:
REMARK  status: ('A' for Active; 'I' for Inactive)
REMARK    1  A    between atoms: C_1  and  C_2
REMARK    2  A    between atoms: C_2  and  C_3
REMARK    3  A    between atoms: C_4  and  N_5
REMARK    4  A    between atoms: N_5  and  O_6
REMARK    5  A    between atoms: N_5  and  C_7
REMARK    6  A    between atoms: C_8  and  C_9
REMARK    7  A    between atoms: C_9  and  C_11
REMARK                            x       y       z     vdW  Elec       q    Type
REMARK                         _______ _______ _______ _____ _____    ______ ____
ROOT
ATOM      1  N   UNL     1      -0.315  10.852  18.668  0.00  0.00    +0.000 N 
ENDROOT
BRANCH   1   3
ATOM      2  C   UNL     1      -2.528  11.894  19.267  0.00  0.00    +0.000 A 
ATOM      3  C   UNL     1      -1.734  11.000  18.493  0.00  0.00    +0.000 A 
ATOM      4  C   UNL     1      -2.371  10.236  17.499  0.00  0.00    +0.000 A 
ATOM      5  C   UNL     1      -3.743  10.322  17.279  0.00  0.00    +0.000 A 
ATOM      6  C   UNL     1      -4.546  11.143  18.078  0.00  0.00    +0.000 A 
ATOM      7  C   UNL     1      -5.936  11.167  17.875  0.00  0.00    +0.000 A 
ATOM      8  C   UNL     1      -6.768  11.943  18.678  0.00  0.00    +0.000 A 
ATOM      9  C   UNL     1      -6.214  12.717  19.686  0.00  0.00    +0.000 A 
ATOM     10  C   UNL     1      -4.829  12.725  19.873  0.00  0.00    +0.000 A 
ATOM     11  C   UNL     1      -3.952  11.939  19.088  0.00  0.00    +0.000 A 
BRANCH   2  13
ATOM     12  C   UNL     1      -1.749  12.227  21.642  0.00  0.00    +0.000 C 
ATOM     13  C   UNL     1      -1.873  12.856  20.254  0.00  0.00    +0.000 C 
ENDBRANCH   2  13
ENDBRANCH   1   3
BRANCH   1  14
ATOM     14  O   UNL     1       0.512  11.871  18.206  0.00  0.00    +0.000 OA
ATOM     15  H   UNL     1       0.480  11.760  17.231  0.00  0.00    +0.000 HD
ENDBRANCH   1  14
BRANCH   1  16
ATOM     16  C   UNL     1       0.225   9.957  19.585  0.00  0.00    +0.000 C 
ATOM     17  C   UNL     1       1.278   9.125  19.510  0.00  0.00    +0.000 C 
BRANCH  17  18
ATOM     18  C   UNL     1       2.068   8.885  18.273  0.00  0.00    +0.000 C 
ATOM     19  O   UNL     1       2.148   9.727  17.382  0.00  0.00    +0.000 OA
BRANCH  18  20
ATOM     20  C   UNL     1       2.667   7.544  18.066  0.00  0.00    +0.000 A 
ATOM     21  C   UNL     1       2.154   6.378  18.638  0.00  0.00    +0.000 A 
ATOM     22  C   UNL     1       2.735   5.142  18.331  0.00  0.00    +0.000 A 
ATOM     23  C   UNL     1       3.830   5.059  17.451  0.00  0.00    +0.000 A 
ATOM     24  C   UNL     1       4.393   3.828  17.083  0.00  0.00    +0.000 A 
ATOM     25  C   UNL     1       5.473   3.773  16.196  0.00  0.00    +0.000 A 
ATOM     26  C   UNL     1       6.012   4.948  15.683  0.00  0.00    +0.000 A 
ATOM     27  C   UNL     1       5.472   6.180  16.046  0.00  0.00    +0.000 A 
ATOM     28  C   UNL     1       4.376   6.246  16.916  0.00  0.00    +0.000 A 
ATOM     29  C   UNL     1       3.799   7.477  17.242  0.00  0.00    +0.000 A 
ENDBRANCH  18  20
ENDBRANCH  17  18
ENDBRANCH   1  16
TORSDOF 6
ENDMDL
MODEL 5
REMARK VINA RESULT:      -8.2      0.994      1.635
REMARK  Name = 
REMARK  7 active torsions:
REMARK  status: ('A' for Active; 'I' for Inactive)
REMARK    1  A    between atoms: C_1  and  C_2
REMARK    2  A    between atoms: C_2  and  C_3
REMARK    3  A    between atoms: C_4  and  N_5
REMARK    4  A    between atoms: N_5  and  O_6
REMARK    5  A    between atoms: N_5  and  C_7
REMARK    6  A    between atoms: C_8  and  C_9
REMARK    7  A    between atoms: C_9  and  C_11
REMARK                            x       y       z     vdW  Elec       q    Type
REMARK                         _______ _______ _______ _____ _____    ______ ____
ROOT
ATOM      1  N   UNL     1       0.128  10.448  18.841  0.00  0.00    +0.000 N 
ENDROOT
BRANCH   1   3
ATOM      2  C   UNL     1      -2.071  11.620  19.198  0.00  0.00    +0.000 A 
ATOM      3  C   UNL     1      -1.246  10.693  18.500  0.00  0.00    +0.000 A 
ATOM      4  C   UNL     1      -1.803   9.994  17.414  0.00  0.00    +0.000 A 
ATOM      5  C   UNL     1      -3.130  10.176  17.032  0.00  0.00    +0.000 A 
ATOM      6  C   UNL     1      -3.971  11.030  17.752  0.00  0.00    +0.000 A 
ATOM      7  C   UNL     1      -5.322  11.151  17.382  0.00  0.00    +0.000 A 
ATOM      8  C   UNL     1      -6.195  11.963  18.101  0.00  0.00    +0.000 A 
ATOM      9  C   UNL     1      -5.721  12.676  19.191  0.00  0.00    +0.000 A 
ATOM     10  C   UNL     1      -4.372  12.589  19.545  0.00  0.00    +0.000 A 
ATOM     11  C   UNL     1      -3.457  11.763  18.849  0.00  0.00    +0.000 A 
BRANCH   2  13
ATOM     12  C   UNL     1      -0.866  13.780  19.685  0.00  0.00    +0.000 C 
ATOM     13  C   UNL     1      -1.483  12.516  20.284  0.00  0.00    +0.000 C 
ENDBRANCH   2  13
ENDBRANCH   1   3
BRANCH   1  14
ATOM     14  O   UNL     1       1.109  11.175  18.174  0.00  0.00    +0.000 OA
ATOM     15  H   UNL     1       1.928  10.945  18.663  0.00  0.00    +0.000 HD
ENDBRANCH   1  14
BRANCH   1  16
ATOM     16  C   UNL     1       0.493   9.824  20.029  0.00  0.00    +0.000 C 
ATOM     17  C   UNL     1       1.352   8.823  20.286  0.00  0.00    +0.000 C 
BRANCH  17  18
ATOM     18  C   UNL     1       2.052   8.031  19.240  0.00  0.00    +0.000 C 
ATOM     19  O   UNL     1       2.406   8.532  18.176  0.00  0.00    +0.000 OA
BRANCH  18  20
ATOM     20  C   UNL     1       2.210   6.570  19.447  0.00  0.00    +0.000 A 
ATOM     21  C   UNL     1       1.770   5.906  20.594  0.00  0.00    +0.000 A 
ATOM     22  C   UNL     1       1.890   4.514  20.677  0.00  0.00    +0.000 A 
ATOM     23  C   UNL     1       2.447   3.774  19.618  0.00  0.00    +0.000 A 
ATOM     24  C   UNL     1       2.525   2.374  19.654  0.00  0.00    +0.000 A 
ATOM     25  C   UNL     1       3.071   1.661  18.581  0.00  0.00    +0.000 A 
ATOM     26  C   UNL     1       3.561   2.342  17.471  0.00  0.00    +0.000 A 
ATOM     27  C   UNL     1       3.502   3.733  17.424  0.00  0.00    +0.000 A 
ATOM     28  C   UNL     1       2.935   4.456  18.482  0.00  0.00    +0.000 A 
ATOM     29  C   UNL     1       2.826   5.848  18.417  0.00  0.00    +0.000 A 
ENDBRANCH  18  20
ENDBRANCH  17  18
ENDBRANCH   1  16
TORSDOF 6
ENDMDL
MODEL 6
REMARK VINA RESULT:      -8.2      3.803      5.554
REMARK  Name = 
REMARK  7 active torsions:
REMARK  status: ('A' for Active; 'I' for Inactive)
REMARK    1  A    between atoms: C_1  and  C_2
REMARK    2  A    between atoms: C_2  and  C_3
REMARK    3  A    between atoms: C_4  and  N_5
REMARK    4  A    between atoms: N_5  and  O_6
REMARK    5  A    between atoms: N_5  and  C_7
REMARK    6  A    between atoms: C_8  and  C_9
REMARK    7  A    between atoms: C_9  and  C_11
REMARK                            x       y       z     vdW  Elec       q    Type
REMARK                         _______ _______ _______ _____ _____    ______ ____
ROOT
ATOM      1  N   UNL     1       2.046   5.461  20.136  0.00  0.00    +0.000 N 
ENDROOT
BRANCH   1   3
ATOM      2  C   UNL     1       1.471   7.908  20.278  0.00  0.00    +0.000 A 
ATOM      3  C   UNL     1       2.058   6.797  19.608  0.00  0.00    +0.000 A 
ATOM      4  C   UNL     1       2.691   7.025  18.373  0.00  0.00    +0.000 A 
ATOM      5  C   UNL     1       2.734   8.292  17.797  0.00  0.00    +0.000 A 
ATOM      6  C   UNL     1       2.102   9.378  18.410  0.00  0.00    +0.000 A 
ATOM      7  C   UNL     1       2.109  10.634  17.779  0.00  0.00    +0.000 A 
ATOM      8  C   UNL     1       1.456  11.727  18.343  0.00  0.00    +0.000 A 
ATOM      9  C   UNL     1       0.800  11.578  19.555  0.00  0.00    +0.000 A 
ATOM     10  C   UNL     1       0.817  10.341  20.206  0.00  0.00    +0.000 A 
ATOM     11  C   UNL     1       1.457   9.204  19.658  0.00  0.00    +0.000 A 
BRANCH   2  13
ATOM     12  C   UNL     1      -0.527   8.285  21.768  0.00  0.00    +0.000 C 
ATOM     13  C   UNL     1       0.904   7.753  21.686  0.00  0.00    +0.000 C 
ENDBRANCH   2  13
ENDBRANCH   1   3
BRANCH   1  14
ATOM     14  O   UNL     1       2.559   5.257  21.413  0.00  0.00    +0.000 OA
ATOM     15  H   UNL     1       2.705   6.170  21.744  0.00  0.00    +0.000 HD
ENDBRANCH   1  14
BRANCH   1  16
ATOM     16  C   UNL     1       1.228   4.467  19.611  0.00  0.00    +0.000 C 
ATOM     17  C   UNL     1       1.503   3.242  19.132  0.00  0.00    +0.000 C 
BRANCH  17  18
ATOM     18  C   UNL     1       2.877   2.709  18.936  0.00  0.00    +0.000 C 
ATOM     19  O   UNL     1       3.230   1.636  19.417  0.00  0.00    +0.000 OA
BRANCH  18  20
ATOM     20  C   UNL     1       3.875   3.564  18.247  0.00  0.00    +0.000 A 
ATOM     21  C   UNL     1       3.808   3.878  16.888  0.00  0.00    +0.000 A 
ATOM     22  C   UNL     1       4.749   4.753  16.333  0.00  0.00    +0.000 A 
ATOM     23  C   UNL     1       5.762   5.322  17.126  0.00  0.00    +0.000 A 
ATOM     24  C   UNL     1       6.680   6.245  16.606  0.00  0.00    +0.000 A 
ATOM     25  C   UNL     1       7.669   6.806  17.420  0.00  0.00    +0.000 A 
ATOM     26  C   UNL     1       7.760   6.436  18.758  0.00  0.00    +0.000 A 
ATOM     27  C   UNL     1       6.864   5.511  19.289  0.00  0.00    +0.000 A 
ATOM     28  C   UNL     1       5.854   4.961  18.488  0.00  0.00    +0.000 A 
ATOM     29  C   UNL     1       4.920   4.073  19.030  0.00  0.00    +0.000 A 
ENDBRANCH  18  20
ENDBRANCH  17  18
ENDBRANCH   1  16
TORSDOF 6
ENDMDL
MODEL 7
REMARK VINA RESULT:      -8.2      0.657      2.020
REMARK  Name = 
REMARK  7 active torsions:
REMARK  status: ('A' for Active; 'I' for Inactive)
REMARK    1  A    between atoms: C_1  and  C_2
REMARK    2  A    between atoms: C_2  and  C_3
REMARK    3  A    between atoms: C_4  and  N_5
REMARK    4  A    between atoms: N_5  and  O_6
REMARK    5  A    between atoms: N_5  and  C_7
REMARK    6  A    between atoms: C_8  and  C_9
REMARK    7  A    between atoms: C_9  and  C_11
REMARK                            x       y       z     vdW  Elec       q    Type
REMARK                         _______ _______ _______ _____ _____    ______ ____
ROOT
ATOM      1  N   UNL     1      -0.157  10.669  18.827  0.00  0.00    +0.000 N 
ENDROOT
BRANCH   1   3
ATOM      2  C   UNL     1      -2.603  10.839  18.257  0.00  0.00    +0.000 A 
ATOM      3  C   UNL     1      -1.475  11.199  19.046  0.00  0.00    +0.000 A 
ATOM      4  C   UNL     1      -1.665  12.108  20.102  0.00  0.00    +0.000 A 
ATOM      5  C   UNL     1      -2.912  12.667  20.369  0.00  0.00    +0.000 A 
ATOM      6  C   UNL     1      -4.014  12.377  19.558  0.00  0.00    +0.000 A 
ATOM      7  C   UNL     1      -5.248  13.000  19.812  0.00  0.00    +0.000 A 
ATOM      8  C   UNL     1      -6.355  12.763  19.001  0.00  0.00    +0.000 A 
ATOM      9  C   UNL     1      -6.242  11.886  17.933  0.00  0.00    +0.000 A 
ATOM     10  C   UNL     1      -5.028  11.236  17.694  0.00  0.00    +0.000 A 
ATOM     11  C   UNL     1      -3.877  11.462  18.487  0.00  0.00    +0.000 A 
BRANCH   2  13
ATOM     12  C   UNL     1      -2.474  10.343  15.788  0.00  0.00    +0.000 C 
ATOM     13  C   UNL     1      -2.492   9.747  17.197  0.00  0.00    +0.000 C 
ENDBRANCH   2  13
ENDBRANCH   1   3
BRANCH   1  14
ATOM     14  O   UNL     1       0.708  11.383  18.004  0.00  0.00    +0.000 OA
ATOM     15  H   UNL     1       0.351  11.214  17.105  0.00  0.00    +0.000 HD
ENDBRANCH   1  14
BRANCH   1  16
ATOM     16  C   UNL     1       0.405   9.718  19.671  0.00  0.00    +0.000 C 
ATOM     17  C   UNL     1       1.416   8.850  19.494  0.00  0.00    +0.000 C 
BRANCH  17  18
ATOM     18  C   UNL     1       2.113   8.631  18.199  0.00  0.00    +0.000 C 
ATOM     19  O   UNL     1       2.157   9.499  17.331  0.00  0.00    +0.000 OA
BRANCH  18  20
ATOM     20  C   UNL     1       2.660   7.282  17.910  0.00  0.00    +0.000 A 
ATOM     21  C   UNL     1       3.943   7.067  17.402  0.00  0.00    +0.000 A 
ATOM     22  C   UNL     1       4.408   5.758  17.229  0.00  0.00    +0.000 A 
ATOM     23  C   UNL     1       3.600   4.655  17.562  0.00  0.00    +0.000 A 
ATOM     24  C   UNL     1       4.065   3.337  17.452  0.00  0.00    +0.000 A 
ATOM     25  C   UNL     1       3.246   2.259  17.803  0.00  0.00    +0.000 A 
ATOM     26  C   UNL     1       1.948   2.488  18.249  0.00  0.00    +0.000 A 
ATOM     27  C   UNL     1       1.466   3.791  18.354  0.00  0.00    +0.000 A 
ATOM     28  C   UNL     1       2.286   4.879  18.028  0.00  0.00    +0.000 A 
ATOM     29  C   UNL     1       1.825   6.190  18.181  0.00  0.00    +0.000 A 
ENDBRANCH  18  20
ENDBRANCH  17  18
ENDBRANCH   1  16
TORSDOF 6
ENDMDL
MODEL 8
REMARK VINA RESULT:      -8.1      2.347      3.738
REMARK  Name = 
REMARK  7 active torsions:
REMARK  status: ('A' for Active; 'I' for Inactive)
REMARK    1  A    between atoms: C_1  and  C_2
REMARK    2  A    between atoms: C_2  and  C_3
REMARK    3  A    between atoms: C_4  and  N_5
REMARK    4  A    between atoms: N_5  and  O_6
REMARK    5  A    between atoms: N_5  and  C_7
REMARK    6  A    between atoms: C_8  and  C_9
REMARK    7  A    between atoms: C_9  and  C_11
REMARK                            x       y       z     vdW  Elec       q    Type
REMARK                         _______ _______ _______ _____ _____    ______ ____
ROOT
ATOM      1  N   UNL     1       0.281  10.542  18.795  0.00  0.00    +0.000 N 
ENDROOT
BRANCH   1   3
ATOM      2  C   UNL     1      -0.136  13.010  19.068  0.00  0.00    +0.000 A 
ATOM      3  C   UNL     1       0.723  11.910  18.786  0.00  0.00    +0.000 A 
ATOM      4  C   UNL     1       2.073  12.177  18.499  0.00  0.00    +0.000 A 
ATOM      5  C   UNL     1       2.570  13.478  18.466  0.00  0.00    +0.000 A 
ATOM      6  C   UNL     1       1.723  14.571  18.671  0.00  0.00    +0.000 A 
ATOM      7  C   UNL     1       2.236  15.877  18.574  0.00  0.00    +0.000 A 
ATOM      8  C   UNL     1       1.412  16.987  18.735  0.00  0.00    +0.000 A 
ATOM      9  C   UNL     1       0.067  16.804  19.010  0.00  0.00    +0.000 A 
ATOM     10  C   UNL     1      -0.445  15.510  19.143  0.00  0.00    +0.000 A 
ATOM     11  C   UNL     1       0.356  14.356  18.972  0.00  0.00    +0.000 A 
BRANCH   2  13
ATOM     12  C   UNL     1      -1.628  12.516  21.039  0.00  0.00    +0.000 C 
ATOM     13  C   UNL     1      -1.570  12.775  19.534  0.00  0.00    +0.000 C 
ENDBRANCH   2  13
ENDBRANCH   1   3
BRANCH   1  14
ATOM     14  O   UNL     1      -0.414  10.071  17.686  0.00  0.00    +0.000 OA
ATOM     15  H   UNL     1       0.235   9.476  17.252  0.00  0.00    +0.000 HD
ENDBRANCH   1  14
BRANCH   1  16
ATOM     16  C   UNL     1       0.828   9.597  19.655  0.00  0.00    +0.000 C 
ATOM     17  C   UNL     1       1.762   8.649  19.465  0.00  0.00    +0.000 C 
BRANCH  17  18
ATOM     18  C   UNL     1       2.357   8.313  18.144  0.00  0.00    +0.000 C 
ATOM     19  O   UNL     1       2.362   9.114  17.213  0.00  0.00    +0.000 OA
BRANCH  18  20
ATOM     20  C   UNL     1       2.842   6.929  17.919  0.00  0.00    +0.000 A 
ATOM     21  C   UNL     1       4.133   6.630  17.481  0.00  0.00    +0.000 A 
ATOM     22  C   UNL     1       4.534   5.294  17.366  0.00  0.00    +0.000 A 
ATOM     23  C   UNL     1       3.652   4.246  17.689  0.00  0.00    +0.000 A 
ATOM     24  C   UNL     1       4.048   2.902  17.637  0.00  0.00    +0.000 A 
ATOM     25  C   UNL     1       3.155   1.880  17.977  0.00  0.00    +0.000 A 
ATOM     26  C   UNL     1       1.853   2.192  18.353  0.00  0.00    +0.000 A 
ATOM     27  C   UNL     1       1.439   3.521  18.398  0.00  0.00    +0.000 A 
ATOM     28  C   UNL     1       2.332   4.554  18.084  0.00  0.00    +0.000 A 
ATOM     29  C   UNL     1       1.936   5.891  18.179  0.00  0.00    +0.000 A 
ENDBRANCH  18  20
ENDBRANCH  17  18
ENDBRANCH   1  16
TORSDOF 6
ENDMDL
MODEL 9
REMARK VINA RESULT:      -8.1      6.484     10.167
REMARK  Name = 
REMARK  7 active torsions:
REMARK  status: ('A' for Active; 'I' for Inactive)
REMARK    1  A    between atoms: C_1  and  C_2
REMARK    2  A    between atoms: C_2  and  C_3
REMARK    3  A    between atoms: C_4  and  N_5
REMARK    4  A    between atoms: N_5  and  O_6
REMARK    5  A    between atoms: N_5  and  C_7
REMARK    6  A    between atoms: C_8  and  C_9
REMARK    7  A    between atoms: C_9  and  C_11
REMARK                            x       y       z     vdW  Elec       q    Type
REMARK                         _______ _______ _______ _____ _____    ______ ____
ROOT
ATOM      1  N   UNL     1       6.580   6.319  17.497  0.00  0.00    +0.000 N 
ENDROOT
BRANCH   1   3
ATOM      2  C   UNL     1       4.864   4.477  17.469  0.00  0.00    +0.000 A 
ATOM      3  C   UNL     1       5.384   5.695  17.992  0.00  0.00    +0.000 A 
ATOM      4  C   UNL     1       4.699   6.307  19.057  0.00  0.00    +0.000 A 
ATOM      5  C   UNL     1       3.530   5.763  19.582  0.00  0.00    +0.000 A 
ATOM      6  C   UNL     1       2.970   4.606  19.032  0.00  0.00    +0.000 A 
ATOM      7  C   UNL     1       1.757   4.109  19.542  0.00  0.00    +0.000 A 
ATOM      8  C   UNL     1       1.153   2.982  18.992  0.00  0.00    +0.000 A 
ATOM      9  C   UNL     1       1.764   2.329  17.933  0.00  0.00    +0.000 A 
ATOM     10  C   UNL     1       2.987   2.796  17.442  0.00  0.00    +0.000 A 
ATOM     11  C   UNL     1       3.625   3.946  17.964  0.00  0.00    +0.000 A 
BRANCH   2  13
ATOM     12  C   UNL     1       5.372   4.223  15.013  0.00  0.00    +0.000 C 
ATOM     13  C   UNL     1       5.643   3.688  16.420  0.00  0.00    +0.000 C 
ENDBRANCH   2  13
ENDBRANCH   1   3
BRANCH   1  14
ATOM     14  O   UNL     1       6.478   7.131  16.372  0.00  0.00    +0.000 OA
ATOM     15  H   UNL     1       6.962   6.623  15.686  0.00  0.00    +0.000 HD
ENDBRANCH   1  14
BRANCH   1  16
ATOM     16  C   UNL     1       7.719   6.456  18.283  0.00  0.00    +0.000 C 
ATOM     17  C   UNL     1       8.418   7.539  18.664  0.00  0.00    +0.000 C 
BRANCH  17  18
ATOM     18  C   UNL     1       8.158   8.918  18.172  0.00  0.00    +0.000 C 
ATOM     19  O   UNL     1       7.360   9.144  17.267  0.00  0.00    +0.000 OA
BRANCH  18  20
ATOM     20  C   UNL     1       8.984  10.028  18.710  0.00  0.00    +0.000 A 
ATOM     21  C   UNL     1       9.139  10.275  20.076  0.00  0.00    +0.000 A 
ATOM     22  C   UNL     1       9.996  11.297  20.501  0.00  0.00    +0.000 A 
ATOM     23  C   UNL     1      10.706  12.077  19.570  0.00  0.00    +0.000 A 
ATOM     24  C   UNL     1      11.614  13.068  19.972  0.00  0.00    +0.000 A 
ATOM     25  C   UNL     1      12.316  13.820  19.025  0.00  0.00    +0.000 A 
ATOM     26  C   UNL     1      12.104  13.602  17.668  0.00  0.00    +0.000 A 
ATOM     27  C   UNL     1      11.197  12.631  17.250  0.00  0.00    +0.000 A 
ATOM     28  C   UNL     1      10.506  11.855  18.190  0.00  0.00    +0.000 A 
ATOM     29  C   UNL     1       9.635  10.844  17.775  0.00  0.00    +0.000 A 
ENDBRANCH  18  20
ENDBRANCH  17  18
ENDBRANCH   1  16
TORSDOF 6
ENDMDL
