MODEL 1
REMARK VINA RESULT:      -7.2      0.000      0.000
REMARK  Name = 
REMARK  13 active torsions:
REMARK  status: ('A' for Active; 'I' for Inactive)
REMARK    1  A    between atoms: C_1  and  O_2
REMARK    2  A    between atoms: O_2  and  C_3
REMARK    3  A    between atoms: C_6  and  C_7
REMARK    4  A    between atoms: C_8  and  C_9
REMARK    5  A    between atoms: C_9  and  C_11
REMARK    6  A    between atoms: C_11  and  C_12
REMARK    7  A    between atoms: C_14  and  C_15
REMARK    8  A    between atoms: C_15  and  O_16
REMARK    9  A    between atoms: C_17  and  O_18
REMARK   10  A    between atoms: C_19  and  O_20
REMARK   11  A    between atoms: C_21  and  O_22
REMARK   12  A    between atoms: C_24  and  O_25
REMARK   13  A    between atoms: O_25  and  C_26
REMARK                            x       y       z     vdW  Elec       q    Type
REMARK                         _______ _______ _______ _____ _____    ______ ____
ROOT
ATOM      1  C   UNL     1       6.984   6.338  18.565  0.00  0.00    +0.000 C 
ENDROOT
BRANCH   1   2
ATOM      2  C   UNL     1       5.626   5.718  18.240  0.00  0.00    +0.000 C 
ATOM      3  O   UNL     1       4.683   6.030  19.278  0.00  0.00    +0.000 OA
ATOM      4  C   UNL     1       3.338   5.647  18.929  0.00  0.00    +0.000 C 
ATOM      5  C   UNL     1       3.227   4.143  18.635  0.00  0.00    +0.000 C 
ATOM      6  C   UNL     1       4.290   3.706  17.616  0.00  0.00    +0.000 C 
ATOM      7  C   UNL     1       5.688   4.202  18.007  0.00  0.00    +0.000 C 
BRANCH   5   8
ATOM      8  O   UNL     1       1.920   3.881  18.103  0.00  0.00    +0.000 OA
ATOM      9  H   UNL     1       2.031   3.604  17.174  0.00  0.00    +0.000 HD
ENDBRANCH   5   8
BRANCH   6  10
ATOM     10  O   UNL     1       4.248   2.280  17.471  0.00  0.00    +0.000 OA
ATOM     11  H   UNL     1       4.948   1.896  18.034  0.00  0.00    +0.000 HD
ENDBRANCH   6  10
BRANCH   7  12
ATOM     12  O   UNL     1       6.631   3.872  16.986  0.00  0.00    +0.000 OA
ATOM     13  H   UNL     1       7.522   4.133  17.276  0.00  0.00    +0.000 HD
ENDBRANCH   7  12
BRANCH   4  14
ATOM     14  C   UNL     1       2.391   6.069  20.065  0.00  0.00    +0.000 C 
BRANCH  14  15
ATOM     15  O   UNL     1       2.379   5.108  21.118  0.00  0.00    +0.000 OA
ATOM     16  H   UNL     1       2.692   5.578  21.909  0.00  0.00    +0.000 HD
ENDBRANCH  14  15
ENDBRANCH   4  14
ENDBRANCH   1   2
BRANCH   1  17
ATOM     17  C   UNL     1       7.516   7.150  17.407  0.00  0.00    +0.000 C 
ATOM     18  O   UNL     1       7.690   6.669  16.291  0.00  0.00    +0.000 OA
BRANCH  17  20
ATOM     19  C   UNL     1       8.744   8.868  18.663  0.00  0.00    +0.000 C 
ATOM     20  C   UNL     1       7.856   8.563  17.705  0.00  0.00    +0.000 C 
BRANCH  19  24
ATOM     21  C   UNL     1       9.629  12.959  19.553  0.00  0.00    +0.000 A 
ATOM     22  C   UNL     1       9.639  12.487  18.230  0.00  0.00    +0.000 A 
ATOM     23  C   UNL     1       9.353  11.149  17.942  0.00  0.00    +0.000 A 
ATOM     24  C   UNL     1       9.092  10.256  18.975  0.00  0.00    +0.000 A 
ATOM     25  C   UNL     1       9.130  10.720  20.297  0.00  0.00    +0.000 A 
ATOM     26  C   UNL     1       9.415  12.058  20.601  0.00  0.00    +0.000 A 
BRANCH  21  28
ATOM     27  C   UNL     1       8.827  15.183  19.403  0.00  0.00    +0.000 C 
ATOM     28  O   UNL     1       9.849  14.283  19.830  0.00  0.00    +0.000 OA
ENDBRANCH  21  28
BRANCH  26  29
ATOM     29  O   UNL     1       9.420  12.276  21.954  0.00  0.00    +0.000 OA
ATOM     30  C   UNL     1       8.356  11.769  22.738  0.00  0.00    +0.000 C 
ENDBRANCH  26  29
ENDBRANCH  19  24
ENDBRANCH  17  20
ENDBRANCH   1  17
TORSDOF 11
ENDMDL
MODEL 2
REMARK VINA RESULT:      -7.2      1.059      1.804
REMARK  Name = 
REMARK  13 active torsions:
REMARK  status: ('A' for Active; 'I' for Inactive)
REMARK    1  A    between atoms: C_1  and  O_2
REMARK    2  A    between atoms: O_2  and  C_3
REMARK    3  A    between atoms: C_6  and  C_7
REMARK    4  A    between atoms: C_8  and  C_9
REMARK    5  A    between atoms: C_9  and  C_11
REMARK    6  A    between atoms: C_11  and  C_12
REMARK    7  A    between atoms: C_14  and  C_15
REMARK    8  A    between atoms: C_15  and  O_16
REMARK    9  A    between atoms: C_17  and  O_18
REMARK   10  A    between atoms: C_19  and  O_20
REMARK   11  A    between atoms: C_21  and  O_22
REMARK   12  A    between atoms: C_24  and  O_25
REMARK   13  A    between atoms: O_25  and  C_26
REMARK                            x       y       z     vdW  Elec       q    Type
REMARK                         _______ _______ _______ _____ _____    ______ ____
ROOT
ATOM      1  C   UNL     1       6.859   6.296  18.506  0.00  0.00    +0.000 C 
ENDROOT
BRANCH   1   2
ATOM      2  C   UNL     1       5.505   5.661  18.198  0.00  0.00    +0.000 C 
ATOM      3  O   UNL     1       4.568   5.971  19.243  0.00  0.00    +0.000 OA
ATOM      4  C   UNL     1       3.224   5.572  18.908  0.00  0.00    +0.000 C 
ATOM      5  C   UNL     1       3.125   4.066  18.626  0.00  0.00    +0.000 C 
ATOM      6  C   UNL     1       4.183   3.632  17.600  0.00  0.00    +0.000 C 
ATOM      7  C   UNL     1       5.580   4.144  17.975  0.00  0.00    +0.000 C 
BRANCH   5   8
ATOM      8  O   UNL     1       1.816   3.787  18.108  0.00  0.00    +0.000 OA
ATOM      9  H   UNL     1       1.616   2.852  18.304  0.00  0.00    +0.000 HD
ENDBRANCH   5   8
BRANCH   6  10
ATOM     10  O   UNL     1       4.154   2.204  17.465  0.00  0.00    +0.000 OA
ATOM     11  H   UNL     1       5.039   1.907  17.180  0.00  0.00    +0.000 HD
ENDBRANCH   6  10
BRANCH   7  12
ATOM     12  O   UNL     1       6.516   3.816  16.947  0.00  0.00    +0.000 OA
ATOM     13  H   UNL     1       6.867   2.923  17.106  0.00  0.00    +0.000 HD
ENDBRANCH   7  12
BRANCH   4  14
ATOM     14  C   UNL     1       2.284   5.993  20.050  0.00  0.00    +0.000 C 
BRANCH  14  15
ATOM     15  O   UNL     1       2.475   5.183  21.208  0.00  0.00    +0.000 OA
ATOM     16  H   UNL     1       2.809   5.782  21.897  0.00  0.00    +0.000 HD
ENDBRANCH  14  15
ENDBRANCH   4  14
ENDBRANCH   1   2
BRANCH   1  17
ATOM     17  C   UNL     1       7.393   7.070  17.323  0.00  0.00    +0.000 C 
ATOM     18  O   UNL     1       7.530   6.563  16.213  0.00  0.00    +0.000 OA
BRANCH  17  20
ATOM     19  C   UNL     1       8.594   8.784  18.610  0.00  0.00    +0.000 C 
ATOM     20  C   UNL     1       7.782   8.477  17.587  0.00  0.00    +0.000 C 
BRANCH  19  24
ATOM     21  C   UNL     1       9.865  12.801  19.363  0.00  0.00    +0.000 A 
ATOM     22  C   UNL     1      10.233  11.751  20.221  0.00  0.00    +0.000 A 
ATOM     23  C   UNL     1       9.815  10.440  19.975  0.00  0.00    +0.000 A 
ATOM     24  C   UNL     1       8.988  10.167  18.890  0.00  0.00    +0.000 A 
ATOM     25  C   UNL     1       8.584  11.224  18.064  0.00  0.00    +0.000 A 
ATOM     26  C   UNL     1       8.997  12.543  18.298  0.00  0.00    +0.000 A 
BRANCH  21  28
ATOM     27  C   UNL     1      11.464  14.454  18.795  0.00  0.00    +0.000 C 
ATOM     28  O   UNL     1      10.327  14.075  19.569  0.00  0.00    +0.000 OA
ENDBRANCH  21  28
BRANCH  26  29
ATOM     29  O   UNL     1       8.461  13.408  17.380  0.00  0.00    +0.000 OA
ATOM     30  C   UNL     1       7.316  14.163  17.730  0.00  0.00    +0.000 C 
ENDBRANCH  26  29
ENDBRANCH  19  24
ENDBRANCH  17  20
ENDBRANCH   1  17
TORSDOF 11
ENDMDL
MODEL 3
REMARK VINA RESULT:      -7.0      5.343      6.361
REMARK  Name = 
REMARK  13 active torsions:
REMARK  status: ('A' for Active; 'I' for Inactive)
REMARK    1  A    between atoms: C_1  and  O_2
REMARK    2  A    between atoms: O_2  and  C_3
REMARK    3  A    between atoms: C_6  and  C_7
REMARK    4  A    between atoms: C_8  and  C_9
REMARK    5  A    between atoms: C_9  and  C_11
REMARK    6  A    between atoms: C_11  and  C_12
REMARK    7  A    between atoms: C_14  and  C_15
REMARK    8  A    between atoms: C_15  and  O_16
REMARK    9  A    between atoms: C_17  and  O_18
REMARK   10  A    between atoms: C_19  and  O_20
REMARK   11  A    between atoms: C_21  and  O_22
REMARK   12  A    between atoms: C_24  and  O_25
REMARK   13  A    between atoms: O_25  and  C_26
REMARK                            x       y       z     vdW  Elec       q    Type
REMARK                         _______ _______ _______ _____ _____    ______ ____
ROOT
ATOM      1  C   UNL     1       4.534   5.938  18.368  0.00  0.00    +0.000 C 
ENDROOT
BRANCH   1   2
ATOM      2  C   UNL     1       3.657   4.690  18.302  0.00  0.00    +0.000 C 
ATOM      3  O   UNL     1       2.710   4.696  19.382  0.00  0.00    +0.000 OA
ATOM      4  C   UNL     1       1.725   3.652  19.253  0.00  0.00    +0.000 C 
ATOM      5  C   UNL     1       2.370   2.258  19.207  0.00  0.00    +0.000 C 
ATOM      6  C   UNL     1       3.483   2.206  18.150  0.00  0.00    +0.000 C 
ATOM      7  C   UNL     1       4.459   3.381  18.296  0.00  0.00    +0.000 C 
BRANCH   5   8
ATOM      8  O   UNL     1       1.353   1.300  18.876  0.00  0.00    +0.000 OA
ATOM      9  H   UNL     1       0.939   1.588  18.040  0.00  0.00    +0.000 HD
ENDBRANCH   5   8
BRANCH   6  10
ATOM     10  O   UNL     1       4.152   0.940  18.229  0.00  0.00    +0.000 OA
ATOM     11  H   UNL     1       3.874   0.400  17.464  0.00  0.00    +0.000 HD
ENDBRANCH   6  10
BRANCH   7  12
ATOM     12  O   UNL     1       5.414   3.362  17.234  0.00  0.00    +0.000 OA
ATOM     13  H   UNL     1       6.300   3.199  17.603  0.00  0.00    +0.000 HD
ENDBRANCH   7  12
BRANCH   4  14
ATOM     14  C   UNL     1       0.724   3.769  20.414  0.00  0.00    +0.000 C 
BRANCH  14  15
ATOM     15  O   UNL     1       0.933   2.750  21.389  0.00  0.00    +0.000 OA
ATOM     16  H   UNL     1       1.347   3.192  22.149  0.00  0.00    +0.000 HD
ENDBRANCH  14  15
ENDBRANCH   4  14
ENDBRANCH   1   2
BRANCH   1  17
ATOM     17  C   UNL     1       4.168   6.934  17.292  0.00  0.00    +0.000 C 
ATOM     18  O   UNL     1       4.575   6.834  16.138  0.00  0.00    +0.000 OA
BRANCH  17  20
ATOM     19  C   UNL     1       2.279   7.877  18.548  0.00  0.00    +0.000 C 
ATOM     20  C   UNL     1       3.316   8.070  17.719  0.00  0.00    +0.000 C 
BRANCH  19  24
ATOM     21  C   UNL     1      -0.331  11.027  19.807  0.00  0.00    +0.000 A 
ATOM     22  C   UNL     1      -0.161  10.727  18.445  0.00  0.00    +0.000 A 
ATOM     23  C   UNL     1       0.694   9.700  18.036  0.00  0.00    +0.000 A 
ATOM     24  C   UNL     1       1.423   8.985  18.980  0.00  0.00    +0.000 A 
ATOM     25  C   UNL     1       1.288   9.319  20.334  0.00  0.00    +0.000 A 
ATOM     26  C   UNL     1       0.433  10.345  20.759  0.00  0.00    +0.000 A 
BRANCH  21  28
ATOM     27  C   UNL     1      -2.433  12.065  19.470  0.00  0.00    +0.000 C 
ATOM     28  O   UNL     1      -1.216  11.992  20.211  0.00  0.00    +0.000 OA
ENDBRANCH  21  28
BRANCH  26  29
ATOM     29  O   UNL     1       0.480  10.508  22.119  0.00  0.00    +0.000 OA
ATOM     30  C   UNL     1       0.214   9.397  22.956  0.00  0.00    +0.000 C 
ENDBRANCH  26  29
ENDBRANCH  19  24
ENDBRANCH  17  20
ENDBRANCH   1  17
TORSDOF 11
ENDMDL
MODEL 4
REMARK VINA RESULT:      -7.0      5.383      6.821
REMARK  Name = 
REMARK  13 active torsions:
REMARK  status: ('A' for Active; 'I' for Inactive)
REMARK    1  A    between atoms: C_1  and  O_2
REMARK    2  A    between atoms: O_2  and  C_3
REMARK    3  A    between atoms: C_6  and  C_7
REMARK    4  A    between atoms: C_8  and  C_9
REMARK    5  A    between atoms: C_9  and  C_11
REMARK    6  A    between atoms: C_11  and  C_12
REMARK    7  A    between atoms: C_14  and  C_15
REMARK    8  A    between atoms: C_15  and  O_16
REMARK    9  A    between atoms: C_17  and  O_18
REMARK   10  A    between atoms: C_19  and  O_20
REMARK   11  A    between atoms: C_21  and  O_22
REMARK   12  A    between atoms: C_24  and  O_25
REMARK   13  A    between atoms: O_25  and  C_26
REMARK                            x       y       z     vdW  Elec       q    Type
REMARK                         _______ _______ _______ _____ _____    ______ ____
ROOT
ATOM      1  C   UNL     1       3.413   3.140  17.536  0.00  0.00    +0.000 C 
ENDROOT
BRANCH   1   2
ATOM      2  C   UNL     1       4.555   3.946  16.920  0.00  0.00    +0.000 C 
ATOM      3  O   UNL     1       4.635   3.687  15.509  0.00  0.00    +0.000 OA
ATOM      4  C   UNL     1       5.557   4.571  14.842  0.00  0.00    +0.000 C 
ATOM      5  C   UNL     1       6.977   4.460  15.417  0.00  0.00    +0.000 C 
ATOM      6  C   UNL     1       6.960   4.608  16.946  0.00  0.00    +0.000 C 
ATOM      7  C   UNL     1       5.912   3.693  17.592  0.00  0.00    +0.000 C 
BRANCH   5   8
ATOM      8  O   UNL     1       7.780   5.504  14.846  0.00  0.00    +0.000 OA
ATOM      9  H   UNL     1       8.680   5.148  14.722  0.00  0.00    +0.000 HD
ENDBRANCH   5   8
BRANCH   6  10
ATOM     10  O   UNL     1       8.276   4.362  17.459  0.00  0.00    +0.000 OA
ATOM     11  H   UNL     1       8.911   4.889  16.936  0.00  0.00    +0.000 HD
ENDBRANCH   6  10
BRANCH   7  12
ATOM     12  O   UNL     1       5.848   3.935  18.998  0.00  0.00    +0.000 OA
ATOM     13  H   UNL     1       5.289   3.256  19.415  0.00  0.00    +0.000 HD
ENDBRANCH   7  12
BRANCH   4  14
ATOM     14  C   UNL     1       5.536   4.264  13.335  0.00  0.00    +0.000 C 
BRANCH  14  15
ATOM     15  O   UNL     1       6.484   3.255  12.995  0.00  0.00    +0.000 OA
ATOM     16  H   UNL     1       6.170   2.867  12.161  0.00  0.00    +0.000 HD
ENDBRANCH  14  15
ENDBRANCH   4  14
ENDBRANCH   1   2
BRANCH   1  17
ATOM     17  C   UNL     1       2.907   3.775  18.810  0.00  0.00    +0.000 C 
ATOM     18  O   UNL     1       2.951   3.200  19.894  0.00  0.00    +0.000 OA
BRANCH  17  20
ATOM     19  C   UNL     1       2.868   6.187  19.275  0.00  0.00    +0.000 C 
ATOM     20  C   UNL     1       2.312   5.127  18.672  0.00  0.00    +0.000 C 
BRANCH  19  24
ATOM     21  C   UNL     1       1.084  10.054  18.861  0.00  0.00    +0.000 A 
ATOM     22  C   UNL     1       1.833   9.487  17.817  0.00  0.00    +0.000 A 
ATOM     23  C   UNL     1       2.418   8.225  17.956  0.00  0.00    +0.000 A 
ATOM     24  C   UNL     1       2.296   7.530  19.154  0.00  0.00    +0.000 A 
ATOM     25  C   UNL     1       1.588   8.120  20.210  0.00  0.00    +0.000 A 
ATOM     26  C   UNL     1       0.995   9.384  20.084  0.00  0.00    +0.000 A 
BRANCH  21  28
ATOM     27  C   UNL     1       1.258  12.414  18.973  0.00  0.00    +0.000 C 
ATOM     28  O   UNL     1       0.459  11.264  18.703  0.00  0.00    +0.000 OA
ENDBRANCH  21  28
BRANCH  26  29
ATOM     29  O   UNL     1       0.378   9.767  21.247  0.00  0.00    +0.000 OA
ATOM     30  C   UNL     1       0.879   9.292  22.482  0.00  0.00    +0.000 C 
ENDBRANCH  26  29
ENDBRANCH  19  24
ENDBRANCH  17  20
ENDBRANCH   1  17
TORSDOF 11
ENDMDL
MODEL 5
REMARK VINA RESULT:      -6.9      4.640      6.801
REMARK  Name = 
REMARK  13 active torsions:
REMARK  status: ('A' for Active; 'I' for Inactive)
REMARK    1  A    between atoms: C_1  and  O_2
REMARK    2  A    between atoms: O_2  and  C_3
REMARK    3  A    between atoms: C_6  and  C_7
REMARK    4  A    between atoms: C_8  and  C_9
REMARK    5  A    between atoms: C_9  and  C_11
REMARK    6  A    between atoms: C_11  and  C_12
REMARK    7  A    between atoms: C_14  and  C_15
REMARK    8  A    between atoms: C_15  and  O_16
REMARK    9  A    between atoms: C_17  and  O_18
REMARK   10  A    between atoms: C_19  and  O_20
REMARK   11  A    between atoms: C_21  and  O_22
REMARK   12  A    between atoms: C_24  and  O_25
REMARK   13  A    between atoms: O_25  and  C_26
REMARK                            x       y       z     vdW  Elec       q    Type
REMARK                         _______ _______ _______ _____ _____    ______ ____
ROOT
ATOM      1  C   UNL     1       3.951   3.042  18.104  0.00  0.00    +0.000 C 
ENDROOT
BRANCH   1   2
ATOM      2  C   UNL     1       4.839   4.235  17.760  0.00  0.00    +0.000 C 
ATOM      3  O   UNL     1       5.328   4.112  16.415  0.00  0.00    +0.000 OA
ATOM      4  C   UNL     1       6.002   5.305  15.966  0.00  0.00    +0.000 C 
ATOM      5  C   UNL     1       7.194   5.664  16.865  0.00  0.00    +0.000 C 
ATOM      6  C   UNL     1       6.774   5.698  18.342  0.00  0.00    +0.000 C 
ATOM      7  C   UNL     1       6.002   4.433  18.741  0.00  0.00    +0.000 C 
BRANCH   5   8
ATOM      8  O   UNL     1       7.680   6.958  16.477  0.00  0.00    +0.000 OA
ATOM      9  H   UNL     1       6.909   7.554  16.413  0.00  0.00    +0.000 HD
ENDBRANCH   5   8
BRANCH   6  10
ATOM     10  O   UNL     1       7.935   5.898  19.159  0.00  0.00    +0.000 OA
ATOM     11  H   UNL     1       8.463   6.620  18.766  0.00  0.00    +0.000 HD
ENDBRANCH   6  10
BRANCH   7  12
ATOM     12  O   UNL     1       5.534   4.546  20.086  0.00  0.00    +0.000 OA
ATOM     13  H   UNL     1       6.278   4.787  20.665  0.00  0.00    +0.000 HD
ENDBRANCH   7  12
BRANCH   4  14
ATOM     14  C   UNL     1       6.439   5.106  14.505  0.00  0.00    +0.000 C 
BRANCH  14  15
ATOM     15  O   UNL     1       7.843   5.301  14.350  0.00  0.00    +0.000 OA
ATOM     16  H   UNL     1       8.262   4.774  15.051  0.00  0.00    +0.000 HD
ENDBRANCH  14  15
ENDBRANCH   4  14
ENDBRANCH   1   2
BRANCH   1  17
ATOM     17  C   UNL     1       2.667   3.476  18.772  0.00  0.00    +0.000 C 
ATOM     18  O   UNL     1       1.970   2.704  19.424  0.00  0.00    +0.000 OA
BRANCH  17  20
ATOM     19  C   UNL     1       2.481   5.811  19.515  0.00  0.00    +0.000 C 
ATOM     20  C   UNL     1       2.271   4.890  18.563  0.00  0.00    +0.000 C 
BRANCH  19  24
ATOM     21  C   UNL     1       1.238   9.861  18.909  0.00  0.00    +0.000 A 
ATOM     22  C   UNL     1       1.952   9.166  17.918  0.00  0.00    +0.000 A 
ATOM     23  C   UNL     1       2.360   7.844  18.120  0.00  0.00    +0.000 A 
ATOM     24  C   UNL     1       2.095   7.212  19.329  0.00  0.00    +0.000 A 
ATOM     25  C   UNL     1       1.424   7.924  20.333  0.00  0.00    +0.000 A 
ATOM     26  C   UNL     1       1.008   9.249  20.144  0.00  0.00    +0.000 A 
BRANCH  21  28
ATOM     27  C   UNL     1       1.713  12.181  18.970  0.00  0.00    +0.000 C 
ATOM     28  O   UNL     1       0.784  11.135  18.687  0.00  0.00    +0.000 OA
ENDBRANCH  21  28
BRANCH  26  29
ATOM     29  O   UNL     1       0.395   9.747  21.265  0.00  0.00    +0.000 OA
ATOM     30  C   UNL     1       0.940   9.452  22.537  0.00  0.00    +0.000 C 
ENDBRANCH  26  29
ENDBRANCH  19  24
ENDBRANCH  17  20
ENDBRANCH   1  17
TORSDOF 11
ENDMDL
MODEL 6
REMARK VINA RESULT:      -6.9      5.067      6.773
REMARK  Name = 
REMARK  13 active torsions:
REMARK  status: ('A' for Active; 'I' for Inactive)
REMARK    1  A    between atoms: C_1  and  O_2
REMARK    2  A    between atoms: O_2  and  C_3
REMARK    3  A    between atoms: C_6  and  C_7
REMARK    4  A    between atoms: C_8  and  C_9
REMARK    5  A    between atoms: C_9  and  C_11
REMARK    6  A    between atoms: C_11  and  C_12
REMARK    7  A    between atoms: C_14  and  C_15
REMARK    8  A    between atoms: C_15  and  O_16
REMARK    9  A    between atoms: C_17  and  O_18
REMARK   10  A    between atoms: C_19  and  O_20
REMARK   11  A    between atoms: C_21  and  O_22
REMARK   12  A    between atoms: C_24  and  O_25
REMARK   13  A    between atoms: O_25  and  C_26
REMARK                            x       y       z     vdW  Elec       q    Type
REMARK                         _______ _______ _______ _____ _____    ______ ____
ROOT
ATOM      1  C   UNL     1       3.481   4.047  18.460  0.00  0.00    +0.000 C 
ENDROOT
BRANCH   1   2
ATOM      2  C   UNL     1       4.628   4.604  17.619  0.00  0.00    +0.000 C 
ATOM      3  O   UNL     1       4.542   4.099  16.276  0.00  0.00    +0.000 OA
ATOM      4  C   UNL     1       5.474   4.748  15.387  0.00  0.00    +0.000 C 
ATOM      5  C   UNL     1       6.927   4.580  15.856  0.00  0.00    +0.000 C 
ATOM      6  C   UNL     1       7.075   4.988  17.330  0.00  0.00    +0.000 C 
ATOM      7  C   UNL     1       6.014   4.319  18.213  0.00  0.00    +0.000 C 
BRANCH   5   8
ATOM      8  O   UNL     1       7.764   5.415  15.043  0.00  0.00    +0.000 OA
ATOM      9  H   UNL     1       8.601   5.552  15.527  0.00  0.00    +0.000 HD
ENDBRANCH   5   8
BRANCH   6  10
ATOM     10  O   UNL     1       8.407   4.689  17.771  0.00  0.00    +0.000 OA
ATOM     11  H   UNL     1       8.376   4.503  18.729  0.00  0.00    +0.000 HD
ENDBRANCH   6  10
BRANCH   7  12
ATOM     12  O   UNL     1       6.114   4.804  19.553  0.00  0.00    +0.000 OA
ATOM     13  H   UNL     1       5.333   5.349  19.756  0.00  0.00    +0.000 HD
ENDBRANCH   7  12
BRANCH   4  14
ATOM     14  C   UNL     1       5.273   4.191  13.968  0.00  0.00    +0.000 C 
BRANCH  14  15
ATOM     15  O   UNL     1       6.319   3.291  13.608  0.00  0.00    +0.000 OA
ATOM     16  H   UNL     1       6.389   3.341  12.640  0.00  0.00    +0.000 HD
ENDBRANCH  14  15
ENDBRANCH   4  14
ENDBRANCH   1   2
BRANCH   1  17
ATOM     17  C   UNL     1       2.139   4.525  17.958  0.00  0.00    +0.000 C 
ATOM     18  O   UNL     1       1.360   3.787  17.360  0.00  0.00    +0.000 OA
BRANCH  17  20
ATOM     19  C   UNL     1       2.034   6.514  19.396  0.00  0.00    +0.000 C 
ATOM     20  C   UNL     1       1.827   5.955  18.195  0.00  0.00    +0.000 C 
BRANCH  19  24
ATOM     21  C   UNL     1       1.015  10.610  20.105  0.00  0.00    +0.000 A 
ATOM     22  C   UNL     1       1.382  10.165  18.824  0.00  0.00    +0.000 A 
ATOM     23  C   UNL     1       1.717   8.828  18.595  0.00  0.00    +0.000 A 
ATOM     24  C   UNL     1       1.730   7.924  19.652  0.00  0.00    +0.000 A 
ATOM     25  C   UNL     1       1.410   8.381  20.937  0.00  0.00    +0.000 A 
ATOM     26  C   UNL     1       1.071   9.719  21.181  0.00  0.00    +0.000 A 
BRANCH  21  28
ATOM     27  C   UNL     1       1.654  12.889  20.195  0.00  0.00    +0.000 C 
ATOM     28  O   UNL     1       0.626  11.907  20.317  0.00  0.00    +0.000 OA
ENDBRANCH  21  28
BRANCH  26  29
ATOM     29  O   UNL     1       0.820   9.939  22.510  0.00  0.00    +0.000 OA
ATOM     30  C   UNL     1      -0.487   9.728  23.010  0.00  0.00    +0.000 C 
ENDBRANCH  26  29
ENDBRANCH  19  24
ENDBRANCH  17  20
ENDBRANCH   1  17
TORSDOF 11
ENDMDL
MODEL 7
REMARK VINA RESULT:      -6.9      5.329      9.431
REMARK  Name = 
REMARK  13 active torsions:
REMARK  status: ('A' for Active; 'I' for Inactive)
REMARK    1  A    between atoms: C_1  and  O_2
REMARK    2  A    between atoms: O_2  and  C_3
REMARK    3  A    between atoms: C_6  and  C_7
REMARK    4  A    between atoms: C_8  and  C_9
REMARK    5  A    between atoms: C_9  and  C_11
REMARK    6  A    between atoms: C_11  and  C_12
REMARK    7  A    between atoms: C_14  and  C_15
REMARK    8  A    between atoms: C_15  and  O_16
REMARK    9  A    between atoms: C_17  and  O_18
REMARK   10  A    between atoms: C_19  and  O_20
REMARK   11  A    between atoms: C_21  and  O_22
REMARK   12  A    between atoms: C_24  and  O_25
REMARK   13  A    between atoms: O_25  and  C_26
REMARK                            x       y       z     vdW  Elec       q    Type
REMARK                         _______ _______ _______ _____ _____    ______ ____
ROOT
ATOM      1  C   UNL     1      -0.008  10.076  18.222  0.00  0.00    +0.000 C 
ENDROOT
BRANCH   1   2
ATOM      2  C   UNL     1      -0.314  11.093  19.319  0.00  0.00    +0.000 C 
ATOM      3  O   UNL     1      -0.586  10.414  20.556  0.00  0.00    +0.000 OA
ATOM      4  C   UNL     1      -0.680  11.323  21.671  0.00  0.00    +0.000 C 
ATOM      5  C   UNL     1      -1.780  12.375  21.463  0.00  0.00    +0.000 C 
ATOM      6  C   UNL     1      -1.626  13.065  20.100  0.00  0.00    +0.000 C 
ATOM      7  C   UNL     1      -1.462  12.047  18.964  0.00  0.00    +0.000 C 
BRANCH   5   8
ATOM      8  O   UNL     1      -1.674  13.352  22.509  0.00  0.00    +0.000 OA
ATOM      9  H   UNL     1      -1.354  14.181  22.104  0.00  0.00    +0.000 HD
ENDBRANCH   5   8
BRANCH   6  10
ATOM     10  O   UNL     1      -2.744  13.936  19.882  0.00  0.00    +0.000 OA
ATOM     11  H   UNL     1      -3.094  13.764  18.987  0.00  0.00    +0.000 HD
ENDBRANCH   6  10
BRANCH   7  12
ATOM     12  O   UNL     1      -1.213  12.723  17.730  0.00  0.00    +0.000 OA
ATOM     13  H   UNL     1      -0.542  12.231  17.225  0.00  0.00    +0.000 HD
ENDBRANCH   7  12
BRANCH   4  14
ATOM     14  C   UNL     1      -0.914  10.510  22.955  0.00  0.00    +0.000 C 
BRANCH  14  15
ATOM     15  O   UNL     1       0.304   9.967  23.458  0.00  0.00    +0.000 OA
ATOM     16  H   UNL     1       0.986  10.194  22.803  0.00  0.00    +0.000 HD
ENDBRANCH  14  15
ENDBRANCH   4  14
ENDBRANCH   1   2
BRANCH   1  17
ATOM     17  C   UNL     1       1.466   9.747  18.161  0.00  0.00    +0.000 C 
ATOM     18  O   UNL     1       2.321  10.598  17.932  0.00  0.00    +0.000 OA
BRANCH  17  20
ATOM     19  C   UNL     1       2.941   7.812  17.820  0.00  0.00    +0.000 C 
ATOM     20  C   UNL     1       1.823   8.321  18.358  0.00  0.00    +0.000 C 
BRANCH  19  24
ATOM     21  C   UNL     1       4.028   3.691  18.207  0.00  0.00    +0.000 A 
ATOM     22  C   UNL     1       2.689   4.073  18.023  0.00  0.00    +0.000 A 
ATOM     23  C   UNL     1       2.336   5.420  17.899  0.00  0.00    +0.000 A 
ATOM     24  C   UNL     1       3.311   6.407  17.999  0.00  0.00    +0.000 A 
ATOM     25  C   UNL     1       4.639   6.024  18.231  0.00  0.00    +0.000 A 
ATOM     26  C   UNL     1       5.008   4.678  18.355  0.00  0.00    +0.000 A 
BRANCH  21  28
ATOM     27  C   UNL     1       3.330   1.460  18.588  0.00  0.00    +0.000 C 
ATOM     28  O   UNL     1       4.382   2.369  18.265  0.00  0.00    +0.000 OA
ENDBRANCH  21  28
BRANCH  26  29
ATOM     29  O   UNL     1       6.350   4.545  18.601  0.00  0.00    +0.000 OA
ATOM     30  C   UNL     1       7.262   4.662  17.525  0.00  0.00    +0.000 C 
ENDBRANCH  26  29
ENDBRANCH  19  24
ENDBRANCH  17  20
ENDBRANCH   1  17
TORSDOF 11
ENDMDL
MODEL 8
REMARK VINA RESULT:      -6.9      5.556      9.960
REMARK  Name = 
REMARK  13 active torsions:
REMARK  status: ('A' for Active; 'I' for Inactive)
REMARK    1  A    between atoms: C_1  and  O_2
REMARK    2  A    between atoms: O_2  and  C_3
REMARK    3  A    between atoms: C_6  and  C_7
REMARK    4  A    between atoms: C_8  and  C_9
REMARK    5  A    between atoms: C_9  and  C_11
REMARK    6  A    between atoms: C_11  and  C_12
REMARK    7  A    between atoms: C_14  and  C_15
REMARK    8  A    between atoms: C_15  and  O_16
REMARK    9  A    between atoms: C_17  and  O_18
REMARK   10  A    between atoms: C_19  and  O_20
REMARK   11  A    between atoms: C_21  and  O_22
REMARK   12  A    between atoms: C_24  and  O_25
REMARK   13  A    between atoms: O_25  and  C_26
REMARK                            x       y       z     vdW  Elec       q    Type
REMARK                         _______ _______ _______ _____ _____    ______ ____
ROOT
ATOM      1  C   UNL     1       0.797  10.499  20.563  0.00  0.00    +0.000 C 
ENDROOT
BRANCH   1   2
ATOM      2  C   UNL     1      -0.626  10.813  20.105  0.00  0.00    +0.000 C 
ATOM      3  O   UNL     1      -0.765  10.526  18.704  0.00  0.00    +0.000 OA
ATOM      4  C   UNL     1      -2.135  10.607  18.262  0.00  0.00    +0.000 C 
ATOM      5  C   UNL     1      -2.738  11.997  18.516  0.00  0.00    +0.000 C 
ATOM      6  C   UNL     1      -2.521  12.428  19.974  0.00  0.00    +0.000 C 
ATOM      7  C   UNL     1      -1.060  12.254  20.405  0.00  0.00    +0.000 C 
BRANCH   5   8
ATOM      8  O   UNL     1      -4.145  11.936  18.240  0.00  0.00    +0.000 OA
ATOM      9  H   UNL     1      -4.598  11.702  19.073  0.00  0.00    +0.000 HD
ENDBRANCH   5   8
BRANCH   6  10
ATOM     10  O   UNL     1      -2.972  13.780  20.139  0.00  0.00    +0.000 OA
ATOM     11  H   UNL     1      -2.682  14.295  19.361  0.00  0.00    +0.000 HD
ENDBRANCH   6  10
BRANCH   7  12
ATOM     12  O   UNL     1      -0.917  12.560  21.794  0.00  0.00    +0.000 OA
ATOM     13  H   UNL     1      -0.860  11.731  22.300  0.00  0.00    +0.000 HD
ENDBRANCH   7  12
BRANCH   4  14
ATOM     14  C   UNL     1      -2.198  10.231  16.772  0.00  0.00    +0.000 C 
BRANCH  14  15
ATOM     15  O   UNL     1      -2.336  11.386  15.948  0.00  0.00    +0.000 OA
ATOM     16  H   UNL     1      -2.903  11.115  15.206  0.00  0.00    +0.000 HD
ENDBRANCH  14  15
ENDBRANCH   4  14
ENDBRANCH   1   2
BRANCH   1  17
ATOM     17  C   UNL     1       0.805   9.613  21.788  0.00  0.00    +0.000 C 
ATOM     18  O   UNL     1       0.516  10.032  22.905  0.00  0.00    +0.000 OA
BRANCH  17  20
ATOM     19  C   UNL     1       1.734   7.815  20.393  0.00  0.00    +0.000 C 
ATOM     20  C   UNL     1       1.223   8.206  21.570  0.00  0.00    +0.000 C 
BRANCH  19  24
ATOM     21  C   UNL     1       2.864   3.766  19.593  0.00  0.00    +0.000 A 
ATOM     22  C   UNL     1       1.729   4.063  20.367  0.00  0.00    +0.000 A 
ATOM     23  C   UNL     1       1.364   5.386  20.630  0.00  0.00    +0.000 A 
ATOM     24  C   UNL     1       2.150   6.431  20.157  0.00  0.00    +0.000 A 
ATOM     25  C   UNL     1       3.307   6.131  19.426  0.00  0.00    +0.000 A 
ATOM     26  C   UNL     1       3.685   4.809  19.154  0.00  0.00    +0.000 A 
BRANCH  21  28
ATOM     27  C   UNL     1       2.723   2.003  18.018  0.00  0.00    +0.000 C 
ATOM     28  O   UNL     1       3.187   2.471  19.284  0.00  0.00    +0.000 OA
ENDBRANCH  21  28
BRANCH  26  29
ATOM     29  O   UNL     1       4.859   4.757  18.447  0.00  0.00    +0.000 OA
ATOM     30  C   UNL     1       6.058   5.174  19.071  0.00  0.00    +0.000 C 
ENDBRANCH  26  29
ENDBRANCH  19  24
ENDBRANCH  17  20
ENDBRANCH   1  17
TORSDOF 11
ENDMDL
MODEL 9
REMARK VINA RESULT:      -6.8      5.461      8.684
REMARK  Name = 
REMARK  13 active torsions:
REMARK  status: ('A' for Active; 'I' for Inactive)
REMARK    1  A    between atoms: C_1  and  O_2
REMARK    2  A    between atoms: O_2  and  C_3
REMARK    3  A    between atoms: C_6  and  C_7
REMARK    4  A    between atoms: C_8  and  C_9
REMARK    5  A    between atoms: C_9  and  C_11
REMARK    6  A    between atoms: C_11  and  C_12
REMARK    7  A    between atoms: C_14  and  C_15
REMARK    8  A    between atoms: C_15  and  O_16
REMARK    9  A    between atoms: C_17  and  O_18
REMARK   10  A    between atoms: C_19  and  O_20
REMARK   11  A    between atoms: C_21  and  O_22
REMARK   12  A    between atoms: C_24  and  O_25
REMARK   13  A    between atoms: O_25  and  C_26
REMARK                            x       y       z     vdW  Elec       q    Type
REMARK                         _______ _______ _______ _____ _____    ______ ____
ROOT
ATOM      1  C   UNL     1       2.629   7.223  19.148  0.00  0.00    +0.000 C 
ENDROOT
BRANCH   1   2
ATOM      2  C   UNL     1       3.016   5.836  18.640  0.00  0.00    +0.000 C 
ATOM      3  O   UNL     1       2.251   4.831  19.325  0.00  0.00    +0.000 OA
ATOM      4  C   UNL     1       2.425   3.522  18.746  0.00  0.00    +0.000 C 
ATOM      5  C   UNL     1       3.895   3.078  18.759  0.00  0.00    +0.000 C 
ATOM      6  C   UNL     1       4.797   4.161  18.148  0.00  0.00    +0.000 C 
ATOM      7  C   UNL     1       4.518   5.542  18.755  0.00  0.00    +0.000 C 
BRANCH   5   8
ATOM      8  O   UNL     1       4.011   1.871  17.991  0.00  0.00    +0.000 OA
ATOM      9  H   UNL     1       3.673   2.060  17.095  0.00  0.00    +0.000 HD
ENDBRANCH   5   8
BRANCH   6  10
ATOM     10  O   UNL     1       6.170   3.775  18.302  0.00  0.00    +0.000 OA
ATOM     11  H   UNL     1       6.679   4.159  17.563  0.00  0.00    +0.000 HD
ENDBRANCH   6  10
BRANCH   7  12
ATOM     12  O   UNL     1       5.295   6.539  18.089  0.00  0.00    +0.000 OA
ATOM     13  H   UNL     1       6.240   6.345  18.215  0.00  0.00    +0.000 HD
ENDBRANCH   7  12
BRANCH   4  14
ATOM     14  C   UNL     1       1.530   2.524  19.500  0.00  0.00    +0.000 C 
BRANCH  14  15
ATOM     15  O   UNL     1       1.205   1.398  18.688  0.00  0.00    +0.000 OA
ATOM     16  H   UNL     1       1.985   0.819  18.715  0.00  0.00    +0.000 HD
ENDBRANCH  14  15
ENDBRANCH   4  14
ENDBRANCH   1   2
BRANCH   1  17
ATOM     17  C   UNL     1       2.311   8.165  18.009  0.00  0.00    +0.000 C 
ATOM     18  O   UNL     1       3.164   8.546  17.214  0.00  0.00    +0.000 OA
BRANCH  17  20
ATOM     19  C   UNL     1       0.580   9.885  18.295  0.00  0.00    +0.000 C 
ATOM     20  C   UNL     1       0.907   8.637  17.929  0.00  0.00    +0.000 C 
BRANCH  19  24
ATOM     21  C   UNL     1      -3.406  11.419  18.031  0.00  0.00    +0.000 A 
ATOM     22  C   UNL     1      -2.570  11.756  19.108  0.00  0.00    +0.000 A 
ATOM     23  C   UNL     1      -1.269  11.251  19.194  0.00  0.00    +0.000 A 
ATOM     24  C   UNL     1      -0.800  10.371  18.225  0.00  0.00    +0.000 A 
ATOM     25  C   UNL     1      -1.654  10.000  17.178  0.00  0.00    +0.000 A 
ATOM     26  C   UNL     1      -2.960  10.499  17.078  0.00  0.00    +0.000 A 
BRANCH  21  28
ATOM     27  C   UNL     1      -5.667  11.378  18.737  0.00  0.00    +0.000 C 
ATOM     28  O   UNL     1      -4.659  11.963  17.914  0.00  0.00    +0.000 OA
ENDBRANCH  21  28
BRANCH  26  29
ATOM     29  O   UNL     1      -3.613   9.982  15.990  0.00  0.00    +0.000 OA
ATOM     30  C   UNL     1      -3.079  10.198  14.698  0.00  0.00    +0.000 C 
ENDBRANCH  26  29
ENDBRANCH  19  24
ENDBRANCH  17  20
ENDBRANCH   1  17
TORSDOF 11
ENDMDL
