MODEL 1
REMARK VINA RESULT:      -8.5      0.000      0.000
REMARK  Name = 
REMARK  14 active torsions:
REMARK  status: ('A' for Active; 'I' for Inactive)
REMARK    1  A    between atoms: C_1  and  O_2
REMARK    2  A    between atoms: O_2  and  C_3
REMARK    3  A    between atoms: C_3  and  C_5
REMARK    4  A    between atoms: C_8  and  C_9
REMARK    5  A    between atoms: N_11  and  C_12
REMARK    6  A    between atoms: C_12  and  C_13
REMARK    7  A    between atoms: C_13  and  C_14
REMARK    8  A    between atoms: C_13  and  O_22
REMARK    9  A    between atoms: C_15  and  C_16
REMARK   10  A    between atoms: O_22  and  C_23
REMARK   11  A    between atoms: C_23  and  C_25
REMARK   12  A    between atoms: C_28  and  C_29
REMARK   13  A    between atoms: C_29  and  O_31
REMARK   14  A    between atoms: O_31  and  C_32
REMARK                            x       y       z     vdW  Elec       q    Type
REMARK                         _______ _______ _______ _____ _____    ______ ____
ROOT
ATOM      1  C   UNL     1       1.141   9.793  19.949  0.00  0.00    +0.000 C 
ENDROOT
BRANCH   1   2
ATOM      2  C   UNL     1       0.116  10.077  18.877  0.00  0.00    +0.000 C 
ATOM      3  C   UNL     1      -1.215  10.127  19.055  0.00  0.00    +0.000 C 
BRANCH   3   4
ATOM      4  C   UNL     1      -2.148  10.397  17.949  0.00  0.00    +0.000 A 
ATOM      5  C   UNL     1      -1.991   9.802  16.688  0.00  0.00    +0.000 A 
ATOM      6  C   UNL     1      -2.884  10.073  15.651  0.00  0.00    +0.000 A 
ATOM      7  C   UNL     1      -3.959  10.929  15.866  0.00  0.00    +0.000 A 
ATOM      8  C   UNL     1      -4.145  11.506  17.121  0.00  0.00    +0.000 A 
ATOM      9  C   UNL     1      -3.248  11.237  18.159  0.00  0.00    +0.000 A 
ENDBRANCH   3   4
ENDBRANCH   1   2
BRANCH   1  10
ATOM     10  C   UNL     1       1.428   8.273  20.086  0.00  0.00    +0.000 C 
BRANCH  10  13
ATOM     11  C   UNL     1       2.769   6.443  19.102  0.00  0.00    +0.000 C 
ATOM     12  O   UNL     1       2.518   5.699  20.044  0.00  0.00    +0.000 OA
ATOM     13  N   UNL     1       2.263   7.723  19.026  0.00  0.00    +0.000 N 
ATOM     14  H   UNL     1       2.562   8.365  18.309  0.00  0.00    +0.000 HD
BRANCH  11  18
ATOM     15  C   UNL     1       5.370   5.215  15.880  0.00  0.00    +0.000 A 
ATOM     16  C   UNL     1       5.279   6.554  16.276  0.00  0.00    +0.000 A 
ATOM     17  C   UNL     1       4.424   6.925  17.318  0.00  0.00    +0.000 A 
ATOM     18  C   UNL     1       3.648   5.966  17.988  0.00  0.00    +0.000 A 
ATOM     19  C   UNL     1       3.745   4.625  17.594  0.00  0.00    +0.000 A 
ATOM     20  C   UNL     1       4.597   4.253  16.544  0.00  0.00    +0.000 A 
BRANCH  15  21
ATOM     21  C   UNL     1       6.300   4.868  14.770  0.00  0.00    +0.000 C 
ATOM     22  O   UNL     1       7.393   5.389  14.620  0.00  0.00    +0.000 OA
BRANCH  21  24
ATOM     23  C   UNL     1       6.450   3.727  12.738  0.00  0.00    +0.000 C 
ATOM     24  O   UNL     1       5.758   3.913  13.974  0.00  0.00    +0.000 OA
ENDBRANCH  21  24
ENDBRANCH  15  21
ENDBRANCH  11  18
ENDBRANCH  10  13
ENDBRANCH   1  10
BRANCH   1  25
ATOM     25  O   UNL     1       0.728  10.408  21.202  0.00  0.00    +0.000 OA
BRANCH  25  26
ATOM     26  C   UNL     1       0.670  11.758  21.273  0.00  0.00    +0.000 C 
ATOM     27  O   UNL     1       1.586  12.532  21.046  0.00  0.00    +0.000 OA
BRANCH  26  28
ATOM     28  C   UNL     1      -0.677  12.238  21.670  0.00  0.00    +0.000 A 
ATOM     29  C   UNL     1      -1.280  11.602  22.765  0.00  0.00    +0.000 A 
ATOM     30  C   UNL     1      -2.548  11.986  23.203  0.00  0.00    +0.000 A 
ATOM     31  C   UNL     1      -3.239  13.013  22.550  0.00  0.00    +0.000 A 
ATOM     32  C   UNL     1      -2.641  13.656  21.455  0.00  0.00    +0.000 A 
ATOM     33  C   UNL     1      -1.362  13.270  21.015  0.00  0.00    +0.000 A 
BRANCH  31  34
ATOM     34  C   UNL     1      -4.590  13.367  23.069  0.00  0.00    +0.000 C 
ATOM     35  O   UNL     1      -4.833  14.415  23.648  0.00  0.00    +0.000 OA
BRANCH  34  36
ATOM     36  O   UNL     1      -5.479  12.377  22.812  0.00  0.00    +0.000 OA
ATOM     37  C   UNL     1      -6.821  12.843  22.654  0.00  0.00    +0.000 C 
ENDBRANCH  34  36
ENDBRANCH  31  34
ENDBRANCH  26  28
ENDBRANCH  25  26
ENDBRANCH   1  25
TORSDOF 12
ENDMDL
MODEL 2
REMARK VINA RESULT:      -7.9      3.763     10.296
REMARK  Name = 
REMARK  14 active torsions:
REMARK  status: ('A' for Active; 'I' for Inactive)
REMARK    1  A    between atoms: C_1  and  O_2
REMARK    2  A    between atoms: O_2  and  C_3
REMARK    3  A    between atoms: C_3  and  C_5
REMARK    4  A    between atoms: C_8  and  C_9
REMARK    5  A    between atoms: N_11  and  C_12
REMARK    6  A    between atoms: C_12  and  C_13
REMARK    7  A    between atoms: C_13  and  C_14
REMARK    8  A    between atoms: C_13  and  O_22
REMARK    9  A    between atoms: C_15  and  C_16
REMARK   10  A    between atoms: O_22  and  C_23
REMARK   11  A    between atoms: C_23  and  C_25
REMARK   12  A    between atoms: C_28  and  C_29
REMARK   13  A    between atoms: C_29  and  O_31
REMARK   14  A    between atoms: O_31  and  C_32
REMARK                            x       y       z     vdW  Elec       q    Type
REMARK                         _______ _______ _______ _____ _____    ______ ____
ROOT
ATOM      1  C   UNL     1       7.526   7.078  17.440  0.00  0.00    +0.000 C 
ENDROOT
BRANCH   1   2
ATOM      2  C   UNL     1       7.919   8.337  18.174  0.00  0.00    +0.000 C 
ATOM      3  C   UNL     1       8.622   9.360  17.661  0.00  0.00    +0.000 C 
BRANCH   3   4
ATOM      4  C   UNL     1       8.976  10.549  18.453  0.00  0.00    +0.000 A 
ATOM      5  C   UNL     1       8.853  11.847  17.933  0.00  0.00    +0.000 A 
ATOM      6  C   UNL     1       9.197  12.962  18.699  0.00  0.00    +0.000 A 
ATOM      7  C   UNL     1       9.651  12.794  20.003  0.00  0.00    +0.000 A 
ATOM      8  C   UNL     1       9.751  11.514  20.544  0.00  0.00    +0.000 A 
ATOM      9  C   UNL     1       9.409  10.397  19.775  0.00  0.00    +0.000 A 
ENDBRANCH   3   4
ENDBRANCH   1   2
BRANCH   1  10
ATOM     10  C   UNL     1       6.179   7.244  16.685  0.00  0.00    +0.000 C 
BRANCH  10  13
ATOM     11  C   UNL     1       3.841   7.280  17.487  0.00  0.00    +0.000 C 
ATOM     12  O   UNL     1       3.560   6.279  16.837  0.00  0.00    +0.000 OA
ATOM     13  N   UNL     1       5.108   7.819  17.490  0.00  0.00    +0.000 N 
ATOM     14  H   UNL     1       5.304   8.702  17.934  0.00  0.00    +0.000 HD
BRANCH  11  18
ATOM     15  C   UNL     1       0.838   9.119  19.989  0.00  0.00    +0.000 A 
ATOM     16  C   UNL     1       1.489   7.942  20.375  0.00  0.00    +0.000 A 
ATOM     17  C   UNL     1       2.453   7.365  19.543  0.00  0.00    +0.000 A 
ATOM     18  C   UNL     1       2.788   7.953  18.313  0.00  0.00    +0.000 A 
ATOM     19  C   UNL     1       2.138   9.135  17.931  0.00  0.00    +0.000 A 
ATOM     20  C   UNL     1       1.166   9.711  18.762  0.00  0.00    +0.000 A 
BRANCH  15  21
ATOM     21  C   UNL     1      -0.177   9.699  20.912  0.00  0.00    +0.000 C 
ATOM     22  O   UNL     1      -0.729  10.770  20.719  0.00  0.00    +0.000 OA
BRANCH  21  24
ATOM     23  C   UNL     1      -0.186   9.503  23.240  0.00  0.00    +0.000 C 
ATOM     24  O   UNL     1      -0.385   8.876  21.971  0.00  0.00    +0.000 OA
ENDBRANCH  21  24
ENDBRANCH  15  21
ENDBRANCH  11  18
ENDBRANCH  10  13
ENDBRANCH   1  10
BRANCH   1  25
ATOM     25  O   UNL     1       7.526   5.949  18.361  0.00  0.00    +0.000 OA
BRANCH  25  26
ATOM     26  C   UNL     1       7.262   4.715  17.873  0.00  0.00    +0.000 C 
ATOM     27  O   UNL     1       8.030   4.013  17.236  0.00  0.00    +0.000 OA
BRANCH  26  28
ATOM     28  C   UNL     1       5.885   4.268  18.202  0.00  0.00    +0.000 A 
ATOM     29  C   UNL     1       5.202   3.541  17.217  0.00  0.00    +0.000 A 
ATOM     30  C   UNL     1       3.902   3.087  17.440  0.00  0.00    +0.000 A 
ATOM     31  C   UNL     1       3.259   3.355  18.653  0.00  0.00    +0.000 A 
ATOM     32  C   UNL     1       3.938   4.080  19.645  0.00  0.00    +0.000 A 
ATOM     33  C   UNL     1       5.249   4.536  19.422  0.00  0.00    +0.000 A 
BRANCH  31  34
ATOM     34  C   UNL     1       1.870   2.843  18.820  0.00  0.00    +0.000 C 
ATOM     35  O   UNL     1       0.955   3.123  18.061  0.00  0.00    +0.000 OA
BRANCH  34  36
ATOM     36  O   UNL     1       1.779   2.045  19.913  0.00  0.00    +0.000 OA
ATOM     37  C   UNL     1       1.520   2.763  21.122  0.00  0.00    +0.000 C 
ENDBRANCH  34  36
ENDBRANCH  31  34
ENDBRANCH  26  28
ENDBRANCH  25  26
ENDBRANCH   1  25
TORSDOF 12
ENDMDL
MODEL 3
REMARK VINA RESULT:      -7.9      1.058      1.770
REMARK  Name = 
REMARK  14 active torsions:
REMARK  status: ('A' for Active; 'I' for Inactive)
REMARK    1  A    between atoms: C_1  and  O_2
REMARK    2  A    between atoms: O_2  and  C_3
REMARK    3  A    between atoms: C_3  and  C_5
REMARK    4  A    between atoms: C_8  and  C_9
REMARK    5  A    between atoms: N_11  and  C_12
REMARK    6  A    between atoms: C_12  and  C_13
REMARK    7  A    between atoms: C_13  and  C_14
REMARK    8  A    between atoms: C_13  and  O_22
REMARK    9  A    between atoms: C_15  and  C_16
REMARK   10  A    between atoms: O_22  and  C_23
REMARK   11  A    between atoms: C_23  and  C_25
REMARK   12  A    between atoms: C_28  and  C_29
REMARK   13  A    between atoms: C_29  and  O_31
REMARK   14  A    between atoms: O_31  and  C_32
REMARK                            x       y       z     vdW  Elec       q    Type
REMARK                         _______ _______ _______ _____ _____    ______ ____
ROOT
ATOM      1  C   UNL     1       1.053   9.631  20.109  0.00  0.00    +0.000 C 
ENDROOT
BRANCH   1   2
ATOM      2  C   UNL     1      -0.291   9.810  19.444  0.00  0.00    +0.000 C 
ATOM      3  C   UNL     1      -0.660  10.855  18.685  0.00  0.00    +0.000 C 
BRANCH   3   4
ATOM      4  C   UNL     1      -2.000  10.958  18.083  0.00  0.00    +0.000 A 
ATOM      5  C   UNL     1      -3.031  11.685  18.697  0.00  0.00    +0.000 A 
ATOM      6  C   UNL     1      -4.296  11.768  18.113  0.00  0.00    +0.000 A 
ATOM      7  C   UNL     1      -4.541  11.140  16.896  0.00  0.00    +0.000 A 
ATOM      8  C   UNL     1      -3.519  10.438  16.260  0.00  0.00    +0.000 A 
ATOM      9  C   UNL     1      -2.253  10.353  16.847  0.00  0.00    +0.000 A 
ENDBRANCH   3   4
ENDBRANCH   1   2
BRANCH   1  10
ATOM     10  C   UNL     1       1.470   8.137  20.178  0.00  0.00    +0.000 C 
BRANCH  10  13
ATOM     11  C   UNL     1       2.932   6.468  19.088  0.00  0.00    +0.000 C 
ATOM     12  O   UNL     1       2.779   5.673  20.010  0.00  0.00    +0.000 OA
ATOM     13  N   UNL     1       2.314   7.699  19.074  0.00  0.00    +0.000 N 
ATOM     14  H   UNL     1       2.532   8.389  18.372  0.00  0.00    +0.000 HD
BRANCH  11  18
ATOM     15  C   UNL     1       5.434   5.276  15.774  0.00  0.00    +0.000 A 
ATOM     16  C   UNL     1       4.849   4.332  16.625  0.00  0.00    +0.000 A 
ATOM     17  C   UNL     1       4.049   4.746  17.694  0.00  0.00    +0.000 A 
ATOM     18  C   UNL     1       3.813   6.109  17.931  0.00  0.00    +0.000 A 
ATOM     19  C   UNL     1       4.395   7.053  17.075  0.00  0.00    +0.000 A 
ATOM     20  C   UNL     1       5.204   6.639  16.006  0.00  0.00    +0.000 A 
BRANCH  15  21
ATOM     21  C   UNL     1       6.273   4.787  14.646  0.00  0.00    +0.000 C 
ATOM     22  O   UNL     1       7.468   5.012  14.549  0.00  0.00    +0.000 OA
BRANCH  21  24
ATOM     23  C   UNL     1       6.277   3.495  12.700  0.00  0.00    +0.000 C 
ATOM     24  O   UNL     1       5.525   4.072  13.769  0.00  0.00    +0.000 OA
ENDBRANCH  21  24
ENDBRANCH  15  21
ENDBRANCH  11  18
ENDBRANCH  10  13
ENDBRANCH   1  10
BRANCH   1  25
ATOM     25  O   UNL     1       1.048  10.281  21.412  0.00  0.00    +0.000 OA
BRANCH  25  26
ATOM     26  C   UNL     1      -0.035  10.125  22.209  0.00  0.00    +0.000 C 
ATOM     27  O   UNL     1      -0.420   9.079  22.705  0.00  0.00    +0.000 OA
BRANCH  26  28
ATOM     28  C   UNL     1      -0.746  11.408  22.439  0.00  0.00    +0.000 A 
ATOM     29  C   UNL     1      -1.926  11.352  23.194  0.00  0.00    +0.000 A 
ATOM     30  C   UNL     1      -2.661  12.510  23.454  0.00  0.00    +0.000 A 
ATOM     31  C   UNL     1      -2.230  13.745  22.959  0.00  0.00    +0.000 A 
ATOM     32  C   UNL     1      -1.048  13.809  22.204  0.00  0.00    +0.000 A 
ATOM     33  C   UNL     1      -0.306  12.643  21.944  0.00  0.00    +0.000 A 
BRANCH  31  34
ATOM     34  C   UNL     1      -3.066  14.938  23.271  0.00  0.00    +0.000 C 
ATOM     35  O   UNL     1      -2.659  16.086  23.182  0.00  0.00    +0.000 OA
BRANCH  34  36
ATOM     36  O   UNL     1      -4.310  14.564  23.662  0.00  0.00    +0.000 OA
ATOM     37  C   UNL     1      -5.353  15.317  23.039  0.00  0.00    +0.000 C 
ENDBRANCH  34  36
ENDBRANCH  31  34
ENDBRANCH  26  28
ENDBRANCH  25  26
ENDBRANCH   1  25
TORSDOF 12
ENDMDL
MODEL 4
REMARK VINA RESULT:      -7.8      1.006      1.689
REMARK  Name = 
REMARK  14 active torsions:
REMARK  status: ('A' for Active; 'I' for Inactive)
REMARK    1  A    between atoms: C_1  and  O_2
REMARK    2  A    between atoms: O_2  and  C_3
REMARK    3  A    between atoms: C_3  and  C_5
REMARK    4  A    between atoms: C_8  and  C_9
REMARK    5  A    between atoms: N_11  and  C_12
REMARK    6  A    between atoms: C_12  and  C_13
REMARK    7  A    between atoms: C_13  and  C_14
REMARK    8  A    between atoms: C_13  and  O_22
REMARK    9  A    between atoms: C_15  and  C_16
REMARK   10  A    between atoms: O_22  and  C_23
REMARK   11  A    between atoms: C_23  and  C_25
REMARK   12  A    between atoms: C_28  and  C_29
REMARK   13  A    between atoms: C_29  and  O_31
REMARK   14  A    between atoms: O_31  and  C_32
REMARK                            x       y       z     vdW  Elec       q    Type
REMARK                         _______ _______ _______ _____ _____    ______ ____
ROOT
ATOM      1  C   UNL     1       0.696  10.020  19.935  0.00  0.00    +0.000 C 
ENDROOT
BRANCH   1   2
ATOM      2  C   UNL     1      -0.236  10.232  18.766  0.00  0.00    +0.000 C 
ATOM      3  C   UNL     1      -1.578  10.162  18.807  0.00  0.00    +0.000 C 
BRANCH   3   4
ATOM      4  C   UNL     1      -2.414  10.368  17.613  0.00  0.00    +0.000 A 
ATOM      5  C   UNL     1      -3.534  11.212  17.633  0.00  0.00    +0.000 A 
ATOM      6  C   UNL     1      -4.317  11.392  16.492  0.00  0.00    +0.000 A 
ATOM      7  C   UNL     1      -3.978  10.745  15.308  0.00  0.00    +0.000 A 
ATOM      8  C   UNL     1      -2.851   9.925  15.264  0.00  0.00    +0.000 A 
ATOM      9  C   UNL     1      -2.069   9.742  16.409  0.00  0.00    +0.000 A 
ENDBRANCH   3   4
ENDBRANCH   1   2
BRANCH   1  10
ATOM     10  C   UNL     1       1.072   8.524  20.111  0.00  0.00    +0.000 C 
BRANCH  10  13
ATOM     11  C   UNL     1       2.549   6.751  19.223  0.00  0.00    +0.000 C 
ATOM     12  O   UNL     1       2.035   5.904  19.947  0.00  0.00    +0.000 OA
ATOM     13  N   UNL     1       2.131   8.063  19.221  0.00  0.00    +0.000 N 
ATOM     14  H   UNL     1       2.629   8.774  18.709  0.00  0.00    +0.000 HD
BRANCH  11  18
ATOM     15  C   UNL     1       5.768   5.494  16.631  0.00  0.00    +0.000 A 
ATOM     16  C   UNL     1       5.269   4.657  17.634  0.00  0.00    +0.000 A 
ATOM     17  C   UNL     1       4.230   5.091  18.463  0.00  0.00    +0.000 A 
ATOM     18  C   UNL     1       3.667   6.367  18.304  0.00  0.00    +0.000 A 
ATOM     19  C   UNL     1       4.166   7.202  17.294  0.00  0.00    +0.000 A 
ATOM     20  C   UNL     1       5.212   6.770  16.467  0.00  0.00    +0.000 A 
BRANCH  15  21
ATOM     21  C   UNL     1       6.870   4.984  15.769  0.00  0.00    +0.000 C 
ATOM     22  O   UNL     1       7.900   4.501  16.210  0.00  0.00    +0.000 OA
BRANCH  21  24
ATOM     23  C   UNL     1       6.055   3.950  13.840  0.00  0.00    +0.000 C 
ATOM     24  O   UNL     1       6.560   5.136  14.457  0.00  0.00    +0.000 OA
ENDBRANCH  21  24
ENDBRANCH  15  21
ENDBRANCH  11  18
ENDBRANCH  10  13
ENDBRANCH   1  10
BRANCH   1  25
ATOM     25  O   UNL     1       0.120  10.606  21.137  0.00  0.00    +0.000 OA
BRANCH  25  26
ATOM     26  C   UNL     1       0.322  11.922  21.377  0.00  0.00    +0.000 C 
ATOM     27  O   UNL     1       1.397  12.501  21.360  0.00  0.00    +0.000 OA
BRANCH  26  28
ATOM     28  C   UNL     1      -0.945  12.635  21.676  0.00  0.00    +0.000 A 
ATOM     29  C   UNL     1      -1.270  12.811  23.029  0.00  0.00    +0.000 A 
ATOM     30  C   UNL     1      -2.445  13.466  23.400  0.00  0.00    +0.000 A 
ATOM     31  C   UNL     1      -3.319  13.955  22.423  0.00  0.00    +0.000 A 
ATOM     32  C   UNL     1      -2.999  13.784  21.067  0.00  0.00    +0.000 A 
ATOM     33  C   UNL     1      -1.813  13.126  20.693  0.00  0.00    +0.000 A 
BRANCH  31  34
ATOM     34  C   UNL     1      -4.556  14.639  22.891  0.00  0.00    +0.000 C 
ATOM     35  O   UNL     1      -5.637  14.079  22.990  0.00  0.00    +0.000 OA
BRANCH  34  36
ATOM     36  O   UNL     1      -4.307  15.941  23.179  0.00  0.00    +0.000 OA
ATOM     37  C   UNL     1      -4.730  16.326  24.489  0.00  0.00    +0.000 C 
ENDBRANCH  34  36
ENDBRANCH  31  34
ENDBRANCH  26  28
ENDBRANCH  25  26
ENDBRANCH   1  25
TORSDOF 12
ENDMDL
MODEL 5
REMARK VINA RESULT:      -7.7      1.278      1.579
REMARK  Name = 
REMARK  14 active torsions:
REMARK  status: ('A' for Active; 'I' for Inactive)
REMARK    1  A    between atoms: C_1  and  O_2
REMARK    2  A    between atoms: O_2  and  C_3
REMARK    3  A    between atoms: C_3  and  C_5
REMARK    4  A    between atoms: C_8  and  C_9
REMARK    5  A    between atoms: N_11  and  C_12
REMARK    6  A    between atoms: C_12  and  C_13
REMARK    7  A    between atoms: C_13  and  C_14
REMARK    8  A    between atoms: C_13  and  O_22
REMARK    9  A    between atoms: C_15  and  C_16
REMARK   10  A    between atoms: O_22  and  C_23
REMARK   11  A    between atoms: C_23  and  C_25
REMARK   12  A    between atoms: C_28  and  C_29
REMARK   13  A    between atoms: C_29  and  O_31
REMARK   14  A    between atoms: O_31  and  C_32
REMARK                            x       y       z     vdW  Elec       q    Type
REMARK                         _______ _______ _______ _____ _____    ______ ____
ROOT
ATOM      1  C   UNL     1       0.817  10.273  20.357  0.00  0.00    +0.000 C 
ENDROOT
BRANCH   1   2
ATOM      2  C   UNL     1      -0.318  10.684  19.450  0.00  0.00    +0.000 C 
ATOM      3  C   UNL     1      -1.126   9.850  18.773  0.00  0.00    +0.000 C 
BRANCH   3   4
ATOM      4  C   UNL     1      -2.203  10.337  17.896  0.00  0.00    +0.000 A 
ATOM      5  C   UNL     1      -2.268   9.981  16.540  0.00  0.00    +0.000 A 
ATOM      6  C   UNL     1      -3.295  10.455  15.723  0.00  0.00    +0.000 A 
ATOM      7  C   UNL     1      -4.283  11.276  16.256  0.00  0.00    +0.000 A 
ATOM      8  C   UNL     1      -4.249  11.615  17.607  0.00  0.00    +0.000 A 
ATOM      9  C   UNL     1      -3.218  11.143  18.425  0.00  0.00    +0.000 A 
ENDBRANCH   3   4
ENDBRANCH   1   2
BRANCH   1  10
ATOM     10  C   UNL     1       0.943   8.729  20.462  0.00  0.00    +0.000 C 
BRANCH  10  13
ATOM     11  C   UNL     1       2.338   6.826  19.723  0.00  0.00    +0.000 C 
ATOM     12  O   UNL     1       1.769   6.058  20.492  0.00  0.00    +0.000 OA
ATOM     13  N   UNL     1       1.989   8.155  19.625  0.00  0.00    +0.000 N 
ATOM     14  H   UNL     1       2.533   8.802  19.076  0.00  0.00    +0.000 HD
BRANCH  11  18
ATOM     15  C   UNL     1       5.537   5.515  17.134  0.00  0.00    +0.000 A 
ATOM     16  C   UNL     1       4.849   6.710  16.897  0.00  0.00    +0.000 A 
ATOM     17  C   UNL     1       3.812   7.107  17.748  0.00  0.00    +0.000 A 
ATOM     18  C   UNL     1       3.448   6.323  18.853  0.00  0.00    +0.000 A 
ATOM     19  C   UNL     1       4.143   5.129  19.092  0.00  0.00    +0.000 A 
ATOM     20  C   UNL     1       5.178   4.726  18.235  0.00  0.00    +0.000 A 
BRANCH  15  21
ATOM     21  C   UNL     1       6.637   5.138  16.203  0.00  0.00    +0.000 C 
ATOM     22  O   UNL     1       7.703   4.675  16.574  0.00  0.00    +0.000 OA
BRANCH  21  24
ATOM     23  C   UNL     1       5.658   4.271  14.267  0.00  0.00    +0.000 C 
ATOM     24  O   UNL     1       6.279   5.382  14.918  0.00  0.00    +0.000 OA
ENDBRANCH  21  24
ENDBRANCH  15  21
ENDBRANCH  11  18
ENDBRANCH  10  13
ENDBRANCH   1  10
BRANCH   1  25
ATOM     25  O   UNL     1       0.672  10.920  21.653  0.00  0.00    +0.000 OA
BRANCH  25  26
ATOM     26  C   UNL     1      -0.413  10.626  22.406  0.00  0.00    +0.000 C 
ATOM     27  O   UNL     1      -0.752   9.514  22.779  0.00  0.00    +0.000 OA
BRANCH  26  28
ATOM     28  C   UNL     1      -1.193  11.839  22.758  0.00  0.00    +0.000 A 
ATOM     29  C   UNL     1      -2.440  11.638  23.366  0.00  0.00    +0.000 A 
ATOM     30  C   UNL     1      -3.241  12.722  23.726  0.00  0.00    +0.000 A 
ATOM     31  C   UNL     1      -2.810  14.030  23.480  0.00  0.00    +0.000 A 
ATOM     32  C   UNL     1      -1.561  14.240  22.874  0.00  0.00    +0.000 A 
ATOM     33  C   UNL     1      -0.752  13.147  22.514  0.00  0.00    +0.000 A 
BRANCH  31  34
ATOM     34  C   UNL     1      -3.719  15.138  23.886  0.00  0.00    +0.000 C 
ATOM     35  O   UNL     1      -3.325  16.181  24.387  0.00  0.00    +0.000 OA
BRANCH  34  36
ATOM     36  O   UNL     1      -5.011  14.821  23.626  0.00  0.00    +0.000 OA
ATOM     37  C   UNL     1      -5.588  15.598  22.574  0.00  0.00    +0.000 C 
ENDBRANCH  34  36
ENDBRANCH  31  34
ENDBRANCH  26  28
ENDBRANCH  25  26
ENDBRANCH   1  25
TORSDOF 12
ENDMDL
MODEL 6
REMARK VINA RESULT:      -7.5      3.657     10.246
REMARK  Name = 
REMARK  14 active torsions:
REMARK  status: ('A' for Active; 'I' for Inactive)
REMARK    1  A    between atoms: C_1  and  O_2
REMARK    2  A    between atoms: O_2  and  C_3
REMARK    3  A    between atoms: C_3  and  C_5
REMARK    4  A    between atoms: C_8  and  C_9
REMARK    5  A    between atoms: N_11  and  C_12
REMARK    6  A    between atoms: C_12  and  C_13
REMARK    7  A    between atoms: C_13  and  C_14
REMARK    8  A    between atoms: C_13  and  O_22
REMARK    9  A    between atoms: C_15  and  C_16
REMARK   10  A    between atoms: O_22  and  C_23
REMARK   11  A    between atoms: C_23  and  C_25
REMARK   12  A    between atoms: C_28  and  C_29
REMARK   13  A    between atoms: C_29  and  O_31
REMARK   14  A    between atoms: O_31  and  C_32
REMARK                            x       y       z     vdW  Elec       q    Type
REMARK                         _______ _______ _______ _____ _____    ______ ____
ROOT
ATOM      1  C   UNL     1       7.068   7.059  17.154  0.00  0.00    +0.000 C 
ENDROOT
BRANCH   1   2
ATOM      2  C   UNL     1       7.527   8.448  17.528  0.00  0.00    +0.000 C 
ATOM      3  C   UNL     1       8.541   8.745  18.359  0.00  0.00    +0.000 C 
BRANCH   3   4
ATOM      4  C   UNL     1       8.914  10.131  18.682  0.00  0.00    +0.000 A 
ATOM      5  C   UNL     1       9.593  10.456  19.866  0.00  0.00    +0.000 A 
ATOM      6  C   UNL     1       9.936  11.777  20.157  0.00  0.00    +0.000 A 
ATOM      7  C   UNL     1       9.621  12.790  19.257  0.00  0.00    +0.000 A 
ATOM      8  C   UNL     1       8.971  12.480  18.063  0.00  0.00    +0.000 A 
ATOM      9  C   UNL     1       8.625  11.157  17.774  0.00  0.00    +0.000 A 
ENDBRANCH   3   4
ENDBRANCH   1   2
BRANCH   1  10
ATOM     10  C   UNL     1       5.606   7.054  16.631  0.00  0.00    +0.000 C 
BRANCH  10  13
ATOM     11  C   UNL     1       3.405   7.451  17.683  0.00  0.00    +0.000 C 
ATOM     12  O   UNL     1       2.985   6.359  17.312  0.00  0.00    +0.000 OA
ATOM     13  N   UNL     1       4.687   7.873  17.411  0.00  0.00    +0.000 N 
ATOM     14  H   UNL     1       4.988   8.812  17.620  0.00  0.00    +0.000 HD
BRANCH  11  18
ATOM     15  C   UNL     1       0.834  10.201  19.801  0.00  0.00    +0.000 A 
ATOM     16  C   UNL     1       1.456  10.560  18.600  0.00  0.00    +0.000 A 
ATOM     17  C   UNL     1       2.288   9.652  17.938  0.00  0.00    +0.000 A 
ATOM     18  C   UNL     1       2.511   8.368  18.460  0.00  0.00    +0.000 A 
ATOM     19  C   UNL     1       1.883   8.009  19.660  0.00  0.00    +0.000 A 
ATOM     20  C   UNL     1       1.054   8.922  20.328  0.00  0.00    +0.000 A 
BRANCH  15  21
ATOM     21  C   UNL     1      -0.048  11.200  20.465  0.00  0.00    +0.000 C 
ATOM     22  O   UNL     1       0.369  12.090  21.189  0.00  0.00    +0.000 OA
BRANCH  21  24
ATOM     23  C   UNL     1      -1.849  11.825  19.116  0.00  0.00    +0.000 C 
ATOM     24  O   UNL     1      -1.347  10.975  20.149  0.00  0.00    +0.000 OA
ENDBRANCH  21  24
ENDBRANCH  15  21
ENDBRANCH  11  18
ENDBRANCH  10  13
ENDBRANCH   1  10
BRANCH   1  25
ATOM     25  O   UNL     1       7.272   6.153  18.276  0.00  0.00    +0.000 OA
BRANCH  25  26
ATOM     26  C   UNL     1       7.155   4.822  18.064  0.00  0.00    +0.000 C 
ATOM     27  O   UNL     1       8.038   4.072  17.682  0.00  0.00    +0.000 OA
BRANCH  26  28
ATOM     28  C   UNL     1       5.785   4.331  18.356  0.00  0.00    +0.000 A 
ATOM     29  C   UNL     1       5.180   3.522  17.382  0.00  0.00    +0.000 A 
ATOM     30  C   UNL     1       3.892   3.021  17.572  0.00  0.00    +0.000 A 
ATOM     31  C   UNL     1       3.182   3.322  18.739  0.00  0.00    +0.000 A 
ATOM     32  C   UNL     1       3.782   4.129  19.719  0.00  0.00    +0.000 A 
ATOM     33  C   UNL     1       5.081   4.632  19.529  0.00  0.00    +0.000 A 
BRANCH  31  34
ATOM     34  C   UNL     1       1.811   2.757  18.872  0.00  0.00    +0.000 C 
ATOM     35  O   UNL     1       0.933   2.920  18.038  0.00  0.00    +0.000 OA
BRANCH  34  36
ATOM     36  O   UNL     1       1.688   2.057  20.027  0.00  0.00    +0.000 OA
ATOM     37  C   UNL     1       1.236   2.849  21.128  0.00  0.00    +0.000 C 
ENDBRANCH  34  36
ENDBRANCH  31  34
ENDBRANCH  26  28
ENDBRANCH  25  26
ENDBRANCH   1  25
TORSDOF 12
ENDMDL
MODEL 7
REMARK VINA RESULT:      -7.5      2.651      3.664
REMARK  Name = 
REMARK  14 active torsions:
REMARK  status: ('A' for Active; 'I' for Inactive)
REMARK    1  A    between atoms: C_1  and  O_2
REMARK    2  A    between atoms: O_2  and  C_3
REMARK    3  A    between atoms: C_3  and  C_5
REMARK    4  A    between atoms: C_8  and  C_9
REMARK    5  A    between atoms: N_11  and  C_12
REMARK    6  A    between atoms: C_12  and  C_13
REMARK    7  A    between atoms: C_13  and  C_14
REMARK    8  A    between atoms: C_13  and  O_22
REMARK    9  A    between atoms: C_15  and  C_16
REMARK   10  A    between atoms: O_22  and  C_23
REMARK   11  A    between atoms: C_23  and  C_25
REMARK   12  A    between atoms: C_28  and  C_29
REMARK   13  A    between atoms: C_29  and  O_31
REMARK   14  A    between atoms: O_31  and  C_32
REMARK                            x       y       z     vdW  Elec       q    Type
REMARK                         _______ _______ _______ _____ _____    ______ ____
ROOT
ATOM      1  C   UNL     1       1.041  11.943  18.976  0.00  0.00    +0.000 C 
ENDROOT
BRANCH   1   2
ATOM      2  C   UNL     1      -0.414  12.139  18.624  0.00  0.00    +0.000 C 
ATOM      3  C   UNL     1      -1.367  11.193  18.664  0.00  0.00    +0.000 C 
BRANCH   3   4
ATOM      4  C   UNL     1      -2.764  11.465  18.289  0.00  0.00    +0.000 A 
ATOM      5  C   UNL     1      -3.270  11.123  17.026  0.00  0.00    +0.000 A 
ATOM      6  C   UNL     1      -4.596  11.393  16.687  0.00  0.00    +0.000 A 
ATOM      7  C   UNL     1      -5.442  11.990  17.616  0.00  0.00    +0.000 A 
ATOM      8  C   UNL     1      -4.963  12.310  18.885  0.00  0.00    +0.000 A 
ATOM      9  C   UNL     1      -3.633  12.043  19.223  0.00  0.00    +0.000 A 
ENDBRANCH   3   4
ENDBRANCH   1   2
BRANCH   1  10
ATOM     10  C   UNL     1       1.703  10.840  18.107  0.00  0.00    +0.000 C 
BRANCH  10  13
ATOM     11  C   UNL     1       2.318   8.445  18.108  0.00  0.00    +0.000 C 
ATOM     12  O   UNL     1       2.951   8.566  17.064  0.00  0.00    +0.000 OA
ATOM     13  N   UNL     1       1.684   9.512  18.707  0.00  0.00    +0.000 N 
ATOM     14  H   UNL     1       1.075   9.385  19.500  0.00  0.00    +0.000 HD
BRANCH  11  18
ATOM     15  C   UNL     1       1.982   4.656  20.153  0.00  0.00    +0.000 A 
ATOM     16  C   UNL     1       1.817   5.868  20.831  0.00  0.00    +0.000 A 
ATOM     17  C   UNL     1       1.938   7.081  20.146  0.00  0.00    +0.000 A 
ATOM     18  C   UNL     1       2.219   7.106  18.771  0.00  0.00    +0.000 A 
ATOM     19  C   UNL     1       2.379   5.890  18.093  0.00  0.00    +0.000 A 
ATOM     20  C   UNL     1       2.265   4.673  18.781  0.00  0.00    +0.000 A 
BRANCH  15  21
ATOM     21  C   UNL     1       1.839   3.391  20.925  0.00  0.00    +0.000 C 
ATOM     22  O   UNL     1       2.163   3.276  22.096  0.00  0.00    +0.000 OA
BRANCH  21  24
ATOM     23  C   UNL     1       2.265   1.748  19.320  0.00  0.00    +0.000 C 
ATOM     24  O   UNL     1       1.309   2.414  20.148  0.00  0.00    +0.000 OA
ENDBRANCH  21  24
ENDBRANCH  15  21
ENDBRANCH  11  18
ENDBRANCH  10  13
ENDBRANCH   1  10
BRANCH   1  25
ATOM     25  O   UNL     1       1.174  11.697  20.405  0.00  0.00    +0.000 OA
BRANCH  25  26
ATOM     26  C   UNL     1       0.953  12.720  21.262  0.00  0.00    +0.000 C 
ATOM     27  O   UNL     1       1.722  13.636  21.506  0.00  0.00    +0.000 OA
BRANCH  26  28
ATOM     28  C   UNL     1      -0.379  12.625  21.911  0.00  0.00    +0.000 A 
ATOM     29  C   UNL     1      -1.220  13.741  21.799  0.00  0.00    +0.000 A 
ATOM     30  C   UNL     1      -2.488  13.740  22.384  0.00  0.00    +0.000 A 
ATOM     31  C   UNL     1      -2.935  12.621  23.094  0.00  0.00    +0.000 A 
ATOM     32  C   UNL     1      -2.099  11.499  23.209  0.00  0.00    +0.000 A 
ATOM     33  C   UNL     1      -0.823  11.500  22.617  0.00  0.00    +0.000 A 
BRANCH  31  34
ATOM     34  C   UNL     1      -4.297  12.691  23.695  0.00  0.00    +0.000 C 
ATOM     35  O   UNL     1      -4.612  12.097  24.715  0.00  0.00    +0.000 OA
BRANCH  34  36
ATOM     36  O   UNL     1      -5.108  13.489  22.958  0.00  0.00    +0.000 OA
ATOM     37  C   UNL     1      -5.735  14.524  23.719  0.00  0.00    +0.000 C 
ENDBRANCH  34  36
ENDBRANCH  31  34
ENDBRANCH  26  28
ENDBRANCH  25  26
ENDBRANCH   1  25
TORSDOF 12
ENDMDL
MODEL 8
REMARK VINA RESULT:      -7.5      2.182      4.661
REMARK  Name = 
REMARK  14 active torsions:
REMARK  status: ('A' for Active; 'I' for Inactive)
REMARK    1  A    between atoms: C_1  and  O_2
REMARK    2  A    between atoms: O_2  and  C_3
REMARK    3  A    between atoms: C_3  and  C_5
REMARK    4  A    between atoms: C_8  and  C_9
REMARK    5  A    between atoms: N_11  and  C_12
REMARK    6  A    between atoms: C_12  and  C_13
REMARK    7  A    between atoms: C_13  and  C_14
REMARK    8  A    between atoms: C_13  and  O_22
REMARK    9  A    between atoms: C_15  and  C_16
REMARK   10  A    between atoms: O_22  and  C_23
REMARK   11  A    between atoms: C_23  and  C_25
REMARK   12  A    between atoms: C_28  and  C_29
REMARK   13  A    between atoms: C_29  and  O_31
REMARK   14  A    between atoms: O_31  and  C_32
REMARK                            x       y       z     vdW  Elec       q    Type
REMARK                         _______ _______ _______ _____ _____    ______ ____
ROOT
ATOM      1  C   UNL     1      -0.071  10.006  21.170  0.00  0.00    +0.000 C 
ENDROOT
BRANCH   1   2
ATOM      2  C   UNL     1      -0.547  11.048  22.153  0.00  0.00    +0.000 C 
ATOM      3  C   UNL     1      -1.709  11.720  22.087  0.00  0.00    +0.000 C 
BRANCH   3   4
ATOM      4  C   UNL     1      -2.091  12.734  23.082  0.00  0.00    +0.000 A 
ATOM      5  C   UNL     1      -3.344  12.716  23.712  0.00  0.00    +0.000 A 
ATOM      6  C   UNL     1      -3.690  13.688  24.651  0.00  0.00    +0.000 A 
ATOM      7  C   UNL     1      -2.777  14.682  24.989  0.00  0.00    +0.000 A 
ATOM      8  C   UNL     1      -1.517  14.698  24.394  0.00  0.00    +0.000 A 
ATOM      9  C   UNL     1      -1.173  13.725  23.450  0.00  0.00    +0.000 A 
ENDBRANCH   3   4
ENDBRANCH   1   2
BRANCH   1  10
ATOM     10  C   UNL     1       0.988   9.059  21.798  0.00  0.00    +0.000 C 
BRANCH  10  13
ATOM     11  C   UNL     1       1.773   7.130  20.467  0.00  0.00    +0.000 C 
ATOM     12  O   UNL     1       0.881   6.411  20.907  0.00  0.00    +0.000 OA
ATOM     13  N   UNL     1       1.896   8.452  20.834  0.00  0.00    +0.000 N 
ATOM     14  H   UNL     1       2.693   9.003  20.557  0.00  0.00    +0.000 HD
BRANCH  11  18
ATOM     15  C   UNL     1       4.632   5.657  17.583  0.00  0.00    +0.000 A 
ATOM     16  C   UNL     1       3.904   6.830  17.356  0.00  0.00    +0.000 A 
ATOM     17  C   UNL     1       2.980   7.280  18.304  0.00  0.00    +0.000 A 
ATOM     18  C   UNL     1       2.770   6.573  19.497  0.00  0.00    +0.000 A 
ATOM     19  C   UNL     1       3.505   5.401  19.725  0.00  0.00    +0.000 A 
ATOM     20  C   UNL     1       4.426   4.944  18.772  0.00  0.00    +0.000 A 
BRANCH  15  21
ATOM     21  C   UNL     1       5.609   5.221  16.547  0.00  0.00    +0.000 C 
ATOM     22  O   UNL     1       5.668   4.081  16.115  0.00  0.00    +0.000 OA
BRANCH  21  24
ATOM     23  C   UNL     1       7.404   6.598  17.127  0.00  0.00    +0.000 C 
ATOM     24  O   UNL     1       6.399   6.257  16.170  0.00  0.00    +0.000 OA
ENDBRANCH  21  24
ENDBRANCH  15  21
ENDBRANCH  11  18
ENDBRANCH  10  13
ENDBRANCH   1  10
BRANCH   1  25
ATOM     25  O   UNL     1       0.397  10.654  19.953  0.00  0.00    +0.000 OA
BRANCH  25  26
ATOM     26  C   UNL     1      -0.068  10.210  18.763  0.00  0.00    +0.000 C 
ATOM     27  O   UNL     1       0.550   9.540  17.951  0.00  0.00    +0.000 OA
BRANCH  26  28
ATOM     28  C   UNL     1      -1.471  10.632  18.521  0.00  0.00    +0.000 A 
ATOM     29  C   UNL     1      -2.305   9.715  17.865  0.00  0.00    +0.000 A 
ATOM     30  C   UNL     1      -3.636  10.031  17.593  0.00  0.00    +0.000 A 
ATOM     31  C   UNL     1      -4.158  11.273  17.969  0.00  0.00    +0.000 A 
ATOM     32  C   UNL     1      -3.329  12.195  18.628  0.00  0.00    +0.000 A 
ATOM     33  C   UNL     1      -1.988  11.876  18.905  0.00  0.00    +0.000 A 
BRANCH  31  34
ATOM     34  C   UNL     1      -5.586  11.544  17.642  0.00  0.00    +0.000 C 
ATOM     35  O   UNL     1      -5.948  12.467  16.929  0.00  0.00    +0.000 OA
BRANCH  34  36
ATOM     36  O   UNL     1      -6.397  10.639  18.243  0.00  0.00    +0.000 OA
ATOM     37  C   UNL     1      -6.911  11.081  19.502  0.00  0.00    +0.000 C 
ENDBRANCH  34  36
ENDBRANCH  31  34
ENDBRANCH  26  28
ENDBRANCH  25  26
ENDBRANCH   1  25
TORSDOF 12
ENDMDL
MODEL 9
REMARK VINA RESULT:      -7.4      3.074      9.295
REMARK  Name = 
REMARK  14 active torsions:
REMARK  status: ('A' for Active; 'I' for Inactive)
REMARK    1  A    between atoms: C_1  and  O_2
REMARK    2  A    between atoms: O_2  and  C_3
REMARK    3  A    between atoms: C_3  and  C_5
REMARK    4  A    between atoms: C_8  and  C_9
REMARK    5  A    between atoms: N_11  and  C_12
REMARK    6  A    between atoms: C_12  and  C_13
REMARK    7  A    between atoms: C_13  and  C_14
REMARK    8  A    between atoms: C_13  and  O_22
REMARK    9  A    between atoms: C_15  and  C_16
REMARK   10  A    between atoms: O_22  and  C_23
REMARK   11  A    between atoms: C_23  and  C_25
REMARK   12  A    between atoms: C_28  and  C_29
REMARK   13  A    between atoms: C_29  and  O_31
REMARK   14  A    between atoms: O_31  and  C_32
REMARK                            x       y       z     vdW  Elec       q    Type
REMARK                         _______ _______ _______ _____ _____    ______ ____
ROOT
ATOM      1  C   UNL     1       1.318   9.376  19.695  0.00  0.00    +0.000 C 
ENDROOT
BRANCH   1   2
ATOM      2  C   UNL     1       1.959   8.047  19.374  0.00  0.00    +0.000 C 
ATOM      3  C   UNL     1       2.358   7.639  18.158  0.00  0.00    +0.000 C 
BRANCH   3   4
ATOM      4  C   UNL     1       2.964   6.318  17.929  0.00  0.00    +0.000 A 
ATOM      5  C   UNL     1       4.345   6.161  17.737  0.00  0.00    +0.000 A 
ATOM      6  C   UNL     1       4.900   4.900  17.518  0.00  0.00    +0.000 A 
ATOM      7  C   UNL     1       4.083   3.774  17.509  0.00  0.00    +0.000 A 
ATOM      8  C   UNL     1       2.713   3.909  17.727  0.00  0.00    +0.000 A 
ATOM      9  C   UNL     1       2.157   5.174  17.943  0.00  0.00    +0.000 A 
ENDBRANCH   3   4
ENDBRANCH   1   2
BRANCH   1  10
ATOM     10  C   UNL     1       0.839   9.446  21.170  0.00  0.00    +0.000 C 
BRANCH  10  13
ATOM     11  C   UNL     1      -0.583  10.758  22.710  0.00  0.00    +0.000 C 
ATOM     12  O   UNL     1      -0.437   9.936  23.609  0.00  0.00    +0.000 OA
ATOM     13  N   UNL     1       0.020  10.611  21.480  0.00  0.00    +0.000 N 
ATOM     14  H   UNL     1      -0.193  11.228  20.713  0.00  0.00    +0.000 HD
BRANCH  11  18
ATOM     15  C   UNL     1      -2.940  14.332  23.279  0.00  0.00    +0.000 A 
ATOM     16  C   UNL     1      -1.657  14.384  22.724  0.00  0.00    +0.000 A 
ATOM     17  C   UNL     1      -0.913  13.212  22.557  0.00  0.00    +0.000 A 
ATOM     18  C   UNL     1      -1.438  11.966  22.936  0.00  0.00    +0.000 A 
ATOM     19  C   UNL     1      -2.725  11.916  23.487  0.00  0.00    +0.000 A 
ATOM     20  C   UNL     1      -3.469  13.092  23.662  0.00  0.00    +0.000 A 
BRANCH  15  21
ATOM     21  C   UNL     1      -3.696  15.606  23.432  0.00  0.00    +0.000 C 
ATOM     22  O   UNL     1      -4.063  16.288  22.489  0.00  0.00    +0.000 OA
BRANCH  21  24
ATOM     23  C   UNL     1      -2.920  16.745  25.318  0.00  0.00    +0.000 C 
ATOM     24  O   UNL     1      -3.905  15.883  24.743  0.00  0.00    +0.000 OA
ENDBRANCH  21  24
ENDBRANCH  15  21
ENDBRANCH  11  18
ENDBRANCH  10  13
ENDBRANCH   1  10
BRANCH   1  25
ATOM     25  O   UNL     1       0.255   9.653  18.739  0.00  0.00    +0.000 OA
BRANCH  25  26
ATOM     26  C   UNL     1      -0.167  10.930  18.592  0.00  0.00    +0.000 C 
ATOM     27  O   UNL     1       0.541  11.925  18.566  0.00  0.00    +0.000 OA
BRANCH  26  28
ATOM     28  C   UNL     1      -1.642  11.019  18.456  0.00  0.00    +0.000 A 
ATOM     29  C   UNL     1      -2.294  11.987  19.233  0.00  0.00    +0.000 A 
ATOM     30  C   UNL     1      -3.680  12.135  19.172  0.00  0.00    +0.000 A 
ATOM     31  C   UNL     1      -4.441  11.314  18.332  0.00  0.00    +0.000 A 
ATOM     32  C   UNL     1      -3.795  10.344  17.550  0.00  0.00    +0.000 A 
ATOM     33  C   UNL     1      -2.398  10.196  17.610  0.00  0.00    +0.000 A 
BRANCH  31  34
ATOM     34  C   UNL     1      -5.916  11.525  18.321  0.00  0.00    +0.000 C 
ATOM     35  O   UNL     1      -6.725  10.610  18.342  0.00  0.00    +0.000 OA
BRANCH  34  36
ATOM     36  O   UNL     1      -6.212  12.847  18.280  0.00  0.00    +0.000 OA
ATOM     37  C   UNL     1      -6.635  13.297  16.991  0.00  0.00    +0.000 C 
ENDBRANCH  34  36
ENDBRANCH  31  34
ENDBRANCH  26  28
ENDBRANCH  25  26
ENDBRANCH   1  25
TORSDOF 12
ENDMDL
