MODEL 1
REMARK VINA RESULT:      -8.5      0.000      0.000
REMARK  Name = 
REMARK  7 active torsions:
REMARK  status: ('A' for Active; 'I' for Inactive)
REMARK    1  A    between atoms: C_2  and  C_3
REMARK    2  A    between atoms: C_2  and  C_9
REMARK    3  A    between atoms: C_9  and  C_10
REMARK    4  A    between atoms: C_9  and  C_18
REMARK    5  A    between atoms: C_10  and  C_12
REMARK    6  A    between atoms: C_18  and  C_19
REMARK    7  A    between atoms: C_18  and  C_25
REMARK                            x       y       z     vdW  Elec       q    Type
REMARK                         _______ _______ _______ _____ _____    ______ ____
ROOT
ATOM      1  C   UNL     1       4.233   5.745  18.352  0.00  0.00    +0.000 C 
ENDROOT
BRANCH   1   2
ATOM      2  C   UNL     1       3.303   6.957  18.629  0.00  0.00    +0.000 A 
ATOM      3  N   UNL     1       2.750   7.130  19.792  0.00  0.00    +0.000 NA
ATOM      4  C   UNL     1       1.750   8.087  19.961  0.00  0.00    +0.000 A 
ATOM      5  C   UNL     1       1.258   8.307  21.247  0.00  0.00    +0.000 A 
ATOM      6  C   UNL     1       0.213   9.205  21.450  0.00  0.00    +0.000 A 
ATOM      7  C   UNL     1      -0.366   9.857  20.361  0.00  0.00    +0.000 A 
ATOM      8  C   UNL     1       0.120   9.642  19.068  0.00  0.00    +0.000 A 
ATOM      9  C   UNL     1       1.195   8.777  18.880  0.00  0.00    +0.000 A 
ATOM     10  N   UNL     1       1.789   8.631  17.619  0.00  0.00    +0.000 N 
ATOM     11  C   UNL     1       2.940   7.890  17.463  0.00  0.00    +0.000 A 
ATOM     12  O   UNL     1       3.640   7.961  16.464  0.00  0.00    +0.000 OA
ATOM     13  H   UNL     1       1.498   9.217  16.849  0.00  0.00    +0.000 HD
ENDBRANCH   1   2
BRANCH   1  14
ATOM     14  C   UNL     1       5.728   6.115  18.387  0.00  0.00    +0.000 A 
ATOM     15  C   UNL     1       6.269   7.120  17.565  0.00  0.00    +0.000 A 
ATOM     16  C   UNL     1       7.588   7.546  17.679  0.00  0.00    +0.000 A 
ATOM     17  C   UNL     1       8.424   6.933  18.599  0.00  0.00    +0.000 A 
ATOM     18  C   UNL     1       7.934   5.895  19.394  0.00  0.00    +0.000 A 
ATOM     19  C   UNL     1       6.597   5.489  19.292  0.00  0.00    +0.000 A 
ENDBRANCH   1  14
BRANCH   1  20
ATOM     20  C   UNL     1       3.794   4.816  17.181  0.00  0.00    +0.000 C 
BRANCH  20  22
ATOM     21  O   UNL     1       5.513   3.086  17.232  0.00  0.00    +0.000 OA
ATOM     22  C   UNL     1       4.927   3.963  16.604  0.00  0.00    +0.000 C 
BRANCH  22  23
ATOM     23  C   UNL     1       5.515   4.287  15.278  0.00  0.00    +0.000 A 
ATOM     24  C   UNL     1       4.888   3.771  14.135  0.00  0.00    +0.000 A 
ATOM     25  C   UNL     1       5.522   3.840  12.895  0.00  0.00    +0.000 A 
ATOM     26  C   UNL     1       6.783   4.423  12.795  0.00  0.00    +0.000 A 
ATOM     27  C   UNL     1       7.394   4.969  13.925  0.00  0.00    +0.000 A 
ATOM     28  C   UNL     1       6.761   4.909  15.168  0.00  0.00    +0.000 A 
ENDBRANCH  22  23
ENDBRANCH  20  22
BRANCH  20  29
ATOM     29  C   UNL     1       2.579   3.959  17.579  0.00  0.00    +0.000 C 
ATOM     30  O   UNL     1       1.747   3.605  16.739  0.00  0.00    +0.000 OA
BRANCH  29  31
ATOM     31  C   UNL     1       2.350   3.537  19.003  0.00  0.00    +0.000 A 
ATOM     32  C   UNL     1       3.283   2.798  19.741  0.00  0.00    +0.000 A 
ATOM     33  C   UNL     1       3.022   2.413  21.060  0.00  0.00    +0.000 A 
ATOM     34  C   UNL     1       1.827   2.773  21.671  0.00  0.00    +0.000 A 
ATOM     35  C   UNL     1       0.890   3.521  20.961  0.00  0.00    +0.000 A 
ATOM     36  C   UNL     1       1.149   3.894  19.634  0.00  0.00    +0.000 A 
ENDBRANCH  29  31
ENDBRANCH  20  29
ENDBRANCH   1  20
TORSDOF 7
ENDMDL
MODEL 2
REMARK VINA RESULT:      -8.4      1.161      1.648
REMARK  Name = 
REMARK  7 active torsions:
REMARK  status: ('A' for Active; 'I' for Inactive)
REMARK    1  A    between atoms: C_2  and  C_3
REMARK    2  A    between atoms: C_2  and  C_9
REMARK    3  A    between atoms: C_9  and  C_10
REMARK    4  A    between atoms: C_9  and  C_18
REMARK    5  A    between atoms: C_10  and  C_12
REMARK    6  A    between atoms: C_18  and  C_19
REMARK    7  A    between atoms: C_18  and  C_25
REMARK                            x       y       z     vdW  Elec       q    Type
REMARK                         _______ _______ _______ _____ _____    ______ ____
ROOT
ATOM      1  C   UNL     1       4.417   5.404  18.094  0.00  0.00    +0.000 C 
ENDROOT
BRANCH   1   2
ATOM      2  C   UNL     1       3.286   6.337  18.607  0.00  0.00    +0.000 A 
ATOM      3  N   UNL     1       2.748   7.231  17.833  0.00  0.00    +0.000 NA
ATOM      4  C   UNL     1       1.901   8.203  18.365  0.00  0.00    +0.000 A 
ATOM      5  C   UNL     1       1.268   9.079  17.484  0.00  0.00    +0.000 A 
ATOM      6  C   UNL     1       0.466  10.106  17.977  0.00  0.00    +0.000 A 
ATOM      7  C   UNL     1       0.326  10.280  19.354  0.00  0.00    +0.000 A 
ATOM      8  C   UNL     1       0.958   9.407  20.245  0.00  0.00    +0.000 A 
ATOM      9  C   UNL     1       1.720   8.355  19.742  0.00  0.00    +0.000 A 
ATOM     10  N   UNL     1       2.266   7.388  20.598  0.00  0.00    +0.000 N 
ATOM     11  C   UNL     1       2.894   6.272  20.092  0.00  0.00    +0.000 A 
ATOM     12  O   UNL     1       3.131   5.284  20.769  0.00  0.00    +0.000 OA
ATOM     13  H   UNL     1       2.040   7.395  21.583  0.00  0.00    +0.000 HD
ENDBRANCH   1   2
BRANCH   1  14
ATOM     14  C   UNL     1       5.810   6.060  18.156  0.00  0.00    +0.000 A 
ATOM     15  C   UNL     1       6.152   7.166  17.357  0.00  0.00    +0.000 A 
ATOM     16  C   UNL     1       7.360   7.841  17.496  0.00  0.00    +0.000 A 
ATOM     17  C   UNL     1       8.290   7.388  18.419  0.00  0.00    +0.000 A 
ATOM     18  C   UNL     1       8.004   6.261  19.191  0.00  0.00    +0.000 A 
ATOM     19  C   UNL     1       6.774   5.602  19.065  0.00  0.00    +0.000 A 
ENDBRANCH   1  14
BRANCH   1  20
ATOM     20  C   UNL     1       4.098   4.618  16.788  0.00  0.00    +0.000 C 
BRANCH  20  22
ATOM     21  O   UNL     1       5.999   3.089  16.834  0.00  0.00    +0.000 OA
ATOM     22  C   UNL     1       5.300   3.874  16.199  0.00  0.00    +0.000 C 
BRANCH  22  23
ATOM     23  C   UNL     1       5.805   4.211  14.842  0.00  0.00    +0.000 A 
ATOM     24  C   UNL     1       5.194   3.598  13.740  0.00  0.00    +0.000 A 
ATOM     25  C   UNL     1       5.774   3.688  12.475  0.00  0.00    +0.000 A 
ATOM     26  C   UNL     1       6.966   4.390  12.311  0.00  0.00    +0.000 A 
ATOM     27  C   UNL     1       7.559   5.030  13.400  0.00  0.00    +0.000 A 
ATOM     28  C   UNL     1       6.979   4.948  14.668  0.00  0.00    +0.000 A 
ENDBRANCH  22  23
ENDBRANCH  20  22
BRANCH  20  29
ATOM     29  C   UNL     1       2.888   3.688  16.982  0.00  0.00    +0.000 C 
ATOM     30  O   UNL     1       2.199   3.329  16.022  0.00  0.00    +0.000 OA
BRANCH  29  31
ATOM     31  C   UNL     1       2.489   3.195  18.344  0.00  0.00    +0.000 A 
ATOM     32  C   UNL     1       3.362   2.506  19.195  0.00  0.00    +0.000 A 
ATOM     33  C   UNL     1       2.944   2.052  20.450  0.00  0.00    +0.000 A 
ATOM     34  C   UNL     1       1.646   2.292  20.884  0.00  0.00    +0.000 A 
ATOM     35  C   UNL     1       0.763   2.989  20.061  0.00  0.00    +0.000 A 
ATOM     36  C   UNL     1       1.182   3.432  18.798  0.00  0.00    +0.000 A 
ENDBRANCH  29  31
ENDBRANCH  20  29
ENDBRANCH   1  20
TORSDOF 7
ENDMDL
MODEL 3
REMARK VINA RESULT:      -8.3      2.161      7.018
REMARK  Name = 
REMARK  7 active torsions:
REMARK  status: ('A' for Active; 'I' for Inactive)
REMARK    1  A    between atoms: C_2  and  C_3
REMARK    2  A    between atoms: C_2  and  C_9
REMARK    3  A    between atoms: C_9  and  C_10
REMARK    4  A    between atoms: C_9  and  C_18
REMARK    5  A    between atoms: C_10  and  C_12
REMARK    6  A    between atoms: C_18  and  C_19
REMARK    7  A    between atoms: C_18  and  C_25
REMARK                            x       y       z     vdW  Elec       q    Type
REMARK                         _______ _______ _______ _____ _____    ______ ____
ROOT
ATOM      1  C   UNL     1       4.419   4.963  17.665  0.00  0.00    +0.000 C 
ENDROOT
BRANCH   1   2
ATOM      2  C   UNL     1       5.146   5.061  16.296  0.00  0.00    +0.000 A 
ATOM      3  N   UNL     1       4.796   4.313  15.293  0.00  0.00    +0.000 NA
ATOM      4  C   UNL     1       5.593   4.250  14.151  0.00  0.00    +0.000 A 
ATOM      5  C   UNL     1       5.128   3.515  13.061  0.00  0.00    +0.000 A 
ATOM      6  C   UNL     1       5.922   3.370  11.926  0.00  0.00    +0.000 A 
ATOM      7  C   UNL     1       7.199   3.932  11.893  0.00  0.00    +0.000 A 
ATOM      8  C   UNL     1       7.674   4.670  12.981  0.00  0.00    +0.000 A 
ATOM      9  C   UNL     1       6.855   4.848  14.094  0.00  0.00    +0.000 A 
ATOM     10  N   UNL     1       7.246   5.682  15.150  0.00  0.00    +0.000 N 
ATOM     11  C   UNL     1       6.378   5.972  16.179  0.00  0.00    +0.000 A 
ATOM     12  O   UNL     1       6.562   6.895  16.958  0.00  0.00    +0.000 OA
ATOM     13  H   UNL     1       8.091   6.233  15.077  0.00  0.00    +0.000 HD
ENDBRANCH   1   2
BRANCH   1  14
ATOM     14  C   UNL     1       4.412   3.533  18.240  0.00  0.00    +0.000 A 
ATOM     15  C   UNL     1       4.851   3.249  19.545  0.00  0.00    +0.000 A 
ATOM     16  C   UNL     1       4.731   1.985  20.114  0.00  0.00    +0.000 A 
ATOM     17  C   UNL     1       4.206   0.948  19.360  0.00  0.00    +0.000 A 
ATOM     18  C   UNL     1       3.810   1.182  18.042  0.00  0.00    +0.000 A 
ATOM     19  C   UNL     1       3.909   2.464  17.485  0.00  0.00    +0.000 A 
ENDBRANCH   1  14
BRANCH   1  20
ATOM     20  C   UNL     1       3.072   5.738  17.766  0.00  0.00    +0.000 C 
BRANCH  20  22
ATOM     21  O   UNL     1       0.975   4.716  17.051  0.00  0.00    +0.000 OA
ATOM     22  C   UNL     1       1.844   4.835  17.911  0.00  0.00    +0.000 C 
BRANCH  22  23
ATOM     23  C   UNL     1       1.538   4.179  19.209  0.00  0.00    +0.000 A 
ATOM     24  C   UNL     1       2.031   4.773  20.380  0.00  0.00    +0.000 A 
ATOM     25  C   UNL     1       1.982   4.083  21.591  0.00  0.00    +0.000 A 
ATOM     26  C   UNL     1       1.444   2.799  21.634  0.00  0.00    +0.000 A 
ATOM     27  C   UNL     1       0.921   2.219  20.476  0.00  0.00    +0.000 A 
ATOM     28  C   UNL     1       0.961   2.908  19.262  0.00  0.00    +0.000 A 
ENDBRANCH  22  23
ENDBRANCH  20  22
BRANCH  20  29
ATOM     29  C   UNL     1       3.130   6.806  18.873  0.00  0.00    +0.000 C 
ATOM     30  O   UNL     1       3.990   6.760  19.758  0.00  0.00    +0.000 OA
BRANCH  29  31
ATOM     31  C   UNL     1       2.136   7.931  18.929  0.00  0.00    +0.000 A 
ATOM     32  C   UNL     1       1.739   8.658  17.800  0.00  0.00    +0.000 A 
ATOM     33  C   UNL     1       0.822   9.709  17.900  0.00  0.00    +0.000 A 
ATOM     34  C   UNL     1       0.272  10.043  19.132  0.00  0.00    +0.000 A 
ATOM     35  C   UNL     1       0.641   9.324  20.267  0.00  0.00    +0.000 A 
ATOM     36  C   UNL     1       1.572   8.279  20.165  0.00  0.00    +0.000 A 
ENDBRANCH  29  31
ENDBRANCH  20  29
ENDBRANCH   1  20
TORSDOF 7
ENDMDL
MODEL 4
REMARK VINA RESULT:      -8.0      7.560     11.565
REMARK  Name = 
REMARK  7 active torsions:
REMARK  status: ('A' for Active; 'I' for Inactive)
REMARK    1  A    between atoms: C_2  and  C_3
REMARK    2  A    between atoms: C_2  and  C_9
REMARK    3  A    between atoms: C_9  and  C_10
REMARK    4  A    between atoms: C_9  and  C_18
REMARK    5  A    between atoms: C_10  and  C_12
REMARK    6  A    between atoms: C_18  and  C_19
REMARK    7  A    between atoms: C_18  and  C_25
REMARK                            x       y       z     vdW  Elec       q    Type
REMARK                         _______ _______ _______ _____ _____    ______ ____
ROOT
ATOM      1  C   UNL     1      -3.310  13.335  21.376  0.00  0.00    +0.000 C 
ENDROOT
BRANCH   1   2
ATOM      2  C   UNL     1      -3.671  12.554  20.083  0.00  0.00    +0.000 A 
ATOM      3  N   UNL     1      -2.801  11.790  19.494  0.00  0.00    +0.000 NA
ATOM      4  C   UNL     1      -3.063  11.276  18.225  0.00  0.00    +0.000 A 
ATOM      5  C   UNL     1      -2.148  10.380  17.674  0.00  0.00    +0.000 A 
ATOM      6  C   UNL     1      -2.336   9.895  16.382  0.00  0.00    +0.000 A 
ATOM      7  C   UNL     1      -3.423  10.334  15.625  0.00  0.00    +0.000 A 
ATOM      8  C   UNL     1      -4.345  11.233  16.168  0.00  0.00    +0.000 A 
ATOM      9  C   UNL     1      -4.174  11.678  17.477  0.00  0.00    +0.000 A 
ATOM     10  N   UNL     1      -5.141  12.479  18.098  0.00  0.00    +0.000 N 
ATOM     11  C   UNL     1      -5.043  12.796  19.434  0.00  0.00    +0.000 A 
ATOM     12  O   UNL     1      -5.980  13.243  20.078  0.00  0.00    +0.000 OA
ATOM     13  H   UNL     1      -6.017  12.673  17.631  0.00  0.00    +0.000 HD
ENDBRANCH   1   2
BRANCH   1  14
ATOM     14  C   UNL     1      -2.342  14.507  21.118  0.00  0.00    +0.000 A 
ATOM     15  C   UNL     1      -2.500  15.758  21.740  0.00  0.00    +0.000 A 
ATOM     16  C   UNL     1      -1.564  16.779  21.611  0.00  0.00    +0.000 A 
ATOM     17  C   UNL     1      -0.454  16.585  20.804  0.00  0.00    +0.000 A 
ATOM     18  C   UNL     1      -0.294  15.373  20.130  0.00  0.00    +0.000 A 
ATOM     19  C   UNL     1      -1.227  14.340  20.285  0.00  0.00    +0.000 A 
ENDBRANCH   1  14
BRANCH   1  20
ATOM     20  C   UNL     1      -2.991  12.459  22.623  0.00  0.00    +0.000 C 
BRANCH  20  22
ATOM     21  O   UNL     1      -0.944  13.373  23.585  0.00  0.00    +0.000 OA
ATOM     22  C   UNL     1      -1.511  12.446  23.014  0.00  0.00    +0.000 C 
BRANCH  22  23
ATOM     23  C   UNL     1      -0.617  11.355  22.546  0.00  0.00    +0.000 A 
ATOM     24  C   UNL     1       0.148  11.577  21.392  0.00  0.00    +0.000 A 
ATOM     25  C   UNL     1       0.814  10.519  20.776  0.00  0.00    +0.000 A 
ATOM     26  C   UNL     1       0.716   9.236  21.311  0.00  0.00    +0.000 A 
ATOM     27  C   UNL     1      -0.016   9.018  22.479  0.00  0.00    +0.000 A 
ATOM     28  C   UNL     1      -0.680  10.075  23.104  0.00  0.00    +0.000 A 
ENDBRANCH  22  23
ENDBRANCH  20  22
BRANCH  20  29
ATOM     29  C   UNL     1      -3.893  12.838  23.811  0.00  0.00    +0.000 C 
ATOM     30  O   UNL     1      -4.308  11.979  24.595  0.00  0.00    +0.000 OA
BRANCH  29  31
ATOM     31  C   UNL     1      -4.317  14.259  24.053  0.00  0.00    +0.000 A 
ATOM     32  C   UNL     1      -5.500  14.802  23.537  0.00  0.00    +0.000 A 
ATOM     33  C   UNL     1      -5.850  16.135  23.774  0.00  0.00    +0.000 A 
ATOM     34  C   UNL     1      -5.027  16.948  24.545  0.00  0.00    +0.000 A 
ATOM     35  C   UNL     1      -3.851  16.425  25.080  0.00  0.00    +0.000 A 
ATOM     36  C   UNL     1      -3.498  15.091  24.829  0.00  0.00    +0.000 A 
ENDBRANCH  29  31
ENDBRANCH  20  29
ENDBRANCH   1  20
TORSDOF 7
ENDMDL
MODEL 5
REMARK VINA RESULT:      -7.9      7.593     11.434
REMARK  Name = 
REMARK  7 active torsions:
REMARK  status: ('A' for Active; 'I' for Inactive)
REMARK    1  A    between atoms: C_2  and  C_3
REMARK    2  A    between atoms: C_2  and  C_9
REMARK    3  A    between atoms: C_9  and  C_10
REMARK    4  A    between atoms: C_9  and  C_18
REMARK    5  A    between atoms: C_10  and  C_12
REMARK    6  A    between atoms: C_18  and  C_19
REMARK    7  A    between atoms: C_18  and  C_25
REMARK                            x       y       z     vdW  Elec       q    Type
REMARK                         _______ _______ _______ _____ _____    ______ ____
ROOT
ATOM      1  C   UNL     1      -3.007  13.670  21.327  0.00  0.00    +0.000 C 
ENDROOT
BRANCH   1   2
ATOM      2  C   UNL     1      -3.383  12.736  20.145  0.00  0.00    +0.000 A 
ATOM      3  N   UNL     1      -2.491  11.986  19.570  0.00  0.00    +0.000 NA
ATOM      4  C   UNL     1      -2.789  11.327  18.378  0.00  0.00    +0.000 A 
ATOM      5  C   UNL     1      -1.839  10.454  17.851  0.00  0.00    +0.000 A 
ATOM      6  C   UNL     1      -2.067   9.828  16.629  0.00  0.00    +0.000 A 
ATOM      7  C   UNL     1      -3.234  10.102  15.913  0.00  0.00    +0.000 A 
ATOM      8  C   UNL     1      -4.192  10.977  16.433  0.00  0.00    +0.000 A 
ATOM      9  C   UNL     1      -3.975  11.564  17.677  0.00  0.00    +0.000 A 
ATOM     10  N   UNL     1      -4.965  12.347  18.286  0.00  0.00    +0.000 N 
ATOM     11  C   UNL     1      -4.809  12.805  19.575  0.00  0.00    +0.000 A 
ATOM     12  O   UNL     1      -5.738  13.241  20.239  0.00  0.00    +0.000 OA
ATOM     13  H   UNL     1      -5.882  12.424  17.867  0.00  0.00    +0.000 HD
ENDBRANCH   1   2
BRANCH   1  14
ATOM     14  C   UNL     1      -2.004  14.770  20.928  0.00  0.00    +0.000 A 
ATOM     15  C   UNL     1      -2.015  16.044  21.522  0.00  0.00    +0.000 A 
ATOM     16  C   UNL     1      -1.038  16.999  21.259  0.00  0.00    +0.000 A 
ATOM     17  C   UNL     1      -0.038  16.713  20.342  0.00  0.00    +0.000 A 
ATOM     18  C   UNL     1      -0.028  15.477  19.694  0.00  0.00    +0.000 A 
ATOM     19  C   UNL     1      -1.000  14.511  19.984  0.00  0.00    +0.000 A 
ENDBRANCH   1  14
BRANCH   1  20
ATOM     20  C   UNL     1      -2.722  12.957  22.682  0.00  0.00    +0.000 C 
BRANCH  20  22
ATOM     21  O   UNL     1      -0.479  13.583  23.408  0.00  0.00    +0.000 OA
ATOM     22  C   UNL     1      -1.235  12.725  22.963  0.00  0.00    +0.000 C 
BRANCH  22  23
ATOM     23  C   UNL     1      -0.573  11.467  22.527  0.00  0.00    +0.000 A 
ATOM     24  C   UNL     1       0.232  11.508  21.380  0.00  0.00    +0.000 A 
ATOM     25  C   UNL     1       0.679  10.324  20.794  0.00  0.00    +0.000 A 
ATOM     26  C   UNL     1       0.320   9.099  21.350  0.00  0.00    +0.000 A 
ATOM     27  C   UNL     1      -0.452   9.056  22.512  0.00  0.00    +0.000 A 
ATOM     28  C   UNL     1      -0.897  10.237  23.108  0.00  0.00    +0.000 A 
ENDBRANCH  22  23
ENDBRANCH  20  22
BRANCH  20  29
ATOM     29  C   UNL     1      -3.418  13.683  23.847  0.00  0.00    +0.000 C 
ATOM     30  O   UNL     1      -2.766  14.146  24.788  0.00  0.00    +0.000 OA
BRANCH  29  31
ATOM     31  C   UNL     1      -4.911  13.840  23.894  0.00  0.00    +0.000 A 
ATOM     32  C   UNL     1      -5.788  12.761  24.062  0.00  0.00    +0.000 A 
ATOM     33  C   UNL     1      -7.174  12.951  24.085  0.00  0.00    +0.000 A 
ATOM     34  C   UNL     1      -7.708  14.227  23.955  0.00  0.00    +0.000 A 
ATOM     35  C   UNL     1      -6.854  15.317  23.801  0.00  0.00    +0.000 A 
ATOM     36  C   UNL     1      -5.465  15.122  23.765  0.00  0.00    +0.000 A 
ENDBRANCH  29  31
ENDBRANCH  20  29
ENDBRANCH   1  20
TORSDOF 7
ENDMDL
MODEL 6
REMARK VINA RESULT:      -7.9      5.375     11.496
REMARK  Name = 
REMARK  7 active torsions:
REMARK  status: ('A' for Active; 'I' for Inactive)
REMARK    1  A    between atoms: C_2  and  C_3
REMARK    2  A    between atoms: C_2  and  C_9
REMARK    3  A    between atoms: C_9  and  C_10
REMARK    4  A    between atoms: C_9  and  C_18
REMARK    5  A    between atoms: C_10  and  C_12
REMARK    6  A    between atoms: C_18  and  C_19
REMARK    7  A    between atoms: C_18  and  C_25
REMARK                            x       y       z     vdW  Elec       q    Type
REMARK                         _______ _______ _______ _____ _____    ______ ____
ROOT
ATOM      1  C   UNL     1      -0.257  12.599  21.380  0.00  0.00    +0.000 C 
ENDROOT
BRANCH   1   2
ATOM      2  C   UNL     1       0.129  11.447  20.412  0.00  0.00    +0.000 A 
ATOM      3  N   UNL     1       0.607  10.325  20.859  0.00  0.00    +0.000 NA
ATOM      4  C   UNL     1       1.154   9.393  19.977  0.00  0.00    +0.000 A 
ATOM      5  C   UNL     1       1.563   8.162  20.488  0.00  0.00    +0.000 A 
ATOM      6  C   UNL     1       2.176   7.229  19.656  0.00  0.00    +0.000 A 
ATOM      7  C   UNL     1       2.415   7.542  18.317  0.00  0.00    +0.000 A 
ATOM      8  C   UNL     1       2.010   8.774  17.796  0.00  0.00    +0.000 A 
ATOM      9  C   UNL     1       1.356   9.683  18.625  0.00  0.00    +0.000 A 
ATOM     10  N   UNL     1       0.826  10.874  18.111  0.00  0.00    +0.000 N 
ATOM     11  C   UNL     1       0.056  11.701  18.898  0.00  0.00    +0.000 A 
ATOM     12  O   UNL     1      -0.649  12.585  18.435  0.00  0.00    +0.000 OA
ATOM     13  H   UNL     1       0.837  11.048  17.115  0.00  0.00    +0.000 HD
ENDBRANCH   1   2
BRANCH   1  14
ATOM     14  C   UNL     1      -1.734  12.545  21.818  0.00  0.00    +0.000 A 
ATOM     15  C   UNL     1      -2.110  12.309  23.152  0.00  0.00    +0.000 A 
ATOM     16  C   UNL     1      -3.432  12.384  23.578  0.00  0.00    +0.000 A 
ATOM     17  C   UNL     1      -4.430  12.652  22.655  0.00  0.00    +0.000 A 
ATOM     18  C   UNL     1      -4.097  12.839  21.312  0.00  0.00    +0.000 A 
ATOM     19  C   UNL     1      -2.761  12.789  20.895  0.00  0.00    +0.000 A 
ENDBRANCH   1  14
BRANCH   1  20
ATOM     20  C   UNL     1       0.282  14.008  20.996  0.00  0.00    +0.000 C 
BRANCH  20  22
ATOM     21  O   UNL     1       0.606  15.309  23.035  0.00  0.00    +0.000 OA
ATOM     22  C   UNL     1      -0.047  15.101  22.016  0.00  0.00    +0.000 C 
BRANCH  22  23
ATOM     23  C   UNL     1      -1.317  15.869  21.915  0.00  0.00    +0.000 A 
ATOM     24  C   UNL     1      -2.121  15.967  23.059  0.00  0.00    +0.000 A 
ATOM     25  C   UNL     1      -3.421  16.463  22.963  0.00  0.00    +0.000 A 
ATOM     26  C   UNL     1      -3.919  16.860  21.724  0.00  0.00    +0.000 A 
ATOM     27  C   UNL     1      -3.108  16.796  20.589  0.00  0.00    +0.000 A 
ATOM     28  C   UNL     1      -1.804  16.306  20.681  0.00  0.00    +0.000 A 
ENDBRANCH  22  23
ENDBRANCH  20  22
BRANCH  20  29
ATOM     29  C   UNL     1       1.787  13.957  20.678  0.00  0.00    +0.000 C 
ATOM     30  O   UNL     1       2.563  13.295  21.375  0.00  0.00    +0.000 OA
BRANCH  29  31
ATOM     31  C   UNL     1       2.372  14.722  19.525  0.00  0.00    +0.000 A 
ATOM     32  C   UNL     1       1.784  15.878  18.997  0.00  0.00    +0.000 A 
ATOM     33  C   UNL     1       2.354  16.551  17.912  0.00  0.00    +0.000 A 
ATOM     34  C   UNL     1       3.533  16.087  17.342  0.00  0.00    +0.000 A 
ATOM     35  C   UNL     1       4.145  14.947  17.859  0.00  0.00    +0.000 A 
ATOM     36  C   UNL     1       3.562  14.267  18.940  0.00  0.00    +0.000 A 
ENDBRANCH  29  31
ENDBRANCH  20  29
ENDBRANCH   1  20
TORSDOF 7
ENDMDL
MODEL 7
REMARK VINA RESULT:      -7.9      5.461      9.713
REMARK  Name = 
REMARK  7 active torsions:
REMARK  status: ('A' for Active; 'I' for Inactive)
REMARK    1  A    between atoms: C_2  and  C_3
REMARK    2  A    between atoms: C_2  and  C_9
REMARK    3  A    between atoms: C_9  and  C_10
REMARK    4  A    between atoms: C_9  and  C_18
REMARK    5  A    between atoms: C_10  and  C_12
REMARK    6  A    between atoms: C_18  and  C_19
REMARK    7  A    between atoms: C_18  and  C_25
REMARK                            x       y       z     vdW  Elec       q    Type
REMARK                         _______ _______ _______ _____ _____    ______ ____
ROOT
ATOM      1  C   UNL     1      -0.521  13.407  20.165  0.00  0.00    +0.000 C 
ENDROOT
BRANCH   1   2
ATOM      2  C   UNL     1      -1.627  12.608  19.422  0.00  0.00    +0.000 A 
ATOM      3  N   UNL     1      -1.379  12.000  18.301  0.00  0.00    +0.000 NA
ATOM      4  C   UNL     1      -2.423  11.481  17.537  0.00  0.00    +0.000 A 
ATOM      5  C   UNL     1      -2.104  10.750  16.394  0.00  0.00    +0.000 A 
ATOM      6  C   UNL     1      -3.117  10.270  15.566  0.00  0.00    +0.000 A 
ATOM      7  C   UNL     1      -4.451  10.554  15.862  0.00  0.00    +0.000 A 
ATOM      8  C   UNL     1      -4.780  11.288  17.005  0.00  0.00    +0.000 A 
ATOM      9  C   UNL     1      -3.763  11.724  17.852  0.00  0.00    +0.000 A 
ATOM     10  N   UNL     1      -4.060  12.353  19.069  0.00  0.00    +0.000 N 
ATOM     11  C   UNL     1      -3.062  12.652  19.970  0.00  0.00    +0.000 A 
ATOM     12  O   UNL     1      -3.289  12.935  21.136  0.00  0.00    +0.000 OA
ATOM     13  H   UNL     1      -5.017  12.421  19.386  0.00  0.00    +0.000 HD
ENDBRANCH   1   2
BRANCH   1  14
ATOM     14  C   UNL     1      -0.601  14.925  19.907  0.00  0.00    +0.000 A 
ATOM     15  C   UNL     1      -0.375  15.480  18.636  0.00  0.00    +0.000 A 
ATOM     16  C   UNL     1      -0.568  16.831  18.367  0.00  0.00    +0.000 A 
ATOM     17  C   UNL     1      -0.950  17.680  19.393  0.00  0.00    +0.000 A 
ATOM     18  C   UNL     1      -1.131  17.171  20.680  0.00  0.00    +0.000 A 
ATOM     19  C   UNL     1      -0.961  15.805  20.938  0.00  0.00    +0.000 A 
ENDBRANCH   1  14
BRANCH   1  20
ATOM     20  C   UNL     1       0.906  12.787  20.111  0.00  0.00    +0.000 C 
BRANCH  20  22
ATOM     21  O   UNL     1       2.204  13.822  21.899  0.00  0.00    +0.000 OA
ATOM     22  C   UNL     1       1.999  13.686  20.697  0.00  0.00    +0.000 C 
BRANCH  22  23
ATOM     23  C   UNL     1       2.769  14.606  19.818  0.00  0.00    +0.000 A 
ATOM     24  C   UNL     1       2.957  15.927  20.250  0.00  0.00    +0.000 A 
ATOM     25  C   UNL     1       3.457  16.887  19.372  0.00  0.00    +0.000 A 
ATOM     26  C   UNL     1       3.768  16.531  18.062  0.00  0.00    +0.000 A 
ATOM     27  C   UNL     1       3.615  15.209  17.640  0.00  0.00    +0.000 A 
ATOM     28  C   UNL     1       3.121  14.241  18.516  0.00  0.00    +0.000 A 
ENDBRANCH  22  23
ENDBRANCH  20  22
BRANCH  20  29
ATOM     29  C   UNL     1       0.924  11.382  20.739  0.00  0.00    +0.000 C 
ATOM     30  O   UNL     1       0.617  11.210  21.923  0.00  0.00    +0.000 OA
BRANCH  29  31
ATOM     31  C   UNL     1       1.332  10.173  19.946  0.00  0.00    +0.000 A 
ATOM     32  C   UNL     1       1.594  10.214  18.571  0.00  0.00    +0.000 A 
ATOM     33  C   UNL     1       1.957   9.060  17.868  0.00  0.00    +0.000 A 
ATOM     34  C   UNL     1       2.077   7.845  18.532  0.00  0.00    +0.000 A 
ATOM     35  C   UNL     1       1.835   7.783  19.903  0.00  0.00    +0.000 A 
ATOM     36  C   UNL     1       1.459   8.940  20.602  0.00  0.00    +0.000 A 
ENDBRANCH  29  31
ENDBRANCH  20  29
ENDBRANCH   1  20
TORSDOF 7
ENDMDL
MODEL 8
REMARK VINA RESULT:      -7.9      4.296      9.794
REMARK  Name = 
REMARK  7 active torsions:
REMARK  status: ('A' for Active; 'I' for Inactive)
REMARK    1  A    between atoms: C_2  and  C_3
REMARK    2  A    between atoms: C_2  and  C_9
REMARK    3  A    between atoms: C_9  and  C_10
REMARK    4  A    between atoms: C_9  and  C_18
REMARK    5  A    between atoms: C_10  and  C_12
REMARK    6  A    between atoms: C_18  and  C_19
REMARK    7  A    between atoms: C_18  and  C_25
REMARK                            x       y       z     vdW  Elec       q    Type
REMARK                         _______ _______ _______ _____ _____    ______ ____
ROOT
ATOM      1  C   UNL     1       0.190  11.102  20.259  0.00  0.00    +0.000 C 
ENDROOT
BRANCH   1   2
ATOM      2  C   UNL     1       1.018   9.788  20.263  0.00  0.00    +0.000 A 
ATOM      3  N   UNL     1       1.510   9.299  19.165  0.00  0.00    +0.000 NA
ATOM      4  C   UNL     1       2.054   8.016  19.148  0.00  0.00    +0.000 A 
ATOM      5  C   UNL     1       2.661   7.572  17.974  0.00  0.00    +0.000 A 
ATOM      6  C   UNL     1       3.157   6.273  17.892  0.00  0.00    +0.000 A 
ATOM      7  C   UNL     1       3.014   5.404  18.974  0.00  0.00    +0.000 A 
ATOM      8  C   UNL     1       2.405   5.839  20.154  0.00  0.00    +0.000 A 
ATOM      9  C   UNL     1       1.953   7.154  20.243  0.00  0.00    +0.000 A 
ATOM     10  N   UNL     1       1.452   7.663  21.449  0.00  0.00    +0.000 N 
ATOM     11  C   UNL     1       1.142   8.998  21.576  0.00  0.00    +0.000 A 
ATOM     12  O   UNL     1       0.974   9.537  22.660  0.00  0.00    +0.000 OA
ATOM     13  H   UNL     1       1.492   7.106  22.292  0.00  0.00    +0.000 HD
ENDBRANCH   1   2
BRANCH   1  14
ATOM     14  C   UNL     1      -0.933  11.100  19.203  0.00  0.00    +0.000 A 
ATOM     15  C   UNL     1      -0.880  10.288  18.057  0.00  0.00    +0.000 A 
ATOM     16  C   UNL     1      -1.943  10.187  17.165  0.00  0.00    +0.000 A 
ATOM     17  C   UNL     1      -3.083  10.945  17.377  0.00  0.00    +0.000 A 
ATOM     18  C   UNL     1      -3.148  11.803  18.477  0.00  0.00    +0.000 A 
ATOM     19  C   UNL     1      -2.084  11.880  19.386  0.00  0.00    +0.000 A 
ENDBRANCH   1  14
BRANCH   1  20
ATOM     20  C   UNL     1       1.017  12.417  20.363  0.00  0.00    +0.000 C 
BRANCH  20  22
ATOM     21  O   UNL     1       1.422  12.761  17.982  0.00  0.00    +0.000 OA
ATOM     22  C   UNL     1       1.070  13.224  19.063  0.00  0.00    +0.000 C 
BRANCH  22  23
ATOM     23  C   UNL     1       0.867  14.697  19.081  0.00  0.00    +0.000 A 
ATOM     24  C   UNL     1      -0.410  15.190  18.777  0.00  0.00    +0.000 A 
ATOM     25  C   UNL     1      -0.600  16.552  18.545  0.00  0.00    +0.000 A 
ATOM     26  C   UNL     1       0.486  17.422  18.614  0.00  0.00    +0.000 A 
ATOM     27  C   UNL     1       1.751  16.938  18.951  0.00  0.00    +0.000 A 
ATOM     28  C   UNL     1       1.946  15.577  19.191  0.00  0.00    +0.000 A 
ENDBRANCH  22  23
ENDBRANCH  20  22
BRANCH  20  29
ATOM     29  C   UNL     1       0.546  13.275  21.550  0.00  0.00    +0.000 C 
ATOM     30  O   UNL     1       1.318  14.049  22.123  0.00  0.00    +0.000 OA
BRANCH  29  31
ATOM     31  C   UNL     1      -0.863  13.193  22.067  0.00  0.00    +0.000 A 
ATOM     32  C   UNL     1      -1.833  14.167  21.802  0.00  0.00    +0.000 A 
ATOM     33  C   UNL     1      -3.129  14.059  22.316  0.00  0.00    +0.000 A 
ATOM     34  C   UNL     1      -3.483  12.964  23.095  0.00  0.00    +0.000 A 
ATOM     35  C   UNL     1      -2.539  11.974  23.361  0.00  0.00    +0.000 A 
ATOM     36  C   UNL     1      -1.236  12.093  22.854  0.00  0.00    +0.000 A 
ENDBRANCH  29  31
ENDBRANCH  20  29
ENDBRANCH   1  20
TORSDOF 7
ENDMDL
MODEL 9
REMARK VINA RESULT:      -7.8      4.272     10.514
REMARK  Name = 
REMARK  7 active torsions:
REMARK  status: ('A' for Active; 'I' for Inactive)
REMARK    1  A    between atoms: C_2  and  C_3
REMARK    2  A    between atoms: C_2  and  C_9
REMARK    3  A    between atoms: C_9  and  C_10
REMARK    4  A    between atoms: C_9  and  C_18
REMARK    5  A    between atoms: C_10  and  C_12
REMARK    6  A    between atoms: C_18  and  C_19
REMARK    7  A    between atoms: C_18  and  C_25
REMARK                            x       y       z     vdW  Elec       q    Type
REMARK                         _______ _______ _______ _____ _____    ______ ____
ROOT
ATOM      1  C   UNL     1      -0.933  10.755  20.094  0.00  0.00    +0.000 C 
ENDROOT
BRANCH   1   2
ATOM      2  C   UNL     1       0.238   9.736  20.040  0.00  0.00    +0.000 A 
ATOM      3  N   UNL     1       0.968   9.605  18.972  0.00  0.00    +0.000 NA
ATOM      4  C   UNL     1       1.862   8.542  18.858  0.00  0.00    +0.000 A 
ATOM      5  C   UNL     1       2.695   8.498  17.742  0.00  0.00    +0.000 A 
ATOM      6  C   UNL     1       3.556   7.419  17.554  0.00  0.00    +0.000 A 
ATOM      7  C   UNL     1       3.558   6.363  18.467  0.00  0.00    +0.000 A 
ATOM      8  C   UNL     1       2.725   6.398  19.589  0.00  0.00    +0.000 A 
ATOM      9  C   UNL     1       1.901   7.502  19.792  0.00  0.00    +0.000 A 
ATOM     10  N   UNL     1       1.145   7.631  20.966  0.00  0.00    +0.000 N 
ATOM     11  C   UNL     1       0.446   8.787  21.231  0.00  0.00    +0.000 A 
ATOM     12  O   UNL     1       0.012   9.057  22.341  0.00  0.00    +0.000 OA
ATOM     13  H   UNL     1       1.256   6.964  21.717  0.00  0.00    +0.000 HD
ENDBRANCH   1   2
BRANCH   1  14
ATOM     14  C   UNL     1      -1.748  10.802  18.786  0.00  0.00    +0.000 A 
ATOM     15  C   UNL     1      -1.436   9.990  17.681  0.00  0.00    +0.000 A 
ATOM     16  C   UNL     1      -2.239   9.935  16.547  0.00  0.00    +0.000 A 
ATOM     17  C   UNL     1      -3.364  10.740  16.470  0.00  0.00    +0.000 A 
ATOM     18  C   UNL     1      -3.674  11.597  17.528  0.00  0.00    +0.000 A 
ATOM     19  C   UNL     1      -2.875  11.628  18.679  0.00  0.00    +0.000 A 
ENDBRANCH   1  14
BRANCH   1  20
ATOM     20  C   UNL     1      -0.593  12.135  20.728  0.00  0.00    +0.000 C 
BRANCH  20  22
ATOM     21  O   UNL     1      -0.528  12.034  23.165  0.00  0.00    +0.000 OA
ATOM     22  C   UNL     1      -1.145  12.324  22.144  0.00  0.00    +0.000 C 
BRANCH  22  23
ATOM     23  C   UNL     1      -2.566  12.707  22.355  0.00  0.00    +0.000 A 
ATOM     24  C   UNL     1      -3.124  13.667  21.499  0.00  0.00    +0.000 A 
ATOM     25  C   UNL     1      -4.362  14.235  21.795  0.00  0.00    +0.000 A 
ATOM     26  C   UNL     1      -5.044  13.847  22.946  0.00  0.00    +0.000 A 
ATOM     27  C   UNL     1      -4.507  12.865  23.781  0.00  0.00    +0.000 A 
ATOM     28  C   UNL     1      -3.270  12.288  23.486  0.00  0.00    +0.000 A 
ENDBRANCH  22  23
ENDBRANCH  20  22
BRANCH  20  29
ATOM     29  C   UNL     1       0.918  12.418  20.661  0.00  0.00    +0.000 C 
ATOM     30  O   UNL     1       1.715  11.795  21.369  0.00  0.00    +0.000 OA
BRANCH  29  31
ATOM     31  C   UNL     1       1.479  13.472  19.748  0.00  0.00    +0.000 A 
ATOM     32  C   UNL     1       2.472  13.209  18.797  0.00  0.00    +0.000 A 
ATOM     33  C   UNL     1       2.978  14.223  17.977  0.00  0.00    +0.000 A 
ATOM     34  C   UNL     1       2.487  15.519  18.084  0.00  0.00    +0.000 A 
ATOM     35  C   UNL     1       1.488  15.802  19.014  0.00  0.00    +0.000 A 
ATOM     36  C   UNL     1       0.993  14.784  19.844  0.00  0.00    +0.000 A 
ENDBRANCH  29  31
ENDBRANCH  20  29
ENDBRANCH   1  20
TORSDOF 7
ENDMDL
