MODEL 1
REMARK VINA RESULT:      -6.7      0.000      0.000
REMARK  Name = 
REMARK  5 active torsions:
REMARK  status: ('A' for Active; 'I' for Inactive)
REMARK    1  A    between atoms: C_1  and  C_2
REMARK    2  A    between atoms: C_2  and  C_3
REMARK    3  A    between atoms: C_2  and  C_4
REMARK    4  A    between atoms: C_2  and  C_5
REMARK    5  A    between atoms: C_15  and  C_16
REMARK                            x       y       z     vdW  Elec       q    Type
REMARK                         _______ _______ _______ _____ _____    ______ ____
ROOT
ATOM      1  C   UNL     1      -4.484  12.851  22.373  0.00  0.00    +0.000 A 
ATOM      2  N   UNL     1      -4.168  12.614  21.114  0.00  0.00    +0.000 NA
ATOM      3  C   UNL     1      -5.296  12.645  20.349  0.00  0.00    +0.000 A 
ATOM      4  C   UNL     1      -6.477  12.958  20.989  0.00  0.00    +0.000 A 
ATOM      5  S   UNL     1      -6.177  13.161  22.649  0.00  0.00    +0.000 S 
ATOM      6  C   UNL     1      -7.830  13.029  20.316  0.00  0.00    +0.000 C 
ATOM      7  C   UNL     1      -7.708  13.336  18.787  0.00  0.00    +0.000 C 
ATOM      8  C   UNL     1      -6.469  12.718  18.242  0.00  0.00    +0.000 A 
ATOM      9  O   UNL     1      -6.310  12.427  16.934  0.00  0.00    +0.000 OA
ATOM     10  N   UNL     1      -5.037  11.887  16.751  0.00  0.00    +0.000 NA
ATOM     11  C   UNL     1      -4.445  11.855  17.969  0.00  0.00    +0.000 A 
ATOM     12  C   UNL     1      -5.327  12.398  18.924  0.00  0.00    +0.000 A 
ENDROOT
BRANCH  11  13
ATOM     13  C   UNL     1      -3.091  11.325  18.151  0.00  0.00    +0.000 A 
ATOM     14  C   UNL     1      -2.704  10.122  17.546  0.00  0.00    +0.000 A 
ATOM     15  C   UNL     1      -1.379   9.678  17.631  0.00  0.00    +0.000 A 
ATOM     16  C   UNL     1      -0.434  10.437  18.324  0.00  0.00    +0.000 A 
ATOM     17 BR   UNL     1       1.372   9.886  18.371  0.00  0.00    +0.000 Br
ATOM     18  C   UNL     1      -0.811  11.606  18.969  0.00  0.00    +0.000 A 
ATOM     19  C   UNL     1      -2.139  12.030  18.905  0.00  0.00    +0.000 A 
ENDBRANCH  11  13
BRANCH   1  21
ATOM     20  C   UNL     1      -2.326  11.851  23.208  0.00  0.00    +0.000 C 
ATOM     21  C   UNL     1      -3.464  12.853  23.512  0.00  0.00    +0.000 C 
ATOM     22  C   UNL     1      -4.118  12.420  24.837  0.00  0.00    +0.000 C 
ATOM     23  C   UNL     1      -2.835  14.249  23.664  0.00  0.00    +0.000 C 
ENDBRANCH   1  21
TORSDOF 2
ENDMDL
MODEL 2
REMARK VINA RESULT:      -6.7      8.151     11.569
REMARK  Name = 
REMARK  5 active torsions:
REMARK  status: ('A' for Active; 'I' for Inactive)
REMARK    1  A    between atoms: C_1  and  C_2
REMARK    2  A    between atoms: C_2  and  C_3
REMARK    3  A    between atoms: C_2  and  C_4
REMARK    4  A    between atoms: C_2  and  C_5
REMARK    5  A    between atoms: C_15  and  C_16
REMARK                            x       y       z     vdW  Elec       q    Type
REMARK                         _______ _______ _______ _____ _____    ______ ____
ROOT
ATOM      1  C   UNL     1       5.197   4.916  16.852  0.00  0.00    +0.000 A 
ATOM      2  N   UNL     1       4.344   5.286  17.788  0.00  0.00    +0.000 NA
ATOM      3  C   UNL     1       3.677   4.192  18.254  0.00  0.00    +0.000 A 
ATOM      4  C   UNL     1       4.040   2.968  17.730  0.00  0.00    +0.000 A 
ATOM      5  S   UNL     1       5.235   3.200  16.543  0.00  0.00    +0.000 S 
ATOM      6  C   UNL     1       3.409   1.646  18.108  0.00  0.00    +0.000 C 
ATOM      7  C   UNL     1       2.782   1.686  19.541  0.00  0.00    +0.000 C 
ATOM      8  C   UNL     1       2.248   3.046  19.824  0.00  0.00    +0.000 A 
ATOM      9  O   UNL     1       1.291   3.279  20.746  0.00  0.00    +0.000 OA
ATOM     10  N   UNL     1       1.037   4.651  20.784  0.00  0.00    +0.000 NA
ATOM     11  C   UNL     1       1.852   5.227  19.868  0.00  0.00    +0.000 A 
ATOM     12  C   UNL     1       2.645   4.230  19.265  0.00  0.00    +0.000 A 
ENDROOT
BRANCH  11  13
ATOM     13  C   UNL     1       1.838   6.673  19.630  0.00  0.00    +0.000 A 
ATOM     14  C   UNL     1       2.151   7.195  18.368  0.00  0.00    +0.000 A 
ATOM     15  C   UNL     1       2.029   8.567  18.117  0.00  0.00    +0.000 A 
ATOM     16  C   UNL     1       1.591   9.424  19.129  0.00  0.00    +0.000 A 
ATOM     17 BR   UNL     1       1.344  11.262  18.772  0.00  0.00    +0.000 Br
ATOM     18  C   UNL     1       1.324   8.930  20.397  0.00  0.00    +0.000 A 
ATOM     19  C   UNL     1       1.474   7.565  20.651  0.00  0.00    +0.000 A 
ENDBRANCH  11  13
BRANCH   1  21
ATOM     20  C   UNL     1       6.942   5.133  15.046  0.00  0.00    +0.000 C 
ATOM     21  C   UNL     1       6.086   5.895  16.085  0.00  0.00    +0.000 C 
ATOM     22  C   UNL     1       7.053   6.621  17.037  0.00  0.00    +0.000 C 
ATOM     23  C   UNL     1       5.224   6.918  15.326  0.00  0.00    +0.000 C 
ENDBRANCH   1  21
TORSDOF 2
ENDMDL
MODEL 3
REMARK VINA RESULT:      -6.5      0.157      1.363
REMARK  Name = 
REMARK  5 active torsions:
REMARK  status: ('A' for Active; 'I' for Inactive)
REMARK    1  A    between atoms: C_1  and  C_2
REMARK    2  A    between atoms: C_2  and  C_3
REMARK    3  A    between atoms: C_2  and  C_4
REMARK    4  A    between atoms: C_2  and  C_5
REMARK    5  A    between atoms: C_15  and  C_16
REMARK                            x       y       z     vdW  Elec       q    Type
REMARK                         _______ _______ _______ _____ _____    ______ ____
ROOT
ATOM      1  C   UNL     1      -4.449  12.820  22.319  0.00  0.00    +0.000 A 
ATOM      2  N   UNL     1      -4.146  12.620  21.050  0.00  0.00    +0.000 NA
ATOM      3  C   UNL     1      -5.286  12.624  20.303  0.00  0.00    +0.000 A 
ATOM      4  C   UNL     1      -6.468  12.880  20.968  0.00  0.00    +0.000 A 
ATOM      5  S   UNL     1      -6.148  13.060  22.628  0.00  0.00    +0.000 S 
ATOM      6  C   UNL     1      -7.834  12.913  20.318  0.00  0.00    +0.000 C 
ATOM      7  C   UNL     1      -7.748  13.255  18.794  0.00  0.00    +0.000 C 
ATOM      8  C   UNL     1      -6.496  12.694  18.217  0.00  0.00    +0.000 A 
ATOM      9  O   UNL     1      -6.348  12.437  16.901  0.00  0.00    +0.000 OA
ATOM     10  N   UNL     1      -5.059  11.948  16.687  0.00  0.00    +0.000 NA
ATOM     11  C   UNL     1      -4.446  11.913  17.895  0.00  0.00    +0.000 A 
ATOM     12  C   UNL     1      -5.332  12.405  18.875  0.00  0.00    +0.000 A 
ENDROOT
BRANCH  11  13
ATOM     13  C   UNL     1      -3.070  11.432  18.044  0.00  0.00    +0.000 A 
ATOM     14  C   UNL     1      -2.147  12.132  18.833  0.00  0.00    +0.000 A 
ATOM     15  C   UNL     1      -0.868  11.609  19.061  0.00  0.00    +0.000 A 
ATOM     16  C   UNL     1      -0.507  10.383  18.500  0.00  0.00    +0.000 A 
ATOM     17 BR   UNL     1       1.186   9.633  18.873  0.00  0.00    +0.000 Br
ATOM     18  C   UNL     1      -1.392   9.701  17.677  0.00  0.00    +0.000 A 
ATOM     19  C   UNL     1      -2.656  10.240  17.430  0.00  0.00    +0.000 A 
ENDBRANCH  11  13
BRANCH   1  21
ATOM     20  C   UNL     1      -4.076  12.448  24.783  0.00  0.00    +0.000 C 
ATOM     21  C   UNL     1      -3.412  12.837  23.441  0.00  0.00    +0.000 C 
ATOM     22  C   UNL     1      -2.813  14.245  23.615  0.00  0.00    +0.000 C 
ATOM     23  C   UNL     1      -2.296  11.819  23.155  0.00  0.00    +0.000 C 
ENDBRANCH   1  21
TORSDOF 2
ENDMDL
MODEL 4
REMARK VINA RESULT:      -6.5      7.989     11.163
REMARK  Name = 
REMARK  5 active torsions:
REMARK  status: ('A' for Active; 'I' for Inactive)
REMARK    1  A    between atoms: C_1  and  C_2
REMARK    2  A    between atoms: C_2  and  C_3
REMARK    3  A    between atoms: C_2  and  C_4
REMARK    4  A    between atoms: C_2  and  C_5
REMARK    5  A    between atoms: C_15  and  C_16
REMARK                            x       y       z     vdW  Elec       q    Type
REMARK                         _______ _______ _______ _____ _____    ______ ____
ROOT
ATOM      1  C   UNL     1       2.567   3.267  18.978  0.00  0.00    +0.000 A 
ATOM      2  N   UNL     1       2.663   4.494  18.503  0.00  0.00    +0.000 NA
ATOM      3  C   UNL     1       3.731   4.573  17.658  0.00  0.00    +0.000 A 
ATOM      4  C   UNL     1       4.433   3.408  17.428  0.00  0.00    +0.000 A 
ATOM      5  S   UNL     1       3.766   2.158  18.368  0.00  0.00    +0.000 S 
ATOM      6  C   UNL     1       5.651   3.297  16.537  0.00  0.00    +0.000 C 
ATOM      7  C   UNL     1       5.675   4.410  15.439  0.00  0.00    +0.000 C 
ATOM      8  C   UNL     1       5.066   5.660  15.968  0.00  0.00    +0.000 A 
ATOM      9  O   UNL     1       5.329   6.878  15.452  0.00  0.00    +0.000 OA
ATOM     10  N   UNL     1       4.583   7.827  16.152  0.00  0.00    +0.000 NA
ATOM     11  C   UNL     1       3.878   7.156  17.094  0.00  0.00    +0.000 A 
ATOM     12  C   UNL     1       4.152   5.778  16.979  0.00  0.00    +0.000 A 
ENDROOT
BRANCH  11  13
ATOM     13  C   UNL     1       2.989   7.852  18.029  0.00  0.00    +0.000 A 
ATOM     14  C   UNL     1       2.324   9.024  17.647  0.00  0.00    +0.000 A 
ATOM     15  C   UNL     1       1.393   9.623  18.504  0.00  0.00    +0.000 A 
ATOM     16  C   UNL     1       1.123   9.050  19.749  0.00  0.00    +0.000 A 
ATOM     17 BR   UNL     1      -0.193   9.806  20.874  0.00  0.00    +0.000 Br
ATOM     18  C   UNL     1       1.809   7.917  20.161  0.00  0.00    +0.000 A 
ATOM     19  C   UNL     1       2.757   7.340  19.315  0.00  0.00    +0.000 A 
ENDBRANCH  11  13
BRANCH   1  21
ATOM     20  C   UNL     1       0.683   4.060  20.452  0.00  0.00    +0.000 C 
ATOM     21  C   UNL     1       1.502   2.833  19.985  0.00  0.00    +0.000 C 
ATOM     22  C   UNL     1       2.149   2.208  21.234  0.00  0.00    +0.000 C 
ATOM     23  C   UNL     1       0.528   1.835  19.338  0.00  0.00    +0.000 C 
ENDBRANCH   1  21
TORSDOF 2
ENDMDL
MODEL 5
REMARK VINA RESULT:      -6.5      7.908     11.094
REMARK  Name = 
REMARK  5 active torsions:
REMARK  status: ('A' for Active; 'I' for Inactive)
REMARK    1  A    between atoms: C_1  and  C_2
REMARK    2  A    between atoms: C_2  and  C_3
REMARK    3  A    between atoms: C_2  and  C_4
REMARK    4  A    between atoms: C_2  and  C_5
REMARK    5  A    between atoms: C_15  and  C_16
REMARK                            x       y       z     vdW  Elec       q    Type
REMARK                         _______ _______ _______ _____ _____    ______ ____
ROOT
ATOM      1  C   UNL     1       2.583   3.282  19.053  0.00  0.00    +0.000 A 
ATOM      2  N   UNL     1       2.624   4.510  18.572  0.00  0.00    +0.000 NA
ATOM      3  C   UNL     1       3.717   4.647  17.768  0.00  0.00    +0.000 A 
ATOM      4  C   UNL     1       4.495   3.524  17.574  0.00  0.00    +0.000 A 
ATOM      5  S   UNL     1       3.867   2.243  18.497  0.00  0.00    +0.000 S 
ATOM      6  C   UNL     1       5.751   3.481  16.731  0.00  0.00    +0.000 C 
ATOM      7  C   UNL     1       5.752   4.587  15.625  0.00  0.00    +0.000 C 
ATOM      8  C   UNL     1       5.050   5.802  16.122  0.00  0.00    +0.000 A 
ATOM      9  O   UNL     1       5.260   7.031  15.607  0.00  0.00    +0.000 OA
ATOM     10  N   UNL     1       4.433   7.937  16.270  0.00  0.00    +0.000 NA
ATOM     11  C   UNL     1       3.733   7.230  17.189  0.00  0.00    +0.000 A 
ATOM     12  C   UNL     1       4.092   5.871  17.096  0.00  0.00    +0.000 A 
ENDROOT
BRANCH  11  13
ATOM     13  C   UNL     1       2.770   7.878  18.084  0.00  0.00    +0.000 A 
ATOM     14  C   UNL     1       2.545   7.382  19.375  0.00  0.00    +0.000 A 
ATOM     15  C   UNL     1       1.707   8.067  20.263  0.00  0.00    +0.000 A 
ATOM     16  C   UNL     1       1.090   9.254  19.863  0.00  0.00    +0.000 A 
ATOM     17 BR   UNL     1       0.027  10.227  21.084  0.00  0.00    +0.000 Br
ATOM     18  C   UNL     1       1.264   9.732  18.572  0.00  0.00    +0.000 A 
ATOM     19  C   UNL     1       2.077   9.030  17.681  0.00  0.00    +0.000 A 
ENDBRANCH  11  13
BRANCH   1  21
ATOM     20  C   UNL     1       0.630   3.979  20.485  0.00  0.00    +0.000 C 
ATOM     21  C   UNL     1       1.507   2.792  20.022  0.00  0.00    +0.000 C 
ATOM     22  C   UNL     1       2.143   2.169  21.278  0.00  0.00    +0.000 C 
ATOM     23  C   UNL     1       0.590   1.769  19.331  0.00  0.00    +0.000 C 
ENDBRANCH   1  21
TORSDOF 2
ENDMDL
MODEL 6
REMARK VINA RESULT:      -6.4      2.579      4.871
REMARK  Name = 
REMARK  5 active torsions:
REMARK  status: ('A' for Active; 'I' for Inactive)
REMARK    1  A    between atoms: C_1  and  C_2
REMARK    2  A    between atoms: C_2  and  C_3
REMARK    3  A    between atoms: C_2  and  C_4
REMARK    4  A    between atoms: C_2  and  C_5
REMARK    5  A    between atoms: C_15  and  C_16
REMARK                            x       y       z     vdW  Elec       q    Type
REMARK                         _______ _______ _______ _____ _____    ______ ____
ROOT
ATOM      1  C   UNL     1      -4.960  12.504  19.449  0.00  0.00    +0.000 A 
ATOM      2  N   UNL     1      -3.824  12.238  20.066  0.00  0.00    +0.000 NA
ATOM      3  C   UNL     1      -3.648  13.114  21.095  0.00  0.00    +0.000 A 
ATOM      4  C   UNL     1      -4.661  14.024  21.321  0.00  0.00    +0.000 A 
ATOM      5  S   UNL     1      -5.870  13.818  20.143  0.00  0.00    +0.000 S 
ATOM      6  C   UNL     1      -4.646  15.082  22.402  0.00  0.00    +0.000 C 
ATOM      7  C   UNL     1      -3.727  14.677  23.602  0.00  0.00    +0.000 C 
ATOM      8  C   UNL     1      -2.568  13.884  23.110  0.00  0.00    +0.000 A 
ATOM      9  O   UNL     1      -1.412  13.774  23.797  0.00  0.00    +0.000 OA
ATOM     10  N   UNL     1      -0.548  12.945  23.081  0.00  0.00    +0.000 NA
ATOM     11  C   UNL     1      -1.206  12.570  21.957  0.00  0.00    +0.000 A 
ATOM     12  C   UNL     1      -2.496  13.135  21.968  0.00  0.00    +0.000 A 
ENDROOT
BRANCH  11  13
ATOM     13  C   UNL     1      -0.581  11.699  20.957  0.00  0.00    +0.000 A 
ATOM     14  C   UNL     1      -0.200  12.202  19.706  0.00  0.00    +0.000 A 
ATOM     15  C   UNL     1       0.495  11.395  18.798  0.00  0.00    +0.000 A 
ATOM     16  C   UNL     1       0.813  10.078  19.138  0.00  0.00    +0.000 A 
ATOM     17 BR   UNL     1       1.824   9.012  17.952  0.00  0.00    +0.000 Br
ATOM     18  C   UNL     1       0.401   9.551  20.353  0.00  0.00    +0.000 A 
ATOM     19  C   UNL     1      -0.316  10.351  21.244  0.00  0.00    +0.000 A 
ENDBRANCH  11  13
BRANCH   1  21
ATOM     20  C   UNL     1      -6.045  12.721  17.185  0.00  0.00    +0.000 C 
ATOM     21  C   UNL     1      -5.453  11.737  18.222  0.00  0.00    +0.000 C 
ATOM     22  C   UNL     1      -6.565  10.745  18.604  0.00  0.00    +0.000 C 
ATOM     23  C   UNL     1      -4.285  10.992  17.552  0.00  0.00    +0.000 C 
ENDBRANCH   1  21
TORSDOF 2
ENDMDL
MODEL 7
REMARK VINA RESULT:      -6.3      2.633      4.874
REMARK  Name = 
REMARK  5 active torsions:
REMARK  status: ('A' for Active; 'I' for Inactive)
REMARK    1  A    between atoms: C_1  and  C_2
REMARK    2  A    between atoms: C_2  and  C_3
REMARK    3  A    between atoms: C_2  and  C_4
REMARK    4  A    between atoms: C_2  and  C_5
REMARK    5  A    between atoms: C_15  and  C_16
REMARK                            x       y       z     vdW  Elec       q    Type
REMARK                         _______ _______ _______ _____ _____    ______ ____
ROOT
ATOM      1  C   UNL     1      -4.844  12.435  19.528  0.00  0.00    +0.000 A 
ATOM      2  N   UNL     1      -3.712  12.273  20.186  0.00  0.00    +0.000 NA
ATOM      3  C   UNL     1      -3.632  13.192  21.189  0.00  0.00    +0.000 A 
ATOM      4  C   UNL     1      -4.715  14.032  21.355  0.00  0.00    +0.000 A 
ATOM      5  S   UNL     1      -5.868  13.701  20.151  0.00  0.00    +0.000 S 
ATOM      6  C   UNL     1      -4.809  15.122  22.400  0.00  0.00    +0.000 C 
ATOM      7  C   UNL     1      -3.902  14.823  23.639  0.00  0.00    +0.000 C 
ATOM      8  C   UNL     1      -2.674  14.101  23.208  0.00  0.00    +0.000 A 
ATOM      9  O   UNL     1      -1.535  14.099  23.931  0.00  0.00    +0.000 OA
ATOM     10  N   UNL     1      -0.592  13.313  23.268  0.00  0.00    +0.000 NA
ATOM     11  C   UNL     1      -1.185  12.855  22.140  0.00  0.00    +0.000 A 
ATOM     12  C   UNL     1      -2.513  13.324  22.094  0.00  0.00    +0.000 A 
ENDROOT
BRANCH  11  13
ATOM     13  C   UNL     1      -0.468  12.001  21.189  0.00  0.00    +0.000 A 
ATOM     14  C   UNL     1      -0.331  10.626  21.421  0.00  0.00    +0.000 A 
ATOM     15  C   UNL     1       0.257   9.798  20.458  0.00  0.00    +0.000 A 
ATOM     16  C   UNL     1       0.712  10.343  19.255  0.00  0.00    +0.000 A 
ATOM     17 BR   UNL     1       1.430   9.219  17.918  0.00  0.00    +0.000 Br
ATOM     18  C   UNL     1       0.628  11.710  19.030  0.00  0.00    +0.000 A 
ATOM     19  C   UNL     1       0.067  12.535  20.006  0.00  0.00    +0.000 A 
ENDBRANCH  11  13
BRANCH   1  21
ATOM     20  C   UNL     1      -4.022  10.795  17.800  0.00  0.00    +0.000 C 
ATOM     21  C   UNL     1      -5.242  11.596  18.313  0.00  0.00    +0.000 C 
ATOM     22  C   UNL     1      -5.724  12.494  17.159  0.00  0.00    +0.000 C 
ATOM     23  C   UNL     1      -6.340  10.590  18.695  0.00  0.00    +0.000 C 
ENDBRANCH   1  21
TORSDOF 2
ENDMDL
MODEL 8
REMARK VINA RESULT:      -6.2      3.115      5.399
REMARK  Name = 
REMARK  5 active torsions:
REMARK  status: ('A' for Active; 'I' for Inactive)
REMARK    1  A    between atoms: C_1  and  C_2
REMARK    2  A    between atoms: C_2  and  C_3
REMARK    3  A    between atoms: C_2  and  C_4
REMARK    4  A    between atoms: C_2  and  C_5
REMARK    5  A    between atoms: C_15  and  C_16
REMARK                            x       y       z     vdW  Elec       q    Type
REMARK                         _______ _______ _______ _____ _____    ______ ____
ROOT
ATOM      1  C   UNL     1      -5.121  12.582  19.256  0.00  0.00    +0.000 A 
ATOM      2  N   UNL     1      -3.852  12.584  19.617  0.00  0.00    +0.000 NA
ATOM      3  C   UNL     1      -3.181  11.616  18.931  0.00  0.00    +0.000 A 
ATOM      4  C   UNL     1      -3.902  10.898  17.998  0.00  0.00    +0.000 A 
ATOM      5  S   UNL     1      -5.521  11.413  18.026  0.00  0.00    +0.000 S 
ATOM      6  C   UNL     1      -3.340   9.778  17.149  0.00  0.00    +0.000 C 
ATOM      7  C   UNL     1      -1.794   9.914  16.952  0.00  0.00    +0.000 C 
ATOM      8  C   UNL     1      -1.177  10.511  18.168  0.00  0.00    +0.000 A 
ATOM      9  O   UNL     1       0.125  10.351  18.481  0.00  0.00    +0.000 OA
ATOM     10  N   UNL     1       0.388  11.054  19.657  0.00  0.00    +0.000 NA
ATOM     11  C   UNL     1      -0.778  11.628  20.040  0.00  0.00    +0.000 A 
ATOM     12  C   UNL     1      -1.777  11.316  19.097  0.00  0.00    +0.000 A 
ENDROOT
BRANCH  11  13
ATOM     13  C   UNL     1      -0.870  12.439  21.258  0.00  0.00    +0.000 A 
ATOM     14  C   UNL     1      -0.141  13.629  21.385  0.00  0.00    +0.000 A 
ATOM     15  C   UNL     1      -0.317  14.453  22.502  0.00  0.00    +0.000 A 
ATOM     16  C   UNL     1      -1.226  14.091  23.499  0.00  0.00    +0.000 A 
ATOM     17 BR   UNL     1      -1.529  15.240  24.966  0.00  0.00    +0.000 Br
ATOM     18  C   UNL     1      -1.919  12.893  23.412  0.00  0.00    +0.000 A 
ATOM     19  C   UNL     1      -1.719  12.060  22.310  0.00  0.00    +0.000 A 
ENDBRANCH  11  13
BRANCH   1  21
ATOM     20  C   UNL     1      -5.564  14.304  21.041  0.00  0.00    +0.000 C 
ATOM     21  C   UNL     1      -6.171  13.516  19.857  0.00  0.00    +0.000 C 
ATOM     22  C   UNL     1      -7.370  12.718  20.399  0.00  0.00    +0.000 C 
ATOM     23  C   UNL     1      -6.645  14.535  18.806  0.00  0.00    +0.000 C 
ENDBRANCH   1  21
TORSDOF 2
ENDMDL
MODEL 9
REMARK VINA RESULT:      -6.1      2.985      5.346
REMARK  Name = 
REMARK  5 active torsions:
REMARK  status: ('A' for Active; 'I' for Inactive)
REMARK    1  A    between atoms: C_1  and  C_2
REMARK    2  A    between atoms: C_2  and  C_3
REMARK    3  A    between atoms: C_2  and  C_4
REMARK    4  A    between atoms: C_2  and  C_5
REMARK    5  A    between atoms: C_15  and  C_16
REMARK                            x       y       z     vdW  Elec       q    Type
REMARK                         _______ _______ _______ _____ _____    ______ ____
ROOT
ATOM      1  C   UNL     1      -1.869  11.939  19.209  0.00  0.00    +0.000 A 
ATOM      2  N   UNL     1      -2.820  12.190  20.089  0.00  0.00    +0.000 NA
ATOM      3  C   UNL     1      -4.038  12.062  19.492  0.00  0.00    +0.000 A 
ATOM      4  C   UNL     1      -4.048  11.660  18.171  0.00  0.00    +0.000 A 
ATOM      5  S   UNL     1      -2.447  11.496  17.625  0.00  0.00    +0.000 S 
ATOM      6  C   UNL     1      -5.295  11.474  17.335  0.00  0.00    +0.000 C 
ATOM      7  C   UNL     1      -6.550  11.164  18.218  0.00  0.00    +0.000 C 
ATOM      8  C   UNL     1      -6.444  11.876  19.520  0.00  0.00    +0.000 A 
ATOM      9  O   UNL     1      -7.516  12.167  20.285  0.00  0.00    +0.000 OA
ATOM     10  N   UNL     1      -7.075  12.807  21.443  0.00  0.00    +0.000 NA
ATOM     11  C   UNL     1      -5.726  12.897  21.352  0.00  0.00    +0.000 A 
ATOM     12  C   UNL     1      -5.304  12.292  20.152  0.00  0.00    +0.000 A 
ENDROOT
BRANCH  11  13
ATOM     13  C   UNL     1      -4.927  13.535  22.402  0.00  0.00    +0.000 A 
ATOM     14  C   UNL     1      -4.636  12.857  23.594  0.00  0.00    +0.000 A 
ATOM     15  C   UNL     1      -3.782  13.429  24.545  0.00  0.00    +0.000 A 
ATOM     16  C   UNL     1      -3.215  14.683  24.307  0.00  0.00    +0.000 A 
ATOM     17 BR   UNL     1      -1.996  15.420  25.548  0.00  0.00    +0.000 Br
ATOM     18  C   UNL     1      -3.531  15.387  23.155  0.00  0.00    +0.000 A 
ATOM     19  C   UNL     1      -4.405  14.826  22.223  0.00  0.00    +0.000 A 
ENDBRANCH  11  13
BRANCH   1  21
ATOM     20  C   UNL     1      -0.173  12.219  21.052  0.00  0.00    +0.000 C 
ATOM     21  C   UNL     1      -0.377  12.029  19.530  0.00  0.00    +0.000 C 
ATOM     22  C   UNL     1       0.266  13.236  18.824  0.00  0.00    +0.000 C 
ATOM     23  C   UNL     1       0.338  10.732  19.117  0.00  0.00    +0.000 C 
ENDBRANCH   1  21
TORSDOF 2
ENDMDL
