MODEL 1
REMARK VINA RESULT:      -8.2      0.000      0.000
REMARK  Name = 
REMARK  6 active torsions:
REMARK  status: ('A' for Active; 'I' for Inactive)
REMARK    1  A    between atoms: C_7  and  O_8
REMARK    2  A    between atoms: O_8  and  C_9
REMARK    3  A    between atoms: C_9  and  C_10
REMARK    4  A    between atoms: C_10  and  N_11
REMARK    5  A    between atoms: C_15  and  C_16
REMARK    6  A    between atoms: N_20  and  C_21
REMARK                            x       y       z     vdW  Elec       q    Type
REMARK                         _______ _______ _______ _____ _____    ______ ____
ROOT
ATOM      1  N   UNL     1       3.104   4.058  20.043  0.00  0.00    +0.000 NA
ATOM      2  C   UNL     1       2.860   2.607  20.022  0.00  0.00    +0.000 C 
ATOM      3  C   UNL     1       3.790   1.896  19.037  0.00  0.00    +0.000 C 
ATOM      4  C   UNL     1       3.689   2.498  17.639  0.00  0.00    +0.000 C 
ATOM      5  C   UNL     1       3.926   4.024  17.678  0.00  0.00    +0.000 C 
ATOM      6  C   UNL     1       2.948   4.638  18.695  0.00  0.00    +0.000 C 
ENDROOT
BRANCH   5   7
ATOM      7  C   UNL     1       5.409   4.311  17.799  0.00  0.00    +0.000 A 
ATOM      8  N   UNL     1       5.941   4.654  18.969  0.00  0.00    +0.000 NA
ATOM      9  N   UNL     1       7.281   4.887  18.814  0.00  0.00    +0.000 NA
ATOM     10  C   UNL     1       7.566   4.665  17.555  0.00  0.00    +0.000 A 
ATOM     11  N   UNL     1       6.443   4.280  16.882  0.00  0.00    +0.000 N 
BRANCH  11  12
ATOM     12  C   UNL     1       6.443   3.873  15.496  0.00  0.00    +0.000 C 
ATOM     13  C   UNL     1       5.514   4.460  14.447  0.00  0.00    +0.000 C 
ATOM     14  C   UNL     1       6.968   4.785  14.402  0.00  0.00    +0.000 C 
ENDBRANCH  11  12
ENDBRANCH   5   7
BRANCH   1  15
ATOM     15  C   UNL     1       2.279   4.754  21.054  0.00  0.00    +0.000 C 
BRANCH  15  16
ATOM     16  C   UNL     1       1.473   5.901  20.414  0.00  0.00    +0.000 C 
BRANCH  16  17
ATOM     17  O   UNL     1       2.192   7.137  20.426  0.00  0.00    +0.000 OA
BRANCH  17  24
ATOM     18 CL   UNL     1      -0.782  10.309  23.199  0.00  0.00    +0.000 Cl
ATOM     19  C   UNL     1       0.005   9.845  21.740  0.00  0.00    +0.000 A 
ATOM     20  C   UNL     1      -0.134  10.630  20.600  0.00  0.00    +0.000 A 
ATOM     21  C   UNL     1       0.503  10.245  19.421  0.00  0.00    +0.000 A 
ATOM     22  C   UNL     1       1.275   9.075  19.386  0.00  0.00    +0.000 A 
ATOM     23 CL   UNL     1       2.032   8.653  17.890  0.00  0.00    +0.000 Cl
ATOM     24  C   UNL     1       1.419   8.275  20.534  0.00  0.00    +0.000 A 
ATOM     25  C   UNL     1       0.775   8.681  21.712  0.00  0.00    +0.000 A 
ENDBRANCH  17  24
ENDBRANCH  16  17
ENDBRANCH  15  16
ENDBRANCH   1  15
TORSDOF 6
ENDMDL
MODEL 2
REMARK VINA RESULT:      -8.0      1.087      1.307
REMARK  Name = 
REMARK  6 active torsions:
REMARK  status: ('A' for Active; 'I' for Inactive)
REMARK    1  A    between atoms: C_7  and  O_8
REMARK    2  A    between atoms: O_8  and  C_9
REMARK    3  A    between atoms: C_9  and  C_10
REMARK    4  A    between atoms: C_10  and  N_11
REMARK    5  A    between atoms: C_15  and  C_16
REMARK    6  A    between atoms: N_20  and  C_21
REMARK                            x       y       z     vdW  Elec       q    Type
REMARK                         _______ _______ _______ _____ _____    ______ ____
ROOT
ATOM      1  N   UNL     1       2.297   3.786  19.502  0.00  0.00    +0.000 NA
ATOM      2  C   UNL     1       2.232   2.340  19.766  0.00  0.00    +0.000 C 
ATOM      3  C   UNL     1       3.426   1.603  19.153  0.00  0.00    +0.000 C 
ATOM      4  C   UNL     1       3.553   1.892  17.661  0.00  0.00    +0.000 C 
ATOM      5  C   UNL     1       3.600   3.413  17.396  0.00  0.00    +0.000 C 
ATOM      6  C   UNL     1       2.364   4.054  18.052  0.00  0.00    +0.000 C 
ENDROOT
BRANCH   5   7
ATOM      7  C   UNL     1       4.980   3.949  17.717  0.00  0.00    +0.000 A 
ATOM      8  N   UNL     1       5.308   4.278  18.963  0.00  0.00    +0.000 NA
ATOM      9  N   UNL     1       6.589   4.760  18.989  0.00  0.00    +0.000 NA
ATOM     10  C   UNL     1       7.045   4.704  17.763  0.00  0.00    +0.000 A 
ATOM     11  N   UNL     1       6.095   4.185  16.934  0.00  0.00    +0.000 N 
BRANCH  11  12
ATOM     12  C   UNL     1       6.321   3.908  15.534  0.00  0.00    +0.000 C 
ATOM     13  C   UNL     1       5.594   4.621  14.407  0.00  0.00    +0.000 C 
ATOM     14  C   UNL     1       7.041   4.897  14.636  0.00  0.00    +0.000 C 
ENDBRANCH  11  12
ENDBRANCH   5   7
BRANCH   1  15
ATOM     15  C   UNL     1       1.202   4.530  20.161  0.00  0.00    +0.000 C 
BRANCH  15  16
ATOM     16  C   UNL     1       1.743   5.770  20.899  0.00  0.00    +0.000 C 
BRANCH  16  17
ATOM     17  O   UNL     1       2.605   6.555  20.071  0.00  0.00    +0.000 OA
BRANCH  17  24
ATOM     18 CL   UNL     1      -0.487  10.638  20.678  0.00  0.00    +0.000 Cl
ATOM     19  C   UNL     1       0.649   9.707  19.780  0.00  0.00    +0.000 A 
ATOM     20  C   UNL     1       1.056  10.140  18.522  0.00  0.00    +0.000 A 
ATOM     21  C   UNL     1       1.973   9.377  17.800  0.00  0.00    +0.000 A 
ATOM     22  C   UNL     1       2.478   8.184  18.336  0.00  0.00    +0.000 A 
ATOM     23 CL   UNL     1       3.606   7.285  17.384  0.00  0.00    +0.000 Cl
ATOM     24  C   UNL     1       2.069   7.739  19.606  0.00  0.00    +0.000 A 
ATOM     25  C   UNL     1       1.150   8.522  20.321  0.00  0.00    +0.000 A 
ENDBRANCH  17  24
ENDBRANCH  16  17
ENDBRANCH  15  16
ENDBRANCH   1  15
TORSDOF 6
ENDMDL
MODEL 3
REMARK VINA RESULT:      -8.0      3.005      5.267
REMARK  Name = 
REMARK  6 active torsions:
REMARK  status: ('A' for Active; 'I' for Inactive)
REMARK    1  A    between atoms: C_7  and  O_8
REMARK    2  A    between atoms: O_8  and  C_9
REMARK    3  A    between atoms: C_9  and  C_10
REMARK    4  A    between atoms: C_10  and  N_11
REMARK    5  A    between atoms: C_15  and  C_16
REMARK    6  A    between atoms: N_20  and  C_21
REMARK                            x       y       z     vdW  Elec       q    Type
REMARK                         _______ _______ _______ _____ _____    ______ ____
ROOT
ATOM      1  N   UNL     1       5.144   6.549  16.550  0.00  0.00    +0.000 NA
ATOM      2  C   UNL     1       6.118   6.768  17.630  0.00  0.00    +0.000 C 
ATOM      3  C   UNL     1       7.456   6.090  17.326  0.00  0.00    +0.000 C 
ATOM      4  C   UNL     1       7.275   4.604  17.033  0.00  0.00    +0.000 C 
ATOM      5  C   UNL     1       6.235   4.387  15.911  0.00  0.00    +0.000 C 
ATOM      6  C   UNL     1       4.936   5.106  16.313  0.00  0.00    +0.000 C 
ENDROOT
BRANCH   5   7
ATOM      7  C   UNL     1       6.865   4.676  14.564  0.00  0.00    +0.000 A 
ATOM      8  N   UNL     1       7.879   5.530  14.456  0.00  0.00    +0.000 NA
ATOM      9  N   UNL     1       8.250   5.640  13.144  0.00  0.00    +0.000 NA
ATOM     10  C   UNL     1       7.476   4.839  12.457  0.00  0.00    +0.000 A 
ATOM     11  N   UNL     1       6.611   4.194  13.293  0.00  0.00    +0.000 N 
BRANCH  11  12
ATOM     12  C   UNL     1       5.688   3.172  12.854  0.00  0.00    +0.000 C 
ATOM     13  C   UNL     1       4.652   3.386  11.764  0.00  0.00    +0.000 C 
ATOM     14  C   UNL     1       5.827   2.509  11.496  0.00  0.00    +0.000 C 
ENDBRANCH  11  12
ENDBRANCH   5   7
BRANCH   1  15
ATOM     15  C   UNL     1       3.874   7.270  16.779  0.00  0.00    +0.000 C 
BRANCH  15  16
ATOM     16  C   UNL     1       3.356   7.035  18.211  0.00  0.00    +0.000 C 
BRANCH  16  17
ATOM     17  O   UNL     1       2.195   6.199  18.233  0.00  0.00    +0.000 OA
BRANCH  17  24
ATOM     18 CL   UNL     1       3.435   1.213  18.670  0.00  0.00    +0.000 Cl
ATOM     19  C   UNL     1       2.857   2.701  19.314  0.00  0.00    +0.000 A 
ATOM     20  C   UNL     1       2.468   2.772  20.647  0.00  0.00    +0.000 A 
ATOM     21  C   UNL     1       1.997   3.981  21.159  0.00  0.00    +0.000 A 
ATOM     22  C   UNL     1       1.914   5.112  20.335  0.00  0.00    +0.000 A 
ATOM     23 CL   UNL     1       1.315   6.576  21.033  0.00  0.00    +0.000 Cl
ATOM     24  C   UNL     1       2.305   5.048  18.986  0.00  0.00    +0.000 A 
ATOM     25  C   UNL     1       2.781   3.825  18.489  0.00  0.00    +0.000 A 
ENDBRANCH  17  24
ENDBRANCH  16  17
ENDBRANCH  15  16
ENDBRANCH   1  15
TORSDOF 6
ENDMDL
MODEL 4
REMARK VINA RESULT:      -7.6      3.396      5.432
REMARK  Name = 
REMARK  6 active torsions:
REMARK  status: ('A' for Active; 'I' for Inactive)
REMARK    1  A    between atoms: C_7  and  O_8
REMARK    2  A    between atoms: O_8  and  C_9
REMARK    3  A    between atoms: C_9  and  C_10
REMARK    4  A    between atoms: C_10  and  N_11
REMARK    5  A    between atoms: C_15  and  C_16
REMARK    6  A    between atoms: N_20  and  C_21
REMARK                            x       y       z     vdW  Elec       q    Type
REMARK                         _______ _______ _______ _____ _____    ______ ____
ROOT
ATOM      1  N   UNL     1       5.020   6.090  16.850  0.00  0.00    +0.000 NA
ATOM      2  C   UNL     1       5.999   6.407  17.901  0.00  0.00    +0.000 C 
ATOM      3  C   UNL     1       7.408   5.951  17.512  0.00  0.00    +0.000 C 
ATOM      4  C   UNL     1       7.435   4.469  17.154  0.00  0.00    +0.000 C 
ATOM      5  C   UNL     1       6.388   4.146  16.065  0.00  0.00    +0.000 C 
ATOM      6  C   UNL     1       5.017   4.644  16.552  0.00  0.00    +0.000 C 
ENDROOT
BRANCH   5   7
ATOM      7  C   UNL     1       6.905   4.582  14.709  0.00  0.00    +0.000 A 
ATOM      8  N   UNL     1       7.877   5.485  14.611  0.00  0.00    +0.000 NA
ATOM      9  N   UNL     1       8.145   5.729  13.292  0.00  0.00    +0.000 NA
ATOM     10  C   UNL     1       7.351   4.961  12.589  0.00  0.00    +0.000 A 
ATOM     11  N   UNL     1       6.575   4.208  13.420  0.00  0.00    +0.000 N 
BRANCH  11  12
ATOM     12  C   UNL     1       5.658   3.192  12.954  0.00  0.00    +0.000 C 
ATOM     13  C   UNL     1       4.646   3.417  11.845  0.00  0.00    +0.000 C 
ATOM     14  C   UNL     1       5.824   2.539  11.594  0.00  0.00    +0.000 C 
ENDBRANCH  11  12
ENDBRANCH   5   7
BRANCH   1  15
ATOM     15  C   UNL     1       3.668   6.602  17.164  0.00  0.00    +0.000 C 
BRANCH  15  16
ATOM     16  C   UNL     1       3.444   6.671  18.687  0.00  0.00    +0.000 C 
BRANCH  16  17
ATOM     17  O   UNL     1       2.401   5.791  19.117  0.00  0.00    +0.000 OA
BRANCH  17  24
ATOM     18 CL   UNL     1       5.062   1.674  20.720  0.00  0.00    +0.000 Cl
ATOM     19  C   UNL     1       3.883   2.431  19.721  0.00  0.00    +0.000 A 
ATOM     20  C   UNL     1       3.183   1.677  18.785  0.00  0.00    +0.000 A 
ATOM     21  C   UNL     1       2.233   2.299  17.976  0.00  0.00    +0.000 A 
ATOM     22  C   UNL     1       1.988   3.674  18.105  0.00  0.00    +0.000 A 
ATOM     23 CL   UNL     1       0.801   4.382  17.066  0.00  0.00    +0.000 Cl
ATOM     24  C   UNL     1       2.692   4.444  19.047  0.00  0.00    +0.000 A 
ATOM     25  C   UNL     1       3.641   3.800  19.856  0.00  0.00    +0.000 A 
ENDBRANCH  17  24
ENDBRANCH  16  17
ENDBRANCH  15  16
ENDBRANCH   1  15
TORSDOF 6
ENDMDL
MODEL 5
REMARK VINA RESULT:      -7.2      1.227      2.178
REMARK  Name = 
REMARK  6 active torsions:
REMARK  status: ('A' for Active; 'I' for Inactive)
REMARK    1  A    between atoms: C_7  and  O_8
REMARK    2  A    between atoms: O_8  and  C_9
REMARK    3  A    between atoms: C_9  and  C_10
REMARK    4  A    between atoms: C_10  and  N_11
REMARK    5  A    between atoms: C_15  and  C_16
REMARK    6  A    between atoms: N_20  and  C_21
REMARK                            x       y       z     vdW  Elec       q    Type
REMARK                         _______ _______ _______ _____ _____    ______ ____
ROOT
ATOM      1  N   UNL     1       2.641   4.978  19.708  0.00  0.00    +0.000 NA
ATOM      2  C   UNL     1       2.159   3.603  19.500  0.00  0.00    +0.000 C 
ATOM      3  C   UNL     1       3.131   2.792  18.640  0.00  0.00    +0.000 C 
ATOM      4  C   UNL     1       3.417   3.489  17.314  0.00  0.00    +0.000 C 
ATOM      5  C   UNL     1       3.902   4.937  17.545  0.00  0.00    +0.000 C 
ATOM      6  C   UNL     1       2.860   5.660  18.417  0.00  0.00    +0.000 C 
ENDROOT
BRANCH   5   7
ATOM      7  C   UNL     1       5.357   4.931  17.967  0.00  0.00    +0.000 A 
ATOM      8  N   UNL     1       5.691   4.898  19.254  0.00  0.00    +0.000 NA
ATOM      9  N   UNL     1       7.054   4.929  19.376  0.00  0.00    +0.000 NA
ATOM     10  C   UNL     1       7.547   4.960  18.164  0.00  0.00    +0.000 A 
ATOM     11  N   UNL     1       6.537   4.938  17.247  0.00  0.00    +0.000 N 
BRANCH  11  12
ATOM     12  C   UNL     1       6.754   4.870  15.820  0.00  0.00    +0.000 C 
ATOM     13  C   UNL     1       6.141   3.807  14.925  0.00  0.00    +0.000 C 
ATOM     14  C   UNL     1       5.653   5.213  14.833  0.00  0.00    +0.000 C 
ENDBRANCH  11  12
ENDBRANCH   5   7
BRANCH   1  15
ATOM     15  C   UNL     1       1.763   5.753  20.611  0.00  0.00    +0.000 C 
BRANCH  15  16
ATOM     16  C   UNL     1       1.857   7.262  20.313  0.00  0.00    +0.000 C 
BRANCH  16  17
ATOM     17  O   UNL     1       1.424   8.058  21.420  0.00  0.00    +0.000 OA
BRANCH  17  24
ATOM     18 CL   UNL     1      -0.648  11.243  17.934  0.00  0.00    +0.000 Cl
ATOM     19  C   UNL     1      -0.402  10.706  19.550  0.00  0.00    +0.000 A 
ATOM     20  C   UNL     1      -1.010  11.382  20.603  0.00  0.00    +0.000 A 
ATOM     21  C   UNL     1      -0.802  10.943  21.910  0.00  0.00    +0.000 A 
ATOM     22  C   UNL     1       0.015   9.830  22.159  0.00  0.00    +0.000 A 
ATOM     23 CL   UNL     1       0.234   9.344  23.804  0.00  0.00    +0.000 Cl
ATOM     24  C   UNL     1       0.633   9.142  21.101  0.00  0.00    +0.000 A 
ATOM     25  C   UNL     1       0.408   9.595  19.792  0.00  0.00    +0.000 A 
ENDBRANCH  17  24
ENDBRANCH  16  17
ENDBRANCH  15  16
ENDBRANCH   1  15
TORSDOF 6
ENDMDL
MODEL 6
REMARK VINA RESULT:      -7.2      2.116      4.515
REMARK  Name = 
REMARK  6 active torsions:
REMARK  status: ('A' for Active; 'I' for Inactive)
REMARK    1  A    between atoms: C_7  and  O_8
REMARK    2  A    between atoms: O_8  and  C_9
REMARK    3  A    between atoms: C_9  and  C_10
REMARK    4  A    between atoms: C_10  and  N_11
REMARK    5  A    between atoms: C_15  and  C_16
REMARK    6  A    between atoms: N_20  and  C_21
REMARK                            x       y       z     vdW  Elec       q    Type
REMARK                         _______ _______ _______ _____ _____    ______ ____
ROOT
ATOM      1  N   UNL     1       3.909   6.619  17.454  0.00  0.00    +0.000 NA
ATOM      2  C   UNL     1       4.909   6.460  16.387  0.00  0.00    +0.000 C 
ATOM      3  C   UNL     1       5.286   4.990  16.184  0.00  0.00    +0.000 C 
ATOM      4  C   UNL     1       5.753   4.349  17.487  0.00  0.00    +0.000 C 
ATOM      5  C   UNL     1       4.703   4.541  18.603  0.00  0.00    +0.000 C 
ATOM      6  C   UNL     1       4.396   6.043  18.723  0.00  0.00    +0.000 C 
ENDROOT
BRANCH   5   7
ATOM      7  C   UNL     1       3.566   3.557  18.414  0.00  0.00    +0.000 A 
ATOM      8  N   UNL     1       3.202   3.166  17.196  0.00  0.00    +0.000 NA
ATOM      9  N   UNL     1       2.143   2.304  17.287  0.00  0.00    +0.000 NA
ATOM     10  C   UNL     1       1.877   2.156  18.561  0.00  0.00    +0.000 A 
ATOM     11  N   UNL     1       2.748   2.894  19.309  0.00  0.00    +0.000 N 
BRANCH  11  12
ATOM     12  C   UNL     1       2.777   2.872  20.753  0.00  0.00    +0.000 C 
ATOM     13  C   UNL     1       2.162   3.955  21.623  0.00  0.00    +0.000 C 
ATOM     14  C   UNL     1       1.523   2.610  21.567  0.00  0.00    +0.000 C 
ENDBRANCH  11  12
ENDBRANCH   5   7
BRANCH   1  15
ATOM     15  C   UNL     1       3.463   8.020  17.607  0.00  0.00    +0.000 C 
BRANCH  15  16
ATOM     16  C   UNL     1       1.985   8.087  18.037  0.00  0.00    +0.000 C 
BRANCH  16  17
ATOM     17  O   UNL     1       1.838   8.506  19.396  0.00  0.00    +0.000 OA
BRANCH  17  24
ATOM     18 CL   UNL     1      -1.707  11.824  17.661  0.00  0.00    +0.000 Cl
ATOM     19  C   UNL     1      -0.842  11.044  18.927  0.00  0.00    +0.000 A 
ATOM     20  C   UNL     1      -1.116  11.367  20.252  0.00  0.00    +0.000 A 
ATOM     21  C   UNL     1      -0.407  10.733  21.272  0.00  0.00    +0.000 A 
ATOM     22  C   UNL     1       0.575   9.781  20.963  0.00  0.00    +0.000 A 
ATOM     23 CL   UNL     1       1.419   9.039  22.276  0.00  0.00    +0.000 Cl
ATOM     24  C   UNL     1       0.858   9.450  19.626  0.00  0.00    +0.000 A 
ATOM     25  C   UNL     1       0.132  10.094  18.614  0.00  0.00    +0.000 A 
ENDBRANCH  17  24
ENDBRANCH  16  17
ENDBRANCH  15  16
ENDBRANCH   1  15
TORSDOF 6
ENDMDL
MODEL 7
REMARK VINA RESULT:      -7.2      1.640      2.630
REMARK  Name = 
REMARK  6 active torsions:
REMARK  status: ('A' for Active; 'I' for Inactive)
REMARK    1  A    between atoms: C_7  and  O_8
REMARK    2  A    between atoms: O_8  and  C_9
REMARK    3  A    between atoms: C_9  and  C_10
REMARK    4  A    between atoms: C_10  and  N_11
REMARK    5  A    between atoms: C_15  and  C_16
REMARK    6  A    between atoms: N_20  and  C_21
REMARK                            x       y       z     vdW  Elec       q    Type
REMARK                         _______ _______ _______ _____ _____    ______ ____
ROOT
ATOM      1  N   UNL     1       2.856   6.471  19.346  0.00  0.00    +0.000 NA
ATOM      2  C   UNL     1       2.227   5.418  20.158  0.00  0.00    +0.000 C 
ATOM      3  C   UNL     1       3.092   4.156  20.211  0.00  0.00    +0.000 C 
ATOM      4  C   UNL     1       3.429   3.653  18.811  0.00  0.00    +0.000 C 
ATOM      5  C   UNL     1       4.069   4.773  17.962  0.00  0.00    +0.000 C 
ATOM      6  C   UNL     1       3.126   5.988  17.977  0.00  0.00    +0.000 C 
ENDROOT
BRANCH   5   7
ATOM      7  C   UNL     1       5.523   4.948  18.354  0.00  0.00    +0.000 A 
ATOM      8  N   UNL     1       5.866   5.133  19.625  0.00  0.00    +0.000 NA
ATOM      9  N   UNL     1       7.222   5.292  19.717  0.00  0.00    +0.000 NA
ATOM     10  C   UNL     1       7.704   5.183  18.505  0.00  0.00    +0.000 A 
ATOM     11  N   UNL     1       6.694   4.944  17.619  0.00  0.00    +0.000 N 
BRANCH  11  12
ATOM     12  C   UNL     1       6.908   4.684  16.214  0.00  0.00    +0.000 C 
ATOM     13  C   UNL     1       6.022   3.773  15.383  0.00  0.00    +0.000 C 
ATOM     14  C   UNL     1       5.979   5.245  15.154  0.00  0.00    +0.000 C 
ENDBRANCH  11  12
ENDBRANCH   5   7
BRANCH   1  15
ATOM     15  C   UNL     1       2.082   7.730  19.355  0.00  0.00    +0.000 C 
BRANCH  15  16
ATOM     16  C   UNL     1       1.618   8.084  20.781  0.00  0.00    +0.000 C 
BRANCH  16  17
ATOM     17  O   UNL     1       0.210   8.329  20.844  0.00  0.00    +0.000 OA
BRANCH  17  24
ATOM     18 CL   UNL     1      -1.060  12.599  18.246  0.00  0.00    +0.000 Cl
ATOM     19  C   UNL     1      -0.781  11.730  19.705  0.00  0.00    +0.000 A 
ATOM     20  C   UNL     1      -0.924  12.372  20.930  0.00  0.00    +0.000 A 
ATOM     21  C   UNL     1      -0.691  11.662  22.108  0.00  0.00    +0.000 A 
ATOM     22  C   UNL     1      -0.314  10.312  22.055  0.00  0.00    +0.000 A 
ATOM     23 CL   UNL     1      -0.035   9.494  23.552  0.00  0.00    +0.000 Cl
ATOM     24  C   UNL     1      -0.165   9.656  20.820  0.00  0.00    +0.000 A 
ATOM     25  C   UNL     1      -0.409  10.385  19.647  0.00  0.00    +0.000 A 
ENDBRANCH  17  24
ENDBRANCH  16  17
ENDBRANCH  15  16
ENDBRANCH   1  15
TORSDOF 6
ENDMDL
MODEL 8
REMARK VINA RESULT:      -7.2      1.283      1.648
REMARK  Name = 
REMARK  6 active torsions:
REMARK  status: ('A' for Active; 'I' for Inactive)
REMARK    1  A    between atoms: C_7  and  O_8
REMARK    2  A    between atoms: O_8  and  C_9
REMARK    3  A    between atoms: C_9  and  C_10
REMARK    4  A    between atoms: C_10  and  N_11
REMARK    5  A    between atoms: C_15  and  C_16
REMARK    6  A    between atoms: N_20  and  C_21
REMARK                            x       y       z     vdW  Elec       q    Type
REMARK                         _______ _______ _______ _____ _____    ______ ____
ROOT
ATOM      1  N   UNL     1       2.926   5.887  19.503  0.00  0.00    +0.000 NA
ATOM      2  C   UNL     1       2.441   4.762  20.318  0.00  0.00    +0.000 C 
ATOM      3  C   UNL     1       3.280   3.503  20.092  0.00  0.00    +0.000 C 
ATOM      4  C   UNL     1       3.345   3.133  18.614  0.00  0.00    +0.000 C 
ATOM      5  C   UNL     1       3.835   4.328  17.768  0.00  0.00    +0.000 C 
ATOM      6  C   UNL     1       2.931   5.536  18.070  0.00  0.00    +0.000 C 
ENDROOT
BRANCH   5   7
ATOM      7  C   UNL     1       5.338   4.468  17.898  0.00  0.00    +0.000 A 
ATOM      8  N   UNL     1       5.897   4.727  19.077  0.00  0.00    +0.000 NA
ATOM      9  N   UNL     1       7.253   4.834  18.929  0.00  0.00    +0.000 NA
ATOM     10  C   UNL     1       7.520   4.619  17.666  0.00  0.00    +0.000 A 
ATOM     11  N   UNL     1       6.368   4.362  16.981  0.00  0.00    +0.000 N 
BRANCH  11  12
ATOM     12  C   UNL     1       6.334   3.994  15.585  0.00  0.00    +0.000 C 
ATOM     13  C   UNL     1       5.576   4.777  14.527  0.00  0.00    +0.000 C 
ATOM     14  C   UNL     1       7.066   4.806  14.533  0.00  0.00    +0.000 C 
ENDBRANCH  11  12
ENDBRANCH   5   7
BRANCH   1  15
ATOM     15  C   UNL     1       2.187   7.140  19.773  0.00  0.00    +0.000 C 
BRANCH  15  16
ATOM     16  C   UNL     1       2.353   8.140  18.612  0.00  0.00    +0.000 C 
BRANCH  16  17
ATOM     17  O   UNL     1       1.182   8.938  18.419  0.00  0.00    +0.000 OA
BRANCH  17  24
ATOM     18 CL   UNL     1      -0.935  10.232  22.940  0.00  0.00    +0.000 Cl
ATOM     19  C   UNL     1      -0.027  10.595  21.524  0.00  0.00    +0.000 A 
ATOM     20  C   UNL     1       0.476  11.878  21.336  0.00  0.00    +0.000 A 
ATOM     21  C   UNL     1       1.208  12.164  20.183  0.00  0.00    +0.000 A 
ATOM     22  C   UNL     1       1.431  11.167  19.223  0.00  0.00    +0.000 A 
ATOM     23 CL   UNL     1       2.340  11.593  17.816  0.00  0.00    +0.000 Cl
ATOM     24  C   UNL     1       0.925   9.868  19.405  0.00  0.00    +0.000 A 
ATOM     25  C   UNL     1       0.196   9.597  20.573  0.00  0.00    +0.000 A 
ENDBRANCH  17  24
ENDBRANCH  16  17
ENDBRANCH  15  16
ENDBRANCH   1  15
TORSDOF 6
ENDMDL
MODEL 9
REMARK VINA RESULT:      -7.2      2.084      2.963
REMARK  Name = 
REMARK  6 active torsions:
REMARK  status: ('A' for Active; 'I' for Inactive)
REMARK    1  A    between atoms: C_7  and  O_8
REMARK    2  A    between atoms: O_8  and  C_9
REMARK    3  A    between atoms: C_9  and  C_10
REMARK    4  A    between atoms: C_10  and  N_11
REMARK    5  A    between atoms: C_15  and  C_16
REMARK    6  A    between atoms: N_20  and  C_21
REMARK                            x       y       z     vdW  Elec       q    Type
REMARK                         _______ _______ _______ _____ _____    ______ ____
ROOT
ATOM      1  N   UNL     1       2.967   6.584  18.437  0.00  0.00    +0.000 NA
ATOM      2  C   UNL     1       2.454   6.204  19.763  0.00  0.00    +0.000 C 
ATOM      3  C   UNL     1       3.265   5.058  20.372  0.00  0.00    +0.000 C 
ATOM      4  C   UNL     1       3.327   3.858  19.433  0.00  0.00    +0.000 C 
ATOM      5  C   UNL     1       3.847   4.274  18.040  0.00  0.00    +0.000 C 
ATOM      6  C   UNL     1       2.969   5.425  17.522  0.00  0.00    +0.000 C 
ENDROOT
BRANCH   5   7
ATOM      7  C   UNL     1       5.353   4.440  18.082  0.00  0.00    +0.000 A 
ATOM      8  N   UNL     1       5.979   4.666  19.234  0.00  0.00    +0.000 NA
ATOM      9  N   UNL     1       7.321   4.807  19.006  0.00  0.00    +0.000 NA
ATOM     10  C   UNL     1       7.512   4.647  17.721  0.00  0.00    +0.000 A 
ATOM     11  N   UNL     1       6.324   4.391  17.100  0.00  0.00    +0.000 N 
BRANCH  11  12
ATOM     12  C   UNL     1       6.209   4.076  15.695  0.00  0.00    +0.000 C 
ATOM     13  C   UNL     1       5.605   5.019  14.668  0.00  0.00    +0.000 C 
ATOM     14  C   UNL     1       7.073   4.765  14.655  0.00  0.00    +0.000 C 
ENDBRANCH  11  12
ENDBRANCH   5   7
BRANCH   1  15
ATOM     15  C   UNL     1       2.255   7.749  17.868  0.00  0.00    +0.000 C 
BRANCH  15  16
ATOM     16  C   UNL     1       1.742   8.681  18.983  0.00  0.00    +0.000 C 
BRANCH  16  17
ATOM     17  O   UNL     1       1.523  10.013  18.511  0.00  0.00    +0.000 OA
BRANCH  17  24
ATOM     18 CL   UNL     1      -3.413  10.004  17.019  0.00  0.00    +0.000 Cl
ATOM     19  C   UNL     1      -2.123  10.564  18.010  0.00  0.00    +0.000 A 
ATOM     20  C   UNL     1      -2.364  11.538  18.973  0.00  0.00    +0.000 A 
ATOM     21  C   UNL     1      -1.311  11.989  19.769  0.00  0.00    +0.000 A 
ATOM     22  C   UNL     1      -0.022  11.466  19.598  0.00  0.00    +0.000 A 
ATOM     23 CL   UNL     1       1.237  12.075  20.615  0.00  0.00    +0.000 Cl
ATOM     24  C   UNL     1       0.230  10.482  18.626  0.00  0.00    +0.000 A 
ATOM     25  C   UNL     1      -0.841  10.037  17.837  0.00  0.00    +0.000 A 
ENDBRANCH  17  24
ENDBRANCH  16  17
ENDBRANCH  15  16
ENDBRANCH   1  15
TORSDOF 6
ENDMDL
