MODEL 1
REMARK VINA RESULT:      -9.3      0.000      0.000
REMARK  Name = 
REMARK  9 active torsions:
REMARK  status: ('A' for Active; 'I' for Inactive)
REMARK    1  A    between atoms: C_1  and  C_2
REMARK    2  A    between atoms: C_2  and  C_3
REMARK    3  A    between atoms: C_3  and  S_4
REMARK    4  A    between atoms: S_4  and  N_7
REMARK    5  A    between atoms: N_7  and  C_8
REMARK    6  A    between atoms: C_13  and  C_14
REMARK    7  A    between atoms: C_14  and  C_16
REMARK    8  A    between atoms: C_22  and  C_23
REMARK    9  A    between atoms: C_26  and  C_27
REMARK                            x       y       z     vdW  Elec       q    Type
REMARK                         _______ _______ _______ _____ _____    ______ ____
ROOT
ATOM      1  C   UNL     1       2.100   6.406  19.713  0.00  0.00    +0.000 C 
ATOM      2  O   UNL     1       1.509   6.308  20.785  0.00  0.00    +0.000 OA
ENDROOT
BRANCH   1   3
ATOM      3  C   UNL     1       2.153   7.678  18.974  0.00  0.00    +0.000 A 
ATOM      4  N   UNL     1       2.900   7.828  17.858  0.00  0.00    +0.000 NA
ATOM      5  N   UNL     1       2.724   9.124  17.520  0.00  0.00    +0.000 N 
ATOM      6  C   UNL     1       1.857   9.795  18.329  0.00  0.00    +0.000 A 
ATOM      7  N   UNL     1       1.499  11.082  18.203  0.00  0.00    +0.000 NA
ATOM      8  C   UNL     1       0.619  11.472  19.162  0.00  0.00    +0.000 A 
ATOM      9  C   UNL     1       0.086  10.686  20.198  0.00  0.00    +0.000 A 
ATOM     10  C   UNL     1       0.527   9.347  20.255  0.00  0.00    +0.000 A 
ATOM     11  C   UNL     1       1.444   8.885  19.287  0.00  0.00    +0.000 A 
ATOM     12  H   UNL     1       3.218   9.505  16.725  0.00  0.00    +0.000 HD
BRANCH   9  13
ATOM     13  C   UNL     1      -0.871  11.251  21.182  0.00  0.00    +0.000 A 
ATOM     14  C   UNL     1      -0.876  10.833  22.526  0.00  0.00    +0.000 A 
ATOM     15  C   UNL     1      -1.808  11.325  23.449  0.00  0.00    +0.000 A 
ATOM     16  C   UNL     1      -2.761  12.265  23.058  0.00  0.00    +0.000 A 
ATOM     17  C   UNL     1      -3.782  12.783  24.027  0.00  0.00    +0.000 C 
ATOM     18  C   UNL     1      -2.757  12.714  21.736  0.00  0.00    +0.000 A 
ATOM     19  C   UNL     1      -1.828  12.213  20.813  0.00  0.00    +0.000 A 
ENDBRANCH   9  13
ENDBRANCH   1   3
BRANCH   1  25
ATOM     20  C   UNL     1       4.875   4.017  18.678  0.00  0.00    +0.000 A 
ATOM     21  C   UNL     1       4.151   2.984  18.083  0.00  0.00    +0.000 A 
ATOM     22  C   UNL     1       2.761   3.068  18.023  0.00  0.00    +0.000 A 
ATOM     23  C   UNL     1       2.101   4.183  18.542  0.00  0.00    +0.000 A 
ATOM     24  F   UNL     1       0.774   4.252  18.363  0.00  0.00    +0.000 F 
ATOM     25  C   UNL     1       2.803   5.214  19.171  0.00  0.00    +0.000 A 
ATOM     26  C   UNL     1       4.199   5.133  19.209  0.00  0.00    +0.000 A 
ATOM     27  F   UNL     1       4.931   6.100  19.785  0.00  0.00    +0.000 F 
BRANCH  20  28
ATOM     28  N   UNL     1       6.314   3.953  18.668  0.00  0.00    +0.000 N 
ATOM     29  H   UNL     1       6.718   4.280  19.553  0.00  0.00    +0.000 HD
BRANCH  28  30
ATOM     30  S   UNL     1       7.090   4.850  17.443  0.00  0.00    +0.000 S 
ATOM     31  O   UNL     1       6.028   5.251  16.544  0.00  0.00    +0.000 OA
ATOM     32  O   UNL     1       8.257   4.130  16.984  0.00  0.00    +0.000 OA
BRANCH  30  33
ATOM     33  C   UNL     1       7.630   6.311  18.346  0.00  0.00    +0.000 C 
BRANCH  33  35
ATOM     34  C   UNL     1       8.272   8.750  18.053  0.00  0.00    +0.000 C 
ATOM     35  C   UNL     1       7.533   7.558  17.465  0.00  0.00    +0.000 C 
ENDBRANCH  33  35
ENDBRANCH  30  33
ENDBRANCH  28  30
ENDBRANCH  20  28
ENDBRANCH   1  25
TORSDOF 7
ENDMDL
MODEL 2
REMARK VINA RESULT:      -8.9      1.402      1.919
REMARK  Name = 
REMARK  9 active torsions:
REMARK  status: ('A' for Active; 'I' for Inactive)
REMARK    1  A    between atoms: C_1  and  C_2
REMARK    2  A    between atoms: C_2  and  C_3
REMARK    3  A    between atoms: C_3  and  S_4
REMARK    4  A    between atoms: S_4  and  N_7
REMARK    5  A    between atoms: N_7  and  C_8
REMARK    6  A    between atoms: C_13  and  C_14
REMARK    7  A    between atoms: C_14  and  C_16
REMARK    8  A    between atoms: C_22  and  C_23
REMARK    9  A    between atoms: C_26  and  C_27
REMARK                            x       y       z     vdW  Elec       q    Type
REMARK                         _______ _______ _______ _____ _____    ______ ____
ROOT
ATOM      1  C   UNL     1       2.148   6.334  19.764  0.00  0.00    +0.000 C 
ATOM      2  O   UNL     1       1.584   6.258  20.853  0.00  0.00    +0.000 OA
ENDROOT
BRANCH   1   3
ATOM      3  C   UNL     1       2.205   7.598  19.012  0.00  0.00    +0.000 A 
ATOM      4  N   UNL     1       2.970   7.739  17.906  0.00  0.00    +0.000 NA
ATOM      5  N   UNL     1       2.791   9.030  17.550  0.00  0.00    +0.000 N 
ATOM      6  C   UNL     1       1.907   9.705  18.338  0.00  0.00    +0.000 A 
ATOM      7  N   UNL     1       1.543  10.989  18.191  0.00  0.00    +0.000 NA
ATOM      8  C   UNL     1       0.646  11.384  19.131  0.00  0.00    +0.000 A 
ATOM      9  C   UNL     1       0.100  10.607  20.167  0.00  0.00    +0.000 A 
ATOM     10  C   UNL     1       0.549   9.272  20.247  0.00  0.00    +0.000 A 
ATOM     11  C   UNL     1       1.483   8.804  19.299  0.00  0.00    +0.000 A 
ATOM     12  H   UNL     1       3.295   9.405  16.760  0.00  0.00    +0.000 HD
BRANCH   9  13
ATOM     13  C   UNL     1      -0.876  11.178  21.128  0.00  0.00    +0.000 A 
ATOM     14  C   UNL     1      -1.838  12.123  20.724  0.00  0.00    +0.000 A 
ATOM     15  C   UNL     1      -2.730  12.704  21.634  0.00  0.00    +0.000 A 
ATOM     16  C   UNL     1      -2.698  12.345  22.982  0.00  0.00    +0.000 A 
ATOM     17  C   UNL     1      -3.631  12.974  23.974  0.00  0.00    +0.000 C 
ATOM     18  C   UNL     1      -1.772  11.388  23.400  0.00  0.00    +0.000 A 
ATOM     19  C   UNL     1      -0.874  10.816  22.487  0.00  0.00    +0.000 A 
ENDBRANCH   9  13
ENDBRANCH   1   3
BRANCH   1  25
ATOM     20  C   UNL     1       4.848   3.899  18.644  0.00  0.00    +0.000 A 
ATOM     21  C   UNL     1       4.087   2.858  18.115  0.00  0.00    +0.000 A 
ATOM     22  C   UNL     1       2.696   2.950  18.127  0.00  0.00    +0.000 A 
ATOM     23  C   UNL     1       2.072   4.083  18.652  0.00  0.00    +0.000 A 
ATOM     24  F   UNL     1       0.738   4.157  18.542  0.00  0.00    +0.000 F 
ATOM     25  C   UNL     1       2.813   5.124  19.216  0.00  0.00    +0.000 A 
ATOM     26  C   UNL     1       4.209   5.033  19.183  0.00  0.00    +0.000 A 
ATOM     27  F   UNL     1       4.976   6.008  19.694  0.00  0.00    +0.000 F 
BRANCH  20  28
ATOM     28  N   UNL     1       6.284   3.824  18.560  0.00  0.00    +0.000 N 
ATOM     29  H   UNL     1       6.737   4.182  19.408  0.00  0.00    +0.000 HD
BRANCH  28  30
ATOM     30  S   UNL     1       6.997   4.668  17.260  0.00  0.00    +0.000 S 
ATOM     31  O   UNL     1       8.342   4.141  17.165  0.00  0.00    +0.000 OA
ATOM     32  O   UNL     1       6.732   6.082  17.401  0.00  0.00    +0.000 OA
BRANCH  30  33
ATOM     33  C   UNL     1       6.058   4.041  15.857  0.00  0.00    +0.000 C 
BRANCH  33  35
ATOM     34  C   UNL     1       6.054   3.794  13.331  0.00  0.00    +0.000 C 
ATOM     35  C   UNL     1       6.750   4.397  14.541  0.00  0.00    +0.000 C 
ENDBRANCH  33  35
ENDBRANCH  30  33
ENDBRANCH  28  30
ENDBRANCH  20  28
ENDBRANCH   1  25
TORSDOF 7
ENDMDL
MODEL 3
REMARK VINA RESULT:      -8.6      4.084      9.866
REMARK  Name = 
REMARK  9 active torsions:
REMARK  status: ('A' for Active; 'I' for Inactive)
REMARK    1  A    between atoms: C_1  and  C_2
REMARK    2  A    between atoms: C_2  and  C_3
REMARK    3  A    between atoms: C_3  and  S_4
REMARK    4  A    between atoms: S_4  and  N_7
REMARK    5  A    between atoms: N_7  and  C_8
REMARK    6  A    between atoms: C_13  and  C_14
REMARK    7  A    between atoms: C_14  and  C_16
REMARK    8  A    between atoms: C_22  and  C_23
REMARK    9  A    between atoms: C_26  and  C_27
REMARK                            x       y       z     vdW  Elec       q    Type
REMARK                         _______ _______ _______ _____ _____    ______ ____
ROOT
ATOM      1  C   UNL     1       1.241   9.938  18.615  0.00  0.00    +0.000 C 
ATOM      2  O   UNL     1       1.977  10.282  17.694  0.00  0.00    +0.000 OA
ENDROOT
BRANCH   1   3
ATOM      3  C   UNL     1       1.524   8.741  19.423  0.00  0.00    +0.000 A 
ATOM      4  N   UNL     1       1.027   8.584  20.670  0.00  0.00    +0.000 NA
ATOM      5  N   UNL     1       1.549   7.408  21.083  0.00  0.00    +0.000 N 
ATOM      6  C   UNL     1       2.308   6.778  20.144  0.00  0.00    +0.000 A 
ATOM      7  N   UNL     1       2.926   5.596  20.295  0.00  0.00    +0.000 NA
ATOM      8  C   UNL     1       3.613   5.225  19.183  0.00  0.00    +0.000 A 
ATOM      9  C   UNL     1       3.713   5.927  17.970  0.00  0.00    +0.000 A 
ATOM     10  C   UNL     1       3.036   7.164  17.908  0.00  0.00    +0.000 A 
ATOM     11  C   UNL     1       2.308   7.604  19.033  0.00  0.00    +0.000 A 
ATOM     12  H   UNL     1       1.357   7.077  22.019  0.00  0.00    +0.000 HD
BRANCH   9  13
ATOM     13  C   UNL     1       4.505   5.395  16.833  0.00  0.00    +0.000 A 
ATOM     14  C   UNL     1       5.129   6.254  15.908  0.00  0.00    +0.000 A 
ATOM     15  C   UNL     1       5.837   5.760  14.804  0.00  0.00    +0.000 A 
ATOM     16  C   UNL     1       5.955   4.386  14.597  0.00  0.00    +0.000 A 
ATOM     17  C   UNL     1       6.688   3.841  13.408  0.00  0.00    +0.000 C 
ATOM     18  C   UNL     1       5.367   3.516  15.518  0.00  0.00    +0.000 A 
ATOM     19  C   UNL     1       4.652   4.014  16.616  0.00  0.00    +0.000 A 
ENDBRANCH   9  13
ENDBRANCH   1   3
BRANCH   1  25
ATOM     20  C   UNL     1      -1.023  12.494  20.293  0.00  0.00    +0.000 A 
ATOM     21  C   UNL     1      -2.215  12.319  19.593  0.00  0.00    +0.000 A 
ATOM     22  C   UNL     1      -2.278  11.369  18.574  0.00  0.00    +0.000 A 
ATOM     23  C   UNL     1      -1.159  10.592  18.268  0.00  0.00    +0.000 A 
ATOM     24  F   UNL     1      -1.313   9.628  17.349  0.00  0.00    +0.000 F 
ATOM     25  C   UNL     1       0.054  10.773  18.934  0.00  0.00    +0.000 A 
ATOM     26  C   UNL     1       0.104  11.714  19.969  0.00  0.00    +0.000 A 
ATOM     27  F   UNL     1       1.237  11.923  20.658  0.00  0.00    +0.000 F 
BRANCH  20  28
ATOM     28  N   UNL     1      -0.992  13.427  21.391  0.00  0.00    +0.000 N 
ATOM     29  H   UNL     1      -0.103  13.936  21.437  0.00  0.00    +0.000 HD
BRANCH  28  30
ATOM     30  S   UNL     1      -1.224  12.755  22.942  0.00  0.00    +0.000 S 
ATOM     31  O   UNL     1      -0.895  13.821  23.864  0.00  0.00    +0.000 OA
ATOM     32  O   UNL     1      -0.589  11.457  23.005  0.00  0.00    +0.000 OA
BRANCH  30  33
ATOM     33  C   UNL     1      -3.010  12.526  22.978  0.00  0.00    +0.000 C 
BRANCH  33  35
ATOM     34  C   UNL     1      -4.318  14.619  22.383  0.00  0.00    +0.000 C 
ATOM     35  C   UNL     1      -3.706  13.785  23.498  0.00  0.00    +0.000 C 
ENDBRANCH  33  35
ENDBRANCH  30  33
ENDBRANCH  28  30
ENDBRANCH  20  28
ENDBRANCH   1  25
TORSDOF 7
ENDMDL
MODEL 4
REMARK VINA RESULT:      -8.6      4.407      9.973
REMARK  Name = 
REMARK  9 active torsions:
REMARK  status: ('A' for Active; 'I' for Inactive)
REMARK    1  A    between atoms: C_1  and  C_2
REMARK    2  A    between atoms: C_2  and  C_3
REMARK    3  A    between atoms: C_3  and  S_4
REMARK    4  A    between atoms: S_4  and  N_7
REMARK    5  A    between atoms: N_7  and  C_8
REMARK    6  A    between atoms: C_13  and  C_14
REMARK    7  A    between atoms: C_14  and  C_16
REMARK    8  A    between atoms: C_22  and  C_23
REMARK    9  A    between atoms: C_26  and  C_27
REMARK                            x       y       z     vdW  Elec       q    Type
REMARK                         _______ _______ _______ _____ _____    ______ ____
ROOT
ATOM      1  C   UNL     1       0.912  10.346  18.850  0.00  0.00    +0.000 C 
ATOM      2  O   UNL     1       1.823  10.939  18.278  0.00  0.00    +0.000 OA
ENDROOT
BRANCH   1   3
ATOM      3  C   UNL     1       1.167   9.164  19.688  0.00  0.00    +0.000 A 
ATOM      4  N   UNL     1       0.647   9.039  20.930  0.00  0.00    +0.000 NA
ATOM      5  N   UNL     1       1.147   7.867  21.376  0.00  0.00    +0.000 N 
ATOM      6  C   UNL     1       1.915   7.208  20.464  0.00  0.00    +0.000 A 
ATOM      7  N   UNL     1       2.516   6.022  20.650  0.00  0.00    +0.000 NA
ATOM      8  C   UNL     1       3.217   5.619  19.558  0.00  0.00    +0.000 A 
ATOM      9  C   UNL     1       3.346   6.294  18.333  0.00  0.00    +0.000 A 
ATOM     10  C   UNL     1       2.686   7.537  18.233  0.00  0.00    +0.000 A 
ATOM     11  C   UNL     1       1.944   8.010  19.336  0.00  0.00    +0.000 A 
ATOM     12  H   UNL     1       0.936   7.557  22.315  0.00  0.00    +0.000 HD
BRANCH   9  13
ATOM     13  C   UNL     1       4.151   5.729  17.221  0.00  0.00    +0.000 A 
ATOM     14  C   UNL     1       4.829   6.561  16.309  0.00  0.00    +0.000 A 
ATOM     15  C   UNL     1       5.550   6.036  15.228  0.00  0.00    +0.000 A 
ATOM     16  C   UNL     1       5.628   4.658  15.032  0.00  0.00    +0.000 A 
ATOM     17  C   UNL     1       6.376   4.081  13.867  0.00  0.00    +0.000 C 
ATOM     18  C   UNL     1       4.987   3.814  15.941  0.00  0.00    +0.000 A 
ATOM     19  C   UNL     1       4.259   4.343  17.016  0.00  0.00    +0.000 A 
ENDBRANCH   9  13
ENDBRANCH   1   3
BRANCH   1  25
ATOM     20  C   UNL     1      -2.255  12.375  19.427  0.00  0.00    +0.000 A 
ATOM     21  C   UNL     1      -3.129  11.802  18.505  0.00  0.00    +0.000 A 
ATOM     22  C   UNL     1      -2.685  10.757  17.696  0.00  0.00    +0.000 A 
ATOM     23  C   UNL     1      -1.378  10.281  17.819  0.00  0.00    +0.000 A 
ATOM     24  F   UNL     1      -1.042   9.210  17.086  0.00  0.00    +0.000 F 
ATOM     25  C   UNL     1      -0.475  10.861  18.713  0.00  0.00    +0.000 A 
ATOM     26  C   UNL     1      -0.935  11.896  19.535  0.00  0.00    +0.000 A 
ATOM     27  F   UNL     1      -0.120  12.483  20.425  0.00  0.00    +0.000 F 
BRANCH  20  28
ATOM     28  N   UNL     1      -2.748  13.404  20.306  0.00  0.00    +0.000 N 
ATOM     29  H   UNL     1      -2.004  14.048  20.597  0.00  0.00    +0.000 HD
BRANCH  28  30
ATOM     30  S   UNL     1      -3.483  12.860  21.747  0.00  0.00    +0.000 S 
ATOM     31  O   UNL     1      -2.458  12.096  22.424  0.00  0.00    +0.000 OA
ATOM     32  O   UNL     1      -4.785  12.307  21.444  0.00  0.00    +0.000 OA
BRANCH  30  33
ATOM     33  C   UNL     1      -3.707  14.403  22.648  0.00  0.00    +0.000 C 
BRANCH  33  35
ATOM     34  C   UNL     1      -3.006  14.704  25.069  0.00  0.00    +0.000 C 
ATOM     35  C   UNL     1      -2.550  14.634  23.620  0.00  0.00    +0.000 C 
ENDBRANCH  33  35
ENDBRANCH  30  33
ENDBRANCH  28  30
ENDBRANCH  20  28
ENDBRANCH   1  25
TORSDOF 7
ENDMDL
MODEL 5
REMARK VINA RESULT:      -8.5      4.523      9.733
REMARK  Name = 
REMARK  9 active torsions:
REMARK  status: ('A' for Active; 'I' for Inactive)
REMARK    1  A    between atoms: C_1  and  C_2
REMARK    2  A    between atoms: C_2  and  C_3
REMARK    3  A    between atoms: C_3  and  S_4
REMARK    4  A    between atoms: S_4  and  N_7
REMARK    5  A    between atoms: N_7  and  C_8
REMARK    6  A    between atoms: C_13  and  C_14
REMARK    7  A    between atoms: C_14  and  C_16
REMARK    8  A    between atoms: C_22  and  C_23
REMARK    9  A    between atoms: C_26  and  C_27
REMARK                            x       y       z     vdW  Elec       q    Type
REMARK                         _______ _______ _______ _____ _____    ______ ____
ROOT
ATOM      1  C   UNL     1       1.339   9.881  18.973  0.00  0.00    +0.000 C 
ATOM      2  O   UNL     1       2.115  10.256  18.098  0.00  0.00    +0.000 OA
ENDROOT
BRANCH   1   3
ATOM      3  C   UNL     1       1.532   8.604  19.679  0.00  0.00    +0.000 A 
ATOM      4  N   UNL     1       0.973   8.361  20.886  0.00  0.00    +0.000 NA
ATOM      5  N   UNL     1       1.423   7.128  21.210  0.00  0.00    +0.000 N 
ATOM      6  C   UNL     1       2.194   6.549  20.248  0.00  0.00    +0.000 A 
ATOM      7  N   UNL     1       2.750   5.329  20.315  0.00  0.00    +0.000 NA
ATOM      8  C   UNL     1       3.467   5.025  19.201  0.00  0.00    +0.000 A 
ATOM      9  C   UNL     1       3.653   5.827  18.063  0.00  0.00    +0.000 A 
ATOM     10  C   UNL     1       3.036   7.096  18.087  0.00  0.00    +0.000 A 
ATOM     11  C   UNL     1       2.280   7.470  19.218  0.00  0.00    +0.000 A 
ATOM     12  H   UNL     1       1.175   6.724  22.102  0.00  0.00    +0.000 HD
BRANCH   9  13
ATOM     13  C   UNL     1       4.470   5.361  16.914  0.00  0.00    +0.000 A 
ATOM     14  C   UNL     1       4.978   6.264  15.961  0.00  0.00    +0.000 A 
ATOM     15  C   UNL     1       5.708   5.827  14.847  0.00  0.00    +0.000 A 
ATOM     16  C   UNL     1       5.965   4.469  14.659  0.00  0.00    +0.000 A 
ATOM     17  C   UNL     1       6.724   3.983  13.460  0.00  0.00    +0.000 C 
ATOM     18  C   UNL     1       5.494   3.559  15.607  0.00  0.00    +0.000 A 
ATOM     19  C   UNL     1       4.756   4.000  16.716  0.00  0.00    +0.000 A 
ENDBRANCH   9  13
ENDBRANCH   1   3
BRANCH   1  25
ATOM     20  C   UNL     1      -1.897  11.871  18.763  0.00  0.00    +0.000 A 
ATOM     21  C   UNL     1      -1.937  12.478  20.018  0.00  0.00    +0.000 A 
ATOM     22  C   UNL     1      -0.911  12.235  20.930  0.00  0.00    +0.000 A 
ATOM     23  C   UNL     1       0.154  11.402  20.583  0.00  0.00    +0.000 A 
ATOM     24  F   UNL     1       1.159  11.290  21.464  0.00  0.00    +0.000 F 
ATOM     25  C   UNL     1       0.199  10.758  19.345  0.00  0.00    +0.000 A 
ATOM     26  C   UNL     1      -0.824  11.022  18.427  0.00  0.00    +0.000 A 
ATOM     27  F   UNL     1      -0.829  10.447  17.215  0.00  0.00    +0.000 F 
BRANCH  20  28
ATOM     28  N   UNL     1      -2.925  12.187  17.805  0.00  0.00    +0.000 N 
ATOM     29  H   UNL     1      -3.425  13.050  18.049  0.00  0.00    +0.000 HD
BRANCH  28  30
ATOM     30  S   UNL     1      -4.128  10.998  17.586  0.00  0.00    +0.000 S 
ATOM     31  O   UNL     1      -5.349  11.609  18.064  0.00  0.00    +0.000 OA
ATOM     32  O   UNL     1      -3.650   9.730  18.093  0.00  0.00    +0.000 OA
BRANCH  30  33
ATOM     33  C   UNL     1      -4.225  10.901  15.790  0.00  0.00    +0.000 C 
BRANCH  33  35
ATOM     34  C   UNL     1      -3.027   9.902  13.787  0.00  0.00    +0.000 C 
ATOM     35  C   UNL     1      -3.359   9.755  15.264  0.00  0.00    +0.000 C 
ENDBRANCH  33  35
ENDBRANCH  30  33
ENDBRANCH  28  30
ENDBRANCH  20  28
ENDBRANCH   1  25
TORSDOF 7
ENDMDL
MODEL 6
REMARK VINA RESULT:      -8.5      4.288      9.823
REMARK  Name = 
REMARK  9 active torsions:
REMARK  status: ('A' for Active; 'I' for Inactive)
REMARK    1  A    between atoms: C_1  and  C_2
REMARK    2  A    between atoms: C_2  and  C_3
REMARK    3  A    between atoms: C_3  and  S_4
REMARK    4  A    between atoms: S_4  and  N_7
REMARK    5  A    between atoms: N_7  and  C_8
REMARK    6  A    between atoms: C_13  and  C_14
REMARK    7  A    between atoms: C_14  and  C_16
REMARK    8  A    between atoms: C_22  and  C_23
REMARK    9  A    between atoms: C_26  and  C_27
REMARK                            x       y       z     vdW  Elec       q    Type
REMARK                         _______ _______ _______ _____ _____    ______ ____
ROOT
ATOM      1  C   UNL     1       1.112  10.086  18.917  0.00  0.00    +0.000 C 
ATOM      2  O   UNL     1       1.965  10.597  18.195  0.00  0.00    +0.000 OA
ENDROOT
BRANCH   1   3
ATOM      3  C   UNL     1       1.378   8.846  19.665  0.00  0.00    +0.000 A 
ATOM      4  N   UNL     1       0.868   8.630  20.898  0.00  0.00    +0.000 NA
ATOM      5  N   UNL     1       1.375   7.430  21.254  0.00  0.00    +0.000 N 
ATOM      6  C   UNL     1       2.137   6.842  20.290  0.00  0.00    +0.000 A 
ATOM      7  N   UNL     1       2.742   5.647  20.385  0.00  0.00    +0.000 NA
ATOM      8  C   UNL     1       3.435   5.327  19.261  0.00  0.00    +0.000 A 
ATOM      9  C   UNL     1       3.552   6.089  18.086  0.00  0.00    +0.000 A 
ATOM     10  C   UNL     1       2.888   7.334  18.083  0.00  0.00    +0.000 A 
ATOM     11  C   UNL     1       2.154   7.723  19.223  0.00  0.00    +0.000 A 
ATOM     12  H   UNL     1       1.172   7.053  22.170  0.00  0.00    +0.000 HD
BRANCH   9  13
ATOM     13  C   UNL     1       4.349   5.609  16.930  0.00  0.00    +0.000 A 
ATOM     14  C   UNL     1       4.532   4.235  16.684  0.00  0.00    +0.000 A 
ATOM     15  C   UNL     1       5.324   3.774  15.625  0.00  0.00    +0.000 A 
ATOM     16  C   UNL     1       5.949   4.677  14.765  0.00  0.00    +0.000 A 
ATOM     17  C   UNL     1       6.820   4.200  13.640  0.00  0.00    +0.000 C 
ATOM     18  C   UNL     1       5.759   6.044  14.973  0.00  0.00    +0.000 A 
ATOM     19  C   UNL     1       4.973   6.501  16.041  0.00  0.00    +0.000 A 
ENDBRANCH   9  13
ENDBRANCH   1   3
BRANCH   1  25
ATOM     20  C   UNL     1      -1.687  12.285  20.259  0.00  0.00    +0.000 A 
ATOM     21  C   UNL     1      -2.724  11.993  19.375  0.00  0.00    +0.000 A 
ATOM     22  C   UNL     1      -2.508  11.083  18.342  0.00  0.00    +0.000 A 
ATOM     23  C   UNL     1      -1.267  10.458  18.204  0.00  0.00    +0.000 A 
ATOM     24  F   UNL     1      -1.153   9.518  17.255  0.00  0.00    +0.000 F 
ATOM     25  C   UNL     1      -0.204  10.759  19.058  0.00  0.00    +0.000 A 
ATOM     26  C   UNL     1      -0.435  11.659  20.105  0.00  0.00    +0.000 A 
ATOM     27  F   UNL     1       0.542  11.977  20.969  0.00  0.00    +0.000 F 
BRANCH  20  28
ATOM     28  N   UNL     1      -1.945  13.172  21.365  0.00  0.00    +0.000 N 
ATOM     29  H   UNL     1      -1.085  13.613  21.711  0.00  0.00    +0.000 HD
BRANCH  28  30
ATOM     30  S   UNL     1      -2.686  12.464  22.728  0.00  0.00    +0.000 S 
ATOM     31  O   UNL     1      -1.856  11.325  23.055  0.00  0.00    +0.000 OA
ATOM     32  O   UNL     1      -4.108  12.339  22.493  0.00  0.00    +0.000 OA
BRANCH  30  33
ATOM     33  C   UNL     1      -2.417  13.724  23.987  0.00  0.00    +0.000 C 
BRANCH  33  35
ATOM     34  C   UNL     1      -1.065  15.789  24.579  0.00  0.00    +0.000 C 
ATOM     35  C   UNL     1      -1.327  14.702  23.548  0.00  0.00    +0.000 C 
ENDBRANCH  33  35
ENDBRANCH  30  33
ENDBRANCH  28  30
ENDBRANCH  20  28
ENDBRANCH   1  25
TORSDOF 7
ENDMDL
MODEL 7
REMARK VINA RESULT:      -8.3      5.025     10.118
REMARK  Name = 
REMARK  9 active torsions:
REMARK  status: ('A' for Active; 'I' for Inactive)
REMARK    1  A    between atoms: C_1  and  C_2
REMARK    2  A    between atoms: C_2  and  C_3
REMARK    3  A    between atoms: C_3  and  S_4
REMARK    4  A    between atoms: S_4  and  N_7
REMARK    5  A    between atoms: N_7  and  C_8
REMARK    6  A    between atoms: C_13  and  C_14
REMARK    7  A    between atoms: C_14  and  C_16
REMARK    8  A    between atoms: C_22  and  C_23
REMARK    9  A    between atoms: C_26  and  C_27
REMARK                            x       y       z     vdW  Elec       q    Type
REMARK                         _______ _______ _______ _____ _____    ______ ____
ROOT
ATOM      1  C   UNL     1      -0.120  10.912  18.848  0.00  0.00    +0.000 C 
ATOM      2  O   UNL     1       0.682  11.808  18.593  0.00  0.00    +0.000 OA
ENDROOT
BRANCH   1   3
ATOM      3  C   UNL     1       0.186   9.860  19.831  0.00  0.00    +0.000 A 
ATOM      4  N   UNL     1      -0.370   9.848  21.063  0.00  0.00    +0.000 NA
ATOM      5  N   UNL     1       0.194   8.777  21.664  0.00  0.00    +0.000 N 
ATOM      6  C   UNL     1       1.039   8.072  20.860  0.00  0.00    +0.000 A 
ATOM      7  N   UNL     1       1.713   6.964  21.207  0.00  0.00    +0.000 NA
ATOM      8  C   UNL     1       2.480   6.485  20.192  0.00  0.00    +0.000 A 
ATOM      9  C   UNL     1       2.607   7.016  18.898  0.00  0.00    +0.000 A 
ATOM     10  C   UNL     1       1.866   8.186  18.628  0.00  0.00    +0.000 A 
ATOM     11  C   UNL     1       1.053   8.732  19.644  0.00  0.00    +0.000 A 
ATOM     12  H   UNL     1      -0.030   8.568  22.627  0.00  0.00    +0.000 HD
BRANCH   9  13
ATOM     13  C   UNL     1       3.489   6.382  17.886  0.00  0.00    +0.000 A 
ATOM     14  C   UNL     1       4.331   7.152  17.061  0.00  0.00    +0.000 A 
ATOM     15  C   UNL     1       5.130   6.565  16.071  0.00  0.00    +0.000 A 
ATOM     16  C   UNL     1       5.122   5.183  15.883  0.00  0.00    +0.000 A 
ATOM     17  C   UNL     1       5.953   4.542  14.811  0.00  0.00    +0.000 C 
ATOM     18  C   UNL     1       4.316   4.398  16.709  0.00  0.00    +0.000 A 
ATOM     19  C   UNL     1       3.511   4.990  17.693  0.00  0.00    +0.000 A 
ENDBRANCH   9  13
ENDBRANCH   1   3
BRANCH   1  25
ATOM     20  C   UNL     1      -3.725  11.758  17.975  0.00  0.00    +0.000 A 
ATOM     21  C   UNL     1      -3.972  10.883  16.918  0.00  0.00    +0.000 A 
ATOM     22  C   UNL     1      -2.964  10.021  16.492  0.00  0.00    +0.000 A 
ATOM     23  C   UNL     1      -1.720  10.026  17.127  0.00  0.00    +0.000 A 
ATOM     24  F   UNL     1      -0.827   9.104  16.738  0.00  0.00    +0.000 F 
ATOM     25  C   UNL     1      -1.439  10.916  18.166  0.00  0.00    +0.000 A 
ATOM     26  C   UNL     1      -2.463  11.764  18.601  0.00  0.00    +0.000 A 
ATOM     27  F   UNL     1      -2.260  12.631  19.606  0.00  0.00    +0.000 F 
BRANCH  20  28
ATOM     28  N   UNL     1      -4.798  12.592  18.453  0.00  0.00    +0.000 N 
ATOM     29  H   UNL     1      -4.576  13.020  19.359  0.00  0.00    +0.000 HD
BRANCH  28  30
ATOM     30  S   UNL     1      -6.304  11.818  18.660  0.00  0.00    +0.000 S 
ATOM     31  O   UNL     1      -5.979  10.483  19.114  0.00  0.00    +0.000 OA
ATOM     32  O   UNL     1      -7.132  12.057  17.499  0.00  0.00    +0.000 OA
BRANCH  30  33
ATOM     33  C   UNL     1      -6.992  12.723  20.057  0.00  0.00    +0.000 C 
BRANCH  33  35
ATOM     34  C   UNL     1      -5.326  12.860  21.967  0.00  0.00    +0.000 C 
ATOM     35  C   UNL     1      -5.910  13.555  20.747  0.00  0.00    +0.000 C 
ENDBRANCH  33  35
ENDBRANCH  30  33
ENDBRANCH  28  30
ENDBRANCH  20  28
ENDBRANCH   1  25
TORSDOF 7
ENDMDL
MODEL 8
REMARK VINA RESULT:      -8.3      4.337      9.966
REMARK  Name = 
REMARK  9 active torsions:
REMARK  status: ('A' for Active; 'I' for Inactive)
REMARK    1  A    between atoms: C_1  and  C_2
REMARK    2  A    between atoms: C_2  and  C_3
REMARK    3  A    between atoms: C_3  and  S_4
REMARK    4  A    between atoms: S_4  and  N_7
REMARK    5  A    between atoms: N_7  and  C_8
REMARK    6  A    between atoms: C_13  and  C_14
REMARK    7  A    between atoms: C_14  and  C_16
REMARK    8  A    between atoms: C_22  and  C_23
REMARK    9  A    between atoms: C_26  and  C_27
REMARK                            x       y       z     vdW  Elec       q    Type
REMARK                         _______ _______ _______ _____ _____    ______ ____
ROOT
ATOM      1  C   UNL     1       1.247   9.984  18.918  0.00  0.00    +0.000 C 
ATOM      2  O   UNL     1       2.061  10.380  18.086  0.00  0.00    +0.000 OA
ENDROOT
BRANCH   1   3
ATOM      3  C   UNL     1       1.445   8.723  19.651  0.00  0.00    +0.000 A 
ATOM      4  N   UNL     1       0.880   8.500  20.858  0.00  0.00    +0.000 NA
ATOM      5  N   UNL     1       1.336   7.278  21.210  0.00  0.00    +0.000 N 
ATOM      6  C   UNL     1       2.116   6.684  20.264  0.00  0.00    +0.000 A 
ATOM      7  N   UNL     1       2.681   5.470  20.359  0.00  0.00    +0.000 NA
ATOM      8  C   UNL     1       3.407   5.148  19.256  0.00  0.00    +0.000 A 
ATOM      9  C   UNL     1       3.594   5.929  18.103  0.00  0.00    +0.000 A 
ATOM     10  C   UNL     1       2.969   7.194  18.098  0.00  0.00    +0.000 A 
ATOM     11  C   UNL     1       2.203   7.585  19.217  0.00  0.00    +0.000 A 
ATOM     12  H   UNL     1       1.085   6.890  22.109  0.00  0.00    +0.000 HD
BRANCH   9  13
ATOM     13  C   UNL     1       4.421   5.446  16.969  0.00  0.00    +0.000 A 
ATOM     14  C   UNL     1       4.987   6.340  16.040  0.00  0.00    +0.000 A 
ATOM     15  C   UNL     1       5.727   5.888  14.940  0.00  0.00    +0.000 A 
ATOM     16  C   UNL     1       5.937   4.524  14.740  0.00  0.00    +0.000 A 
ATOM     17  C   UNL     1       6.707   4.023  13.554  0.00  0.00    +0.000 C 
ATOM     18  C   UNL     1       5.408   3.622  15.665  0.00  0.00    +0.000 A 
ATOM     19  C   UNL     1       4.660   4.077  16.760  0.00  0.00    +0.000 A 
ENDBRANCH   9  13
ENDBRANCH   1   3
BRANCH   1  25
ATOM     20  C   UNL     1      -2.070  11.801  18.503  0.00  0.00    +0.000 A 
ATOM     21  C   UNL     1      -2.184  12.463  19.725  0.00  0.00    +0.000 A 
ATOM     22  C   UNL     1      -1.181  12.314  20.681  0.00  0.00    +0.000 A 
ATOM     23  C   UNL     1      -0.065  11.519  20.412  0.00  0.00    +0.000 A 
ATOM     24  F   UNL     1       0.911  11.497  21.330  0.00  0.00    +0.000 F 
ATOM     25  C   UNL     1       0.054  10.821  19.208  0.00  0.00    +0.000 A 
ATOM     26  C   UNL     1      -0.947  10.991  18.245  0.00  0.00    +0.000 A 
ATOM     27  F   UNL     1      -0.880  10.360  17.062  0.00  0.00    +0.000 F 
BRANCH  20  28
ATOM     28  N   UNL     1      -3.076  12.021  17.496  0.00  0.00    +0.000 N 
ATOM     29  H   UNL     1      -3.711  12.787  17.750  0.00  0.00    +0.000 HD
BRANCH  28  30
ATOM     30  S   UNL     1      -4.077  10.686  17.142  0.00  0.00    +0.000 S 
ATOM     31  O   UNL     1      -3.691   9.666  18.093  0.00  0.00    +0.000 OA
ATOM     32  O   UNL     1      -4.076  10.449  15.715  0.00  0.00    +0.000 OA
BRANCH  30  33
ATOM     33  C   UNL     1      -5.698  11.305  17.623  0.00  0.00    +0.000 C 
BRANCH  33  35
ATOM     34  C   UNL     1      -6.938  12.437  19.528  0.00  0.00    +0.000 C 
ATOM     35  C   UNL     1      -5.746  11.581  19.127  0.00  0.00    +0.000 C 
ENDBRANCH  33  35
ENDBRANCH  30  33
ENDBRANCH  28  30
ENDBRANCH  20  28
ENDBRANCH   1  25
TORSDOF 7
ENDMDL
MODEL 9
REMARK VINA RESULT:      -8.3      4.258      9.942
REMARK  Name = 
REMARK  9 active torsions:
REMARK  status: ('A' for Active; 'I' for Inactive)
REMARK    1  A    between atoms: C_1  and  C_2
REMARK    2  A    between atoms: C_2  and  C_3
REMARK    3  A    between atoms: C_3  and  S_4
REMARK    4  A    between atoms: S_4  and  N_7
REMARK    5  A    between atoms: N_7  and  C_8
REMARK    6  A    between atoms: C_13  and  C_14
REMARK    7  A    between atoms: C_14  and  C_16
REMARK    8  A    between atoms: C_22  and  C_23
REMARK    9  A    between atoms: C_26  and  C_27
REMARK                            x       y       z     vdW  Elec       q    Type
REMARK                         _______ _______ _______ _____ _____    ______ ____
ROOT
ATOM      1  C   UNL     1       1.095  10.284  19.022  0.00  0.00    +0.000 C 
ATOM      2  O   UNL     1       1.913  10.656  18.184  0.00  0.00    +0.000 OA
ENDROOT
BRANCH   1   3
ATOM      3  C   UNL     1       1.291   9.045  19.793  0.00  0.00    +0.000 A 
ATOM      4  N   UNL     1       0.753   8.873  21.021  0.00  0.00    +0.000 NA
ATOM      5  N   UNL     1       1.199   7.656  21.404  0.00  0.00    +0.000 N 
ATOM      6  C   UNL     1       1.947   7.018  20.461  0.00  0.00    +0.000 A 
ATOM      7  N   UNL     1       2.495   5.798  20.583  0.00  0.00    +0.000 NA
ATOM      8  C   UNL     1       3.189   5.428  19.476  0.00  0.00    +0.000 A 
ATOM      9  C   UNL     1       3.359   6.166  18.292  0.00  0.00    +0.000 A 
ATOM     10  C   UNL     1       2.753   7.440  18.258  0.00  0.00    +0.000 A 
ATOM     11  C   UNL     1       2.021   7.881  19.381  0.00  0.00    +0.000 A 
ATOM     12  H   UNL     1       0.964   7.303  22.321  0.00  0.00    +0.000 HD
BRANCH   9  13
ATOM     13  C   UNL     1       4.151   5.631  17.156  0.00  0.00    +0.000 A 
ATOM     14  C   UNL     1       4.287   4.246  16.944  0.00  0.00    +0.000 A 
ATOM     15  C   UNL     1       5.073   3.732  15.904  0.00  0.00    +0.000 A 
ATOM     16  C   UNL     1       5.739   4.592  15.031  0.00  0.00    +0.000 A 
ATOM     17  C   UNL     1       6.603   4.059  13.927  0.00  0.00    +0.000 C 
ATOM     18  C   UNL     1       5.595   5.970  15.205  0.00  0.00    +0.000 A 
ATOM     19  C   UNL     1       4.815   6.479  16.253  0.00  0.00    +0.000 A 
ENDBRANCH   9  13
ENDBRANCH   1   3
BRANCH   1  25
ATOM     20  C   UNL     1      -1.195  12.938  20.499  0.00  0.00    +0.000 A 
ATOM     21  C   UNL     1      -2.390  12.688  19.825  0.00  0.00    +0.000 A 
ATOM     22  C   UNL     1      -2.445  11.656  18.889  0.00  0.00    +0.000 A 
ATOM     23  C   UNL     1      -1.317  10.872  18.640  0.00  0.00    +0.000 A 
ATOM     24  F   UNL     1      -1.462   9.833  17.806  0.00  0.00    +0.000 F 
ATOM     25  C   UNL     1      -0.102  11.126  19.280  0.00  0.00    +0.000 A 
ATOM     26  C   UNL     1      -0.059  12.150  20.232  0.00  0.00    +0.000 A 
ATOM     27  F   UNL     1       1.075  12.431  20.893  0.00  0.00    +0.000 F 
BRANCH  20  28
ATOM     28  N   UNL     1      -1.172  13.959  21.516  0.00  0.00    +0.000 N 
ATOM     29  H   UNL     1      -0.289  14.482  21.513  0.00  0.00    +0.000 HD
BRANCH  28  30
ATOM     30  S   UNL     1      -1.386  13.416  23.119  0.00  0.00    +0.000 S 
ATOM     31  O   UNL     1      -0.701  14.393  23.938  0.00  0.00    +0.000 OA
ATOM     32  O   UNL     1      -1.088  12.003  23.192  0.00  0.00    +0.000 OA
BRANCH  30  33
ATOM     33  C   UNL     1      -3.157  13.645  23.349  0.00  0.00    +0.000 C 
BRANCH  33  35
ATOM     34  C   UNL     1      -5.154  14.773  22.261  0.00  0.00    +0.000 C 
ATOM     35  C   UNL     1      -3.659  14.836  22.530  0.00  0.00    +0.000 C 
ENDBRANCH  33  35
ENDBRANCH  30  33
ENDBRANCH  28  30
ENDBRANCH  20  28
ENDBRANCH   1  25
TORSDOF 7
ENDMDL
