MODEL 1
REMARK VINA RESULT:      -7.8      0.000      0.000
REMARK  Name = 
REMARK  7 active torsions:
REMARK  status: ('A' for Active; 'I' for Inactive)
REMARK    1  A    between atoms: C_4  and  N_5
REMARK    2  A    between atoms: C_6  and  C_8
REMARK    3  A    between atoms: C_15  and  N_16
REMARK    4  A    between atoms: C_17  and  O_19
REMARK    5  A    between atoms: O_19  and  C_20
REMARK    6  A    between atoms: C_20  and  C_21
REMARK    7  A    between atoms: C_30  and  O_31
REMARK                            x       y       z     vdW  Elec       q    Type
REMARK                         _______ _______ _______ _____ _____    ______ ____
ROOT
ATOM      1  C   UNL     1      -0.216  13.549  21.708  0.00  0.00    +0.000 C 
ATOM      2  C   UNL     1      -0.664  14.865  21.001  0.00  0.00    +0.000 C 
ATOM      3  S   UNL     1       0.123  14.804  19.404  0.00  0.00    +0.000 S 
ATOM      4  C   UNL     1      -0.064  13.010  19.331  0.00  0.00    +0.000 C 
ATOM      5  C   UNL     1      -1.472  12.550  18.967  0.00  0.00    +0.000 C 
ATOM      6  C   UNL     1      -1.410  11.159  18.345  0.00  0.00    +0.000 C 
ATOM      7  C   UNL     1      -0.902  10.099  19.325  0.00  0.00    +0.000 C 
ATOM      8  C   UNL     1       0.631  10.204  19.537  0.00  0.00    +0.000 C 
ATOM      9  C   UNL     1       0.750  11.219  20.852  0.00  0.00    +0.000 C 
ATOM     10  O   UNL     1       1.147  10.846  21.957  0.00  0.00    +0.000 OA
ATOM     11  N   UNL     1       0.201  12.522  20.664  0.00  0.00    +0.000 N 
ENDROOT
BRANCH   1  13
ATOM     12  N   UNL     1      -1.988  14.151  23.292  0.00  0.00    +0.000 N 
ATOM     13  C   UNL     1      -1.467  13.138  22.545  0.00  0.00    +0.000 C 
ATOM     14  O   UNL     1      -1.970  12.016  22.539  0.00  0.00    +0.000 OA
ATOM     15  H   UNL     1      -1.487  15.041  23.304  0.00  0.00    +0.000 HD
BRANCH  12  19
ATOM     16  O   UNL     1      -2.986  17.154  25.407  0.00  0.00    +0.000 OA
ATOM     17  C   UNL     1      -3.373  16.094  24.949  0.00  0.00    +0.000 C 
ATOM     18  C   UNL     1      -2.951  14.751  25.432  0.00  0.00    +0.000 C 
ATOM     19  C   UNL     1      -3.151  13.948  24.169  0.00  0.00    +0.000 C 
ATOM     20  C   UNL     1      -4.427  14.604  23.638  0.00  0.00    +0.000 C 
ATOM     21  O   UNL     1      -4.244  15.990  23.904  0.00  0.00    +0.000 OA
BRANCH  20  22
ATOM     22  O   UNL     1      -4.679  14.363  22.269  0.00  0.00    +0.000 OA
ATOM     23  H   UNL     1      -5.171  15.131  21.942  0.00  0.00    +0.000 HD
ENDBRANCH  20  22
ENDBRANCH  12  19
ENDBRANCH   1  13
BRANCH   8  24
ATOM     24  N   UNL     1       1.250   8.849  19.277  0.00  0.00    +0.000 N 
ATOM     25  C   UNL     1       2.078   8.633  18.151  0.00  0.00    +0.000 C 
ATOM     26  O   UNL     1       2.197   9.459  17.252  0.00  0.00    +0.000 OA
ATOM     27  H   UNL     1       1.269   8.142  20.001  0.00  0.00    +0.000 HD
BRANCH  25  28
ATOM     28  O   UNL     1       2.736   7.423  18.134  0.00  0.00    +0.000 OA
BRANCH  28  29
ATOM     29  C   UNL     1       2.775   6.663  19.401  0.00  0.00    +0.000 C 
BRANCH  29  30
ATOM     30  C   UNL     1       2.091   5.290  19.404  0.00  0.00    +0.000 A 
ATOM     31  C   UNL     1       1.880   4.571  18.222  0.00  0.00    +0.000 A 
ATOM     32  C   UNL     1       1.312   3.295  18.233  0.00  0.00    +0.000 A 
ATOM     33  C   UNL     1       0.951   2.689  19.448  0.00  0.00    +0.000 A 
ATOM     34  C   UNL     1       1.180   3.366  20.641  0.00  0.00    +0.000 A 
ATOM     35  C   UNL     1       1.756   4.648  20.621  0.00  0.00    +0.000 A 
ENDBRANCH  29  30
ENDBRANCH  28  29
ENDBRANCH  25  28
ENDBRANCH   8  24
TORSDOF 7
ENDMDL
MODEL 2
REMARK VINA RESULT:      -7.8      0.901      1.450
REMARK  Name = 
REMARK  7 active torsions:
REMARK  status: ('A' for Active; 'I' for Inactive)
REMARK    1  A    between atoms: C_4  and  N_5
REMARK    2  A    between atoms: C_6  and  C_8
REMARK    3  A    between atoms: C_15  and  N_16
REMARK    4  A    between atoms: C_17  and  O_19
REMARK    5  A    between atoms: O_19  and  C_20
REMARK    6  A    between atoms: C_20  and  C_21
REMARK    7  A    between atoms: C_30  and  O_31
REMARK                            x       y       z     vdW  Elec       q    Type
REMARK                         _______ _______ _______ _____ _____    ______ ____
ROOT
ATOM      1  C   UNL     1      -0.166  13.429  21.607  0.00  0.00    +0.000 C 
ATOM      2  C   UNL     1      -0.715  14.702  20.891  0.00  0.00    +0.000 C 
ATOM      3  S   UNL     1      -0.013  14.633  19.255  0.00  0.00    +0.000 S 
ATOM      4  C   UNL     1      -0.117  12.831  19.240  0.00  0.00    +0.000 C 
ATOM      5  C   UNL     1      -1.519  12.296  18.966  0.00  0.00    +0.000 C 
ATOM      6  C   UNL     1      -1.423  10.892  18.377  0.00  0.00    +0.000 C 
ATOM      7  C   UNL     1      -0.813   9.885  19.355  0.00  0.00    +0.000 C 
ATOM      8  C   UNL     1       0.723  10.068  19.479  0.00  0.00    +0.000 C 
ATOM      9  C   UNL     1       0.863  11.124  20.759  0.00  0.00    +0.000 C 
ATOM     10  O   UNL     1       1.338  10.801  21.849  0.00  0.00    +0.000 OA
ATOM     11  N   UNL     1       0.242  12.394  20.568  0.00  0.00    +0.000 N 
ENDROOT
BRANCH   1  13
ATOM     12  N   UNL     1      -2.541  13.560  22.201  0.00  0.00    +0.000 N 
ATOM     13  C   UNL     1      -1.349  12.984  22.522  0.00  0.00    +0.000 C 
ATOM     14  O   UNL     1      -1.249  12.177  23.444  0.00  0.00    +0.000 OA
ATOM     15  H   UNL     1      -2.545  14.270  21.466  0.00  0.00    +0.000 HD
BRANCH  12  19
ATOM     16  O   UNL     1      -4.761  16.577  22.875  0.00  0.00    +0.000 OA
ATOM     17  C   UNL     1      -4.733  15.361  22.829  0.00  0.00    +0.000 C 
ATOM     18  C   UNL     1      -4.072  14.484  23.834  0.00  0.00    +0.000 C 
ATOM     19  C   UNL     1      -3.765  13.285  22.968  0.00  0.00    +0.000 C 
ATOM     20  C   UNL     1      -5.026  13.254  22.102  0.00  0.00    +0.000 C 
ATOM     21  O   UNL     1      -5.292  14.624  21.825  0.00  0.00    +0.000 OA
BRANCH  20  22
ATOM     22  O   UNL     1      -4.898  12.497  20.916  0.00  0.00    +0.000 OA
ATOM     23  H   UNL     1      -5.797  12.362  20.580  0.00  0.00    +0.000 HD
ENDBRANCH  20  22
ENDBRANCH  12  19
ENDBRANCH   1  13
BRANCH   8  24
ATOM     24  N   UNL     1       1.392   8.736  19.220  0.00  0.00    +0.000 N 
ATOM     25  C   UNL     1       2.184   8.534  18.067  0.00  0.00    +0.000 C 
ATOM     26  O   UNL     1       2.231   9.345  17.148  0.00  0.00    +0.000 OA
ATOM     27  H   UNL     1       1.470   8.046  19.956  0.00  0.00    +0.000 HD
BRANCH  25  28
ATOM     28  O   UNL     1       2.894   7.354  18.046  0.00  0.00    +0.000 OA
BRANCH  28  29
ATOM     29  C   UNL     1       2.979   6.600  19.315  0.00  0.00    +0.000 C 
BRANCH  29  30
ATOM     30  C   UNL     1       2.271   5.240  19.358  0.00  0.00    +0.000 A 
ATOM     31  C   UNL     1       1.718   4.736  20.542  0.00  0.00    +0.000 A 
ATOM     32  C   UNL     1       1.023   3.525  20.566  0.00  0.00    +0.000 A 
ATOM     33  C   UNL     1       0.843   2.785  19.386  0.00  0.00    +0.000 A 
ATOM     34  C   UNL     1       1.351   3.278  18.189  0.00  0.00    +0.000 A 
ATOM     35  C   UNL     1       2.047   4.499  18.173  0.00  0.00    +0.000 A 
ENDBRANCH  29  30
ENDBRANCH  28  29
ENDBRANCH  25  28
ENDBRANCH   8  24
TORSDOF 7
ENDMDL
MODEL 3
REMARK VINA RESULT:      -7.5      1.570      1.937
REMARK  Name = 
REMARK  7 active torsions:
REMARK  status: ('A' for Active; 'I' for Inactive)
REMARK    1  A    between atoms: C_4  and  N_5
REMARK    2  A    between atoms: C_6  and  C_8
REMARK    3  A    between atoms: C_15  and  N_16
REMARK    4  A    between atoms: C_17  and  O_19
REMARK    5  A    between atoms: O_19  and  C_20
REMARK    6  A    between atoms: C_20  and  C_21
REMARK    7  A    between atoms: C_30  and  O_31
REMARK                            x       y       z     vdW  Elec       q    Type
REMARK                         _______ _______ _______ _____ _____    ______ ____
ROOT
ATOM      1  C   UNL     1      -0.878  12.833  22.698  0.00  0.00    +0.000 C 
ATOM      2  C   UNL     1      -0.942  14.359  22.383  0.00  0.00    +0.000 C 
ATOM      3  S   UNL     1       0.422  14.645  21.273  0.00  0.00    +0.000 S 
ATOM      4  C   UNL     1       0.202  13.021  20.515  0.00  0.00    +0.000 C 
ATOM      5  C   UNL     1      -0.956  12.954  19.525  0.00  0.00    +0.000 C 
ATOM      6  C   UNL     1      -0.707  11.829  18.524  0.00  0.00    +0.000 C 
ATOM      7  C   UNL     1      -0.688  10.449  19.186  0.00  0.00    +0.000 C 
ATOM      8  C   UNL     1       0.631  10.208  19.967  0.00  0.00    +0.000 C 
ATOM      9  C   UNL     1       0.249  10.738  21.499  0.00  0.00    +0.000 C 
ATOM     10  O   UNL     1       0.148   9.983  22.467  0.00  0.00    +0.000 OA
ATOM     11  N   UNL     1      -0.119  12.113  21.591  0.00  0.00    +0.000 N 
ENDROOT
BRANCH   1  13
ATOM     12  N   UNL     1      -3.217  13.160  22.041  0.00  0.00    +0.000 N 
ATOM     13  C   UNL     1      -2.377  12.419  22.817  0.00  0.00    +0.000 C 
ATOM     14  O   UNL     1      -2.792  11.501  23.522  0.00  0.00    +0.000 OA
ATOM     15  H   UNL     1      -2.820  13.949  21.527  0.00  0.00    +0.000 HD
BRANCH  12  19
ATOM     16  O   UNL     1      -5.342  16.224  22.806  0.00  0.00    +0.000 OA
ATOM     17  C   UNL     1      -5.353  15.111  22.313  0.00  0.00    +0.000 C 
ATOM     18  C   UNL     1      -5.298  13.837  23.080  0.00  0.00    +0.000 C 
ATOM     19  C   UNL     1      -4.671  12.937  22.042  0.00  0.00    +0.000 C 
ATOM     20  C   UNL     1      -5.362  13.465  20.783  0.00  0.00    +0.000 C 
ATOM     21  O   UNL     1      -5.398  14.875  20.969  0.00  0.00    +0.000 OA
BRANCH  20  22
ATOM     22  O   UNL     1      -4.717  13.114  19.575  0.00  0.00    +0.000 OA
ATOM     23  H   UNL     1      -5.419  12.895  18.944  0.00  0.00    +0.000 HD
ENDBRANCH  20  22
ENDBRANCH  12  19
ENDBRANCH   1  13
BRANCH   8  24
ATOM     24  N   UNL     1       1.242   8.908  19.496  0.00  0.00    +0.000 N 
ATOM     25  C   UNL     1       2.029   8.858  18.322  0.00  0.00    +0.000 C 
ATOM     26  O   UNL     1       2.114   9.803  17.545  0.00  0.00    +0.000 OA
ATOM     27  H   UNL     1       1.288   8.106  20.112  0.00  0.00    +0.000 HD
BRANCH  25  28
ATOM     28  O   UNL     1       2.687   7.667  18.111  0.00  0.00    +0.000 OA
BRANCH  28  29
ATOM     29  C   UNL     1       2.453   6.588  19.093  0.00  0.00    +0.000 C 
BRANCH  29  30
ATOM     30  C   UNL     1       2.426   5.153  18.550  0.00  0.00    +0.000 A 
ATOM     31  C   UNL     1       3.387   4.692  17.643  0.00  0.00    +0.000 A 
ATOM     32  C   UNL     1       3.396   3.369  17.196  0.00  0.00    +0.000 A 
ATOM     33  C   UNL     1       2.440   2.454  17.667  0.00  0.00    +0.000 A 
ATOM     34  C   UNL     1       1.494   2.875  18.595  0.00  0.00    +0.000 A 
ATOM     35  C   UNL     1       1.494   4.207  19.042  0.00  0.00    +0.000 A 
ENDBRANCH  29  30
ENDBRANCH  28  29
ENDBRANCH  25  28
ENDBRANCH   8  24
TORSDOF 7
ENDMDL
MODEL 4
REMARK VINA RESULT:      -7.4      2.321      3.168
REMARK  Name = 
REMARK  7 active torsions:
REMARK  status: ('A' for Active; 'I' for Inactive)
REMARK    1  A    between atoms: C_4  and  N_5
REMARK    2  A    between atoms: C_6  and  C_8
REMARK    3  A    between atoms: C_15  and  N_16
REMARK    4  A    between atoms: C_17  and  O_19
REMARK    5  A    between atoms: O_19  and  C_20
REMARK    6  A    between atoms: C_20  and  C_21
REMARK    7  A    between atoms: C_30  and  O_31
REMARK                            x       y       z     vdW  Elec       q    Type
REMARK                         _______ _______ _______ _____ _____    ______ ____
ROOT
ATOM      1  C   UNL     1      -1.998  13.296  21.722  0.00  0.00    +0.000 C 
ATOM      2  C   UNL     1      -2.184  14.654  20.979  0.00  0.00    +0.000 C 
ATOM      3  S   UNL     1      -0.718  14.823  19.981  0.00  0.00    +0.000 S 
ATOM      4  C   UNL     1      -0.650  13.041  19.701  0.00  0.00    +0.000 C 
ATOM      5  C   UNL     1      -1.644  12.542  18.657  0.00  0.00    +0.000 C 
ATOM      6  C   UNL     1      -1.136  11.237  18.052  0.00  0.00    +0.000 C 
ATOM      7  C   UNL     1      -1.059  10.104  19.079  0.00  0.00    +0.000 C 
ATOM      8  C   UNL     1       0.156  10.277  20.028  0.00  0.00    +0.000 C 
ATOM      9  C   UNL     1      -0.492  11.140  21.297  0.00  0.00    +0.000 C 
ATOM     10  O   UNL     1      -0.644  10.669  22.425  0.00  0.00    +0.000 OA
ATOM     11  N   UNL     1      -1.017  12.421  20.953  0.00  0.00    +0.000 N 
ENDROOT
BRANCH   1  13
ATOM     12  N   UNL     1      -4.143  12.824  20.634  0.00  0.00    +0.000 N 
ATOM     13  C   UNL     1      -3.445  12.718  21.799  0.00  0.00    +0.000 C 
ATOM     14  O   UNL     1      -3.932  12.192  22.798  0.00  0.00    +0.000 OA
ATOM     15  H   UNL     1      -3.706  13.327  19.860  0.00  0.00    +0.000 HD
BRANCH  12  19
ATOM     16  O   UNL     1      -6.559  15.282  19.020  0.00  0.00    +0.000 OA
ATOM     17  C   UNL     1      -6.382  14.112  19.304  0.00  0.00    +0.000 C 
ATOM     18  C   UNL     1      -6.454  13.549  20.680  0.00  0.00    +0.000 C 
ATOM     19  C   UNL     1      -5.535  12.361  20.520  0.00  0.00    +0.000 C 
ATOM     20  C   UNL     1      -5.911  11.924  19.103  0.00  0.00    +0.000 C 
ATOM     21  O   UNL     1      -6.071  13.146  18.392  0.00  0.00    +0.000 OA
BRANCH  20  22
ATOM     22  O   UNL     1      -4.962  11.080  18.484  0.00  0.00    +0.000 OA
ATOM     23  H   UNL     1      -5.435  10.602  17.786  0.00  0.00    +0.000 HD
ENDBRANCH  20  22
ENDBRANCH  12  19
ENDBRANCH   1  13
BRANCH   8  24
ATOM     24  N   UNL     1       0.966   8.999  20.016  0.00  0.00    +0.000 N 
ATOM     25  C   UNL     1       1.827   8.697  18.936  0.00  0.00    +0.000 C 
ATOM     26  O   UNL     1       1.836   9.349  17.897  0.00  0.00    +0.000 OA
ATOM     27  H   UNL     1       1.078   8.450  20.858  0.00  0.00    +0.000 HD
BRANCH  25  28
ATOM     28  O   UNL     1       2.652   7.612  19.135  0.00  0.00    +0.000 OA
BRANCH  28  29
ATOM     29  C   UNL     1       2.491   6.470  18.210  0.00  0.00    +0.000 C 
BRANCH  29  30
ATOM     30  C   UNL     1       2.012   5.148  18.823  0.00  0.00    +0.000 A 
ATOM     31  C   UNL     1       1.820   5.003  20.202  0.00  0.00    +0.000 A 
ATOM     32  C   UNL     1       1.326   3.818  20.752  0.00  0.00    +0.000 A 
ATOM     33  C   UNL     1       0.989   2.737  19.922  0.00  0.00    +0.000 A 
ATOM     34  C   UNL     1       1.137   2.863  18.544  0.00  0.00    +0.000 A 
ATOM     35  C   UNL     1       1.632   4.061  18.000  0.00  0.00    +0.000 A 
ENDBRANCH  29  30
ENDBRANCH  28  29
ENDBRANCH  25  28
ENDBRANCH   8  24
TORSDOF 7
ENDMDL
MODEL 5
REMARK VINA RESULT:      -7.4      3.044      4.377
REMARK  Name = 
REMARK  7 active torsions:
REMARK  status: ('A' for Active; 'I' for Inactive)
REMARK    1  A    between atoms: C_4  and  N_5
REMARK    2  A    between atoms: C_6  and  C_8
REMARK    3  A    between atoms: C_15  and  N_16
REMARK    4  A    between atoms: C_17  and  O_19
REMARK    5  A    between atoms: O_19  and  C_20
REMARK    6  A    between atoms: C_20  and  C_21
REMARK    7  A    between atoms: C_30  and  O_31
REMARK                            x       y       z     vdW  Elec       q    Type
REMARK                         _______ _______ _______ _____ _____    ______ ____
ROOT
ATOM      1  C   UNL     1      -0.040  13.709  20.068  0.00  0.00    +0.000 C 
ATOM      2  C   UNL     1      -1.428  14.180  20.602  0.00  0.00    +0.000 C 
ATOM      3  S   UNL     1      -2.529  12.827  20.238  0.00  0.00    +0.000 S 
ATOM      4  C   UNL     1      -1.219  11.622  20.538  0.00  0.00    +0.000 C 
ATOM      5  C   UNL     1      -0.941  11.367  22.016  0.00  0.00    +0.000 C 
ATOM      6  C   UNL     1      -0.323   9.983  22.187  0.00  0.00    +0.000 C 
ATOM      7  C   UNL     1       1.046   9.864  21.514  0.00  0.00    +0.000 C 
ATOM      8  C   UNL     1       0.916   9.747  19.973  0.00  0.00    +0.000 C 
ATOM      9  C   UNL     1       1.011  11.334  19.476  0.00  0.00    +0.000 C 
ATOM     10  O   UNL     1       1.965  11.785  18.840  0.00  0.00    +0.000 OA
ATOM     11  N   UNL     1      -0.014  12.189  19.981  0.00  0.00    +0.000 N 
ENDROOT
BRANCH   1  13
ATOM     12  N   UNL     1       2.024  14.951  20.520  0.00  0.00    +0.000 N 
ATOM     13  C   UNL     1       0.971  14.307  21.095  0.00  0.00    +0.000 C 
ATOM     14  O   UNL     1       0.847  14.235  22.316  0.00  0.00    +0.000 OA
ATOM     15  H   UNL     1       2.104  14.920  19.502  0.00  0.00    +0.000 HD
BRANCH  12  19
ATOM     16  O   UNL     1       4.454  17.172  18.610  0.00  0.00    +0.000 OA
ATOM     17  C   UNL     1       4.022  16.901  19.715  0.00  0.00    +0.000 C 
ATOM     18  C   UNL     1       4.340  15.662  20.475  0.00  0.00    +0.000 C 
ATOM     19  C   UNL     1       3.096  15.555  21.326  0.00  0.00    +0.000 C 
ATOM     20  C   UNL     1       2.859  17.034  21.634  0.00  0.00    +0.000 C 
ATOM     21  O   UNL     1       3.160  17.698  20.411  0.00  0.00    +0.000 OA
BRANCH  20  22
ATOM     22  O   UNL     1       1.552  17.333  22.082  0.00  0.00    +0.000 OA
ATOM     23  H   UNL     1       1.623  17.509  23.032  0.00  0.00    +0.000 HD
ENDBRANCH  20  22
ENDBRANCH  12  19
ENDBRANCH   1  13
BRANCH   8  24
ATOM     24  N   UNL     1       1.677   8.522  19.514  0.00  0.00    +0.000 N 
ATOM     25  C   UNL     1       2.061   8.371  18.162  0.00  0.00    +0.000 C 
ATOM     26  O   UNL     1       1.661   9.117  17.275  0.00  0.00    +0.000 OA
ATOM     27  H   UNL     1       2.112   7.903  20.186  0.00  0.00    +0.000 HD
BRANCH  25  28
ATOM     28  O   UNL     1       2.914   7.319  17.912  0.00  0.00    +0.000 OA
BRANCH  28  29
ATOM     29  C   UNL     1       3.222   6.421  19.045  0.00  0.00    +0.000 C 
BRANCH  29  30
ATOM     30  C   UNL     1       2.337   5.178  19.201  0.00  0.00    +0.000 A 
ATOM     31  C   UNL     1       2.068   4.327  18.123  0.00  0.00    +0.000 A 
ATOM     32  C   UNL     1       1.311   3.163  18.281  0.00  0.00    +0.000 A 
ATOM     33  C   UNL     1       0.813   2.806  19.544  0.00  0.00    +0.000 A 
ATOM     34  C   UNL     1       1.094   3.614  20.640  0.00  0.00    +0.000 A 
ATOM     35  C   UNL     1       1.859   4.781  20.473  0.00  0.00    +0.000 A 
ENDBRANCH  29  30
ENDBRANCH  28  29
ENDBRANCH  25  28
ENDBRANCH   8  24
TORSDOF 7
ENDMDL
MODEL 6
REMARK VINA RESULT:      -7.3      1.393      2.027
REMARK  Name = 
REMARK  7 active torsions:
REMARK  status: ('A' for Active; 'I' for Inactive)
REMARK    1  A    between atoms: C_4  and  N_5
REMARK    2  A    between atoms: C_6  and  C_8
REMARK    3  A    between atoms: C_15  and  N_16
REMARK    4  A    between atoms: C_17  and  O_19
REMARK    5  A    between atoms: O_19  and  C_20
REMARK    6  A    between atoms: C_20  and  C_21
REMARK    7  A    between atoms: C_30  and  O_31
REMARK                            x       y       z     vdW  Elec       q    Type
REMARK                         _______ _______ _______ _____ _____    ______ ____
ROOT
ATOM      1  C   UNL     1       0.578  14.633  20.960  0.00  0.00    +0.000 C 
ATOM      2  C   UNL     1      -0.207  15.742  20.194  0.00  0.00    +0.000 C 
ATOM      3  S   UNL     1      -0.160  15.227  18.489  0.00  0.00    +0.000 S 
ATOM      4  C   UNL     1      -0.247  13.488  18.966  0.00  0.00    +0.000 C 
ATOM      5  C   UNL     1      -1.646  13.026  19.360  0.00  0.00    +0.000 C 
ATOM      6  C   UNL     1      -1.764  11.520  19.149  0.00  0.00    +0.000 C 
ATOM      7  C   UNL     1      -0.827  10.724  20.062  0.00  0.00    +0.000 C 
ATOM      8  C   UNL     1       0.644  10.799  19.574  0.00  0.00    +0.000 C 
ATOM      9  C   UNL     1       1.239  12.112  20.408  0.00  0.00    +0.000 C 
ATOM     10  O   UNL     1       2.086  12.018  21.298  0.00  0.00    +0.000 OA
ATOM     11  N   UNL     1       0.582  13.350  20.140  0.00  0.00    +0.000 N 
ENDROOT
BRANCH   1  13
ATOM     12  N   UNL     1      -1.301  13.749  22.263  0.00  0.00    +0.000 N 
ATOM     13  C   UNL     1      -0.179  14.520  22.320  0.00  0.00    +0.000 C 
ATOM     14  O   UNL     1       0.187  15.050  23.366  0.00  0.00    +0.000 OA
ATOM     15  H   UNL     1      -1.587  13.389  21.351  0.00  0.00    +0.000 HD
BRANCH  12  19
ATOM     16  O   UNL     1      -5.044  13.801  21.577  0.00  0.00    +0.000 OA
ATOM     17  C   UNL     1      -4.189  13.448  22.368  0.00  0.00    +0.000 C 
ATOM     18  C   UNL     1      -3.423  14.361  23.259  0.00  0.00    +0.000 C 
ATOM     19  C   UNL     1      -2.163  13.548  23.438  0.00  0.00    +0.000 C 
ATOM     20  C   UNL     1      -2.762  12.143  23.513  0.00  0.00    +0.000 C 
ATOM     21  O   UNL     1      -3.795  12.152  22.535  0.00  0.00    +0.000 OA
BRANCH  20  22
ATOM     22  O   UNL     1      -1.835  11.101  23.284  0.00  0.00    +0.000 OA
ATOM     23  H   UNL     1      -1.041  11.518  22.917  0.00  0.00    +0.000 HD
ENDBRANCH  20  22
ENDBRANCH  12  19
ENDBRANCH   1  13
BRANCH   8  24
ATOM     24  N   UNL     1       1.181   9.392  19.436  0.00  0.00    +0.000 N 
ATOM     25  C   UNL     1       1.959   9.018  18.316  0.00  0.00    +0.000 C 
ATOM     26  O   UNL     1       2.093   9.742  17.335  0.00  0.00    +0.000 OA
ATOM     27  H   UNL     1       1.185   8.761  20.227  0.00  0.00    +0.000 HD
BRANCH  25  28
ATOM     28  O   UNL     1       2.550   7.777  18.405  0.00  0.00    +0.000 OA
BRANCH  28  29
ATOM     29  C   UNL     1       2.326   7.014  19.650  0.00  0.00    +0.000 C 
BRANCH  29  30
ATOM     30  C   UNL     1       1.865   5.560  19.496  0.00  0.00    +0.000 A 
ATOM     31  C   UNL     1       1.946   4.889  18.270  0.00  0.00    +0.000 A 
ATOM     32  C   UNL     1       1.582   3.546  18.146  0.00  0.00    +0.000 A 
ATOM     33  C   UNL     1       1.139   2.824  19.265  0.00  0.00    +0.000 A 
ATOM     34  C   UNL     1       1.080   3.455  20.503  0.00  0.00    +0.000 A 
ATOM     35  C   UNL     1       1.452   4.805  20.620  0.00  0.00    +0.000 A 
ENDBRANCH  29  30
ENDBRANCH  28  29
ENDBRANCH  25  28
ENDBRANCH   8  24
TORSDOF 7
ENDMDL
MODEL 7
REMARK VINA RESULT:      -7.3      0.902      1.093
REMARK  Name = 
REMARK  7 active torsions:
REMARK  status: ('A' for Active; 'I' for Inactive)
REMARK    1  A    between atoms: C_4  and  N_5
REMARK    2  A    between atoms: C_6  and  C_8
REMARK    3  A    between atoms: C_15  and  N_16
REMARK    4  A    between atoms: C_17  and  O_19
REMARK    5  A    between atoms: O_19  and  C_20
REMARK    6  A    between atoms: C_20  and  C_21
REMARK    7  A    between atoms: C_30  and  O_31
REMARK                            x       y       z     vdW  Elec       q    Type
REMARK                         _______ _______ _______ _____ _____    ______ ____
ROOT
ATOM      1  C   UNL     1      -0.171  13.653  21.625  0.00  0.00    +0.000 C 
ATOM      2  C   UNL     1      -0.932  14.948  21.204  0.00  0.00    +0.000 C 
ATOM      3  S   UNL     1      -0.394  15.260  19.535  0.00  0.00    +0.000 S 
ATOM      4  C   UNL     1      -0.289  13.491  19.191  0.00  0.00    +0.000 C 
ATOM      5  C   UNL     1      -1.639  12.832  18.931  0.00  0.00    +0.000 C 
ATOM      6  C   UNL     1      -1.440  11.579  18.084  0.00  0.00    +0.000 C 
ATOM      7  C   UNL     1      -0.623  10.505  18.807  0.00  0.00    +0.000 C 
ATOM      8  C   UNL     1       0.886  10.865  18.844  0.00  0.00    +0.000 C 
ATOM      9  C   UNL     1       1.030  11.689  20.285  0.00  0.00    +0.000 C 
ATOM     10  O   UNL     1       1.644  11.246  21.256  0.00  0.00    +0.000 OA
ATOM     11  N   UNL     1       0.250  12.880  20.383  0.00  0.00    +0.000 N 
ENDROOT
BRANCH   1  13
ATOM     12  N   UNL     1      -2.078  13.724  23.163  0.00  0.00    +0.000 N 
ATOM     13  C   UNL     1      -1.196  12.901  22.529  0.00  0.00    +0.000 C 
ATOM     14  O   UNL     1      -1.242  11.680  22.663  0.00  0.00    +0.000 OA
ATOM     15  H   UNL     1      -1.948  14.732  23.061  0.00  0.00    +0.000 HD
BRANCH  12  19
ATOM     16  O   UNL     1      -4.630  16.268  24.387  0.00  0.00    +0.000 OA
ATOM     17  C   UNL     1      -4.409  15.080  24.244  0.00  0.00    +0.000 C 
ATOM     18  C   UNL     1      -3.462  14.284  25.071  0.00  0.00    +0.000 C 
ATOM     19  C   UNL     1      -3.102  13.201  24.081  0.00  0.00    +0.000 C 
ATOM     20  C   UNL     1      -4.462  12.993  23.411  0.00  0.00    +0.000 C 
ATOM     21  O   UNL     1      -4.992  14.307  23.282  0.00  0.00    +0.000 OA
BRANCH  20  22
ATOM     22  O   UNL     1      -4.401  12.329  22.165  0.00  0.00    +0.000 OA
ATOM     23  H   UNL     1      -4.292  13.019  21.493  0.00  0.00    +0.000 HD
ENDBRANCH  20  22
ENDBRANCH  12  19
ENDBRANCH   1  13
BRANCH   8  24
ATOM     24  N   UNL     1       1.675   9.700  18.291  0.00  0.00    +0.000 N 
ATOM     25  C   UNL     1       1.831   8.509  19.037  0.00  0.00    +0.000 C 
ATOM     26  O   UNL     1       1.493   8.418  20.213  0.00  0.00    +0.000 OA
ATOM     27  H   UNL     1       1.918   9.660  17.310  0.00  0.00    +0.000 HD
BRANCH  25  28
ATOM     28  O   UNL     1       2.397   7.458  18.349  0.00  0.00    +0.000 OA
BRANCH  28  29
ATOM     29  C   UNL     1       2.999   6.376  19.154  0.00  0.00    +0.000 C 
BRANCH  29  30
ATOM     30  C   UNL     1       2.187   5.082  19.289  0.00  0.00    +0.000 A 
ATOM     31  C   UNL     1       1.952   4.243  18.192  0.00  0.00    +0.000 A 
ATOM     32  C   UNL     1       1.263   3.036  18.329  0.00  0.00    +0.000 A 
ATOM     33  C   UNL     1       0.802   2.620  19.589  0.00  0.00    +0.000 A 
ATOM     34  C   UNL     1       1.051   3.416  20.702  0.00  0.00    +0.000 A 
ATOM     35  C   UNL     1       1.747   4.628  20.556  0.00  0.00    +0.000 A 
ENDBRANCH  29  30
ENDBRANCH  28  29
ENDBRANCH  25  28
ENDBRANCH   8  24
TORSDOF 7
ENDMDL
MODEL 8
REMARK VINA RESULT:      -7.2      1.679      2.374
REMARK  Name = 
REMARK  7 active torsions:
REMARK  status: ('A' for Active; 'I' for Inactive)
REMARK    1  A    between atoms: C_4  and  N_5
REMARK    2  A    between atoms: C_6  and  C_8
REMARK    3  A    between atoms: C_15  and  N_16
REMARK    4  A    between atoms: C_17  and  O_19
REMARK    5  A    between atoms: O_19  and  C_20
REMARK    6  A    between atoms: C_20  and  C_21
REMARK    7  A    between atoms: C_30  and  O_31
REMARK                            x       y       z     vdW  Elec       q    Type
REMARK                         _______ _______ _______ _____ _____    ______ ____
ROOT
ATOM      1  C   UNL     1       0.735  14.209  21.718  0.00  0.00    +0.000 C 
ATOM      2  C   UNL     1       0.714  15.644  21.107  0.00  0.00    +0.000 C 
ATOM      3  S   UNL     1       1.484  15.460  19.510  0.00  0.00    +0.000 S 
ATOM      4  C   UNL     1       0.775  13.812  19.309  0.00  0.00    +0.000 C 
ATOM      5  C   UNL     1      -0.697  13.819  18.910  0.00  0.00    +0.000 C 
ATOM      6  C   UNL     1      -1.036  12.518  18.189  0.00  0.00    +0.000 C 
ATOM      7  C   UNL     1      -0.889  11.290  19.092  0.00  0.00    +0.000 C 
ATOM      8  C   UNL     1       0.601  10.920  19.313  0.00  0.00    +0.000 C 
ATOM      9  C   UNL     1       0.985  11.761  20.698  0.00  0.00    +0.000 C 
ATOM     10  O   UNL     1       1.229  11.212  21.774  0.00  0.00    +0.000 OA
ATOM     11  N   UNL     1       0.852  13.178  20.604  0.00  0.00    +0.000 N 
ENDROOT
BRANCH   1  13
ATOM     12  N   UNL     1      -1.709  14.026  21.737  0.00  0.00    +0.000 N 
ATOM     13  C   UNL     1      -0.601  14.133  22.521  0.00  0.00    +0.000 C 
ATOM     14  O   UNL     1      -0.677  14.147  23.748  0.00  0.00    +0.000 OA
ATOM     15  H   UNL     1      -1.585  14.084  20.725  0.00  0.00    +0.000 HD
BRANCH  12  19
ATOM     16  O   UNL     1      -4.437  12.791  19.387  0.00  0.00    +0.000 OA
ATOM     17  C   UNL     1      -4.142  12.965  20.555  0.00  0.00    +0.000 C 
ATOM     18  C   UNL     1      -4.062  14.291  21.226  0.00  0.00    +0.000 C 
ATOM     19  C   UNL     1      -3.062  13.970  22.312  0.00  0.00    +0.000 C 
ATOM     20  C   UNL     1      -3.507  12.552  22.671  0.00  0.00    +0.000 C 
ATOM     21  O   UNL     1      -3.822  11.957  21.417  0.00  0.00    +0.000 OA
BRANCH  20  22
ATOM     22  O   UNL     1      -2.541  11.800  23.378  0.00  0.00    +0.000 OA
ATOM     23  H   UNL     1      -1.750  11.776  22.819  0.00  0.00    +0.000 HD
ENDBRANCH  20  22
ENDBRANCH  12  19
ENDBRANCH   1  13
BRANCH   8  24
ATOM     24  N   UNL     1       0.796   9.463  18.958  0.00  0.00    +0.000 N 
ATOM     25  C   UNL     1       1.791   9.068  18.034  0.00  0.00    +0.000 C 
ATOM     26  O   UNL     1       2.418   9.874  17.355  0.00  0.00    +0.000 OA
ATOM     27  H   UNL     1       0.381   8.733  19.523  0.00  0.00    +0.000 HD
BRANCH  25  28
ATOM     28  O   UNL     1       1.999   7.709  17.946  0.00  0.00    +0.000 OA
BRANCH  28  29
ATOM     29  C   UNL     1       2.363   7.004  19.193  0.00  0.00    +0.000 C 
BRANCH  29  30
ATOM     30  C   UNL     1       1.897   5.549  19.326  0.00  0.00    +0.000 A 
ATOM     31  C   UNL     1       1.844   4.690  18.222  0.00  0.00    +0.000 A 
ATOM     32  C   UNL     1       1.476   3.350  18.355  0.00  0.00    +0.000 A 
ATOM     33  C   UNL     1       1.165   2.821  19.618  0.00  0.00    +0.000 A 
ATOM     34  C   UNL     1       1.242   3.642  20.738  0.00  0.00    +0.000 A 
ATOM     35  C   UNL     1       1.616   4.989  20.596  0.00  0.00    +0.000 A 
ENDBRANCH  29  30
ENDBRANCH  28  29
ENDBRANCH  25  28
ENDBRANCH   8  24
TORSDOF 7
ENDMDL
MODEL 9
REMARK VINA RESULT:      -7.2      3.001      4.783
REMARK  Name = 
REMARK  7 active torsions:
REMARK  status: ('A' for Active; 'I' for Inactive)
REMARK    1  A    between atoms: C_4  and  N_5
REMARK    2  A    between atoms: C_6  and  C_8
REMARK    3  A    between atoms: C_15  and  N_16
REMARK    4  A    between atoms: C_17  and  O_19
REMARK    5  A    between atoms: O_19  and  C_20
REMARK    6  A    between atoms: C_20  and  C_21
REMARK    7  A    between atoms: C_30  and  O_31
REMARK                            x       y       z     vdW  Elec       q    Type
REMARK                         _______ _______ _______ _____ _____    ______ ____
ROOT
ATOM      1  C   UNL     1      -0.276  13.648  19.717  0.00  0.00    +0.000 C 
ATOM      2  C   UNL     1      -1.671  14.089  20.259  0.00  0.00    +0.000 C 
ATOM      3  S   UNL     1      -2.703  12.651  20.062  0.00  0.00    +0.000 S 
ATOM      4  C   UNL     1      -1.316  11.552  20.418  0.00  0.00    +0.000 C 
ATOM      5  C   UNL     1      -0.975  11.450  21.902  0.00  0.00    +0.000 C 
ATOM      6  C   UNL     1      -0.273  10.124  22.173  0.00  0.00    +0.000 C 
ATOM      7  C   UNL     1       1.078  10.018  21.461  0.00  0.00    +0.000 C 
ATOM      8  C   UNL     1       0.904   9.752  19.943  0.00  0.00    +0.000 C 
ATOM      9  C   UNL     1       0.890  11.289  19.302  0.00  0.00    +0.000 C 
ATOM     10  O   UNL     1       1.794  11.731  18.591  0.00  0.00    +0.000 OA
ATOM     11  N   UNL     1      -0.165  12.130  19.766  0.00  0.00    +0.000 N 
ENDROOT
BRANCH   1  13
ATOM     12  N   UNL     1       1.901  14.729  20.032  0.00  0.00    +0.000 N 
ATOM     13  C   UNL     1       0.732  14.392  20.646  0.00  0.00    +0.000 C 
ATOM     14  O   UNL     1       0.514  14.679  21.821  0.00  0.00    +0.000 OA
ATOM     15  H   UNL     1       2.046  14.408  19.074  0.00  0.00    +0.000 HD
BRANCH  12  19
ATOM     16  O   UNL     1       5.238  14.880  18.209  0.00  0.00    +0.000 OA
ATOM     17  C   UNL     1       4.575  15.378  19.100  0.00  0.00    +0.000 C 
ATOM     18  C   UNL     1       4.293  14.736  20.413  0.00  0.00    +0.000 C 
ATOM     19  C   UNL     1       2.986  15.411  20.754  0.00  0.00    +0.000 C 
ATOM     20  C   UNL     1       3.270  16.819  20.227  0.00  0.00    +0.000 C 
ATOM     21  O   UNL     1       3.975  16.600  19.011  0.00  0.00    +0.000 OA
BRANCH  20  22
ATOM     22  O   UNL     1       2.115  17.609  20.026  0.00  0.00    +0.000 OA
ATOM     23  H   UNL     1       1.367  17.090  20.357  0.00  0.00    +0.000 HD
ENDBRANCH  20  22
ENDBRANCH  12  19
ENDBRANCH   1  13
BRANCH   8  24
ATOM     24  N   UNL     1       1.718   8.534  19.568  0.00  0.00    +0.000 N 
ATOM     25  C   UNL     1       2.047   8.268  18.219  0.00  0.00    +0.000 C 
ATOM     26  O   UNL     1       1.558   8.895  17.285  0.00  0.00    +0.000 OA
ATOM     27  H   UNL     1       2.224   8.013  20.273  0.00  0.00    +0.000 HD
BRANCH  25  28
ATOM     28  O   UNL     1       2.953   7.247  18.029  0.00  0.00    +0.000 OA
BRANCH  28  29
ATOM     29  C   UNL     1       3.241   6.382  19.192  0.00  0.00    +0.000 C 
BRANCH  29  30
ATOM     30  C   UNL     1       2.412   5.098  19.319  0.00  0.00    +0.000 A 
ATOM     31  C   UNL     1       1.865   4.694  20.543  0.00  0.00    +0.000 A 
ATOM     32  C   UNL     1       1.061   3.557  20.645  0.00  0.00    +0.000 A 
ATOM     33  C   UNL     1       0.764   2.793  19.505  0.00  0.00    +0.000 A 
ATOM     34  C   UNL     1       1.265   3.189  18.270  0.00  0.00    +0.000 A 
ATOM     35  C   UNL     1       2.071   4.337  18.175  0.00  0.00    +0.000 A 
ENDBRANCH  29  30
ENDBRANCH  28  29
ENDBRANCH  25  28
ENDBRANCH   8  24
TORSDOF 7
ENDMDL
