MODEL 1
REMARK VINA RESULT:      -7.3      0.000      0.000
REMARK  Name = 
REMARK  3 active torsions:
REMARK  status: ('A' for Active; 'I' for Inactive)
REMARK    1  A    between atoms: C_1  and  C_2
REMARK    2  A    between atoms: C_6  and  C_7
REMARK    3  A    between atoms: C_9  and  N_10
REMARK                            x       y       z     vdW  Elec       q    Type
REMARK                         _______ _______ _______ _____ _____    ______ ____
ROOT
ATOM      1  C   UNL     1       4.639   1.774  20.265  0.00  0.00    +0.000 C 
ATOM      2  C   UNL     1       4.888   3.222  19.983  0.00  0.00    +0.000 C 
ATOM      3  C   UNL     1       4.577   3.884  18.850  0.00  0.00    +0.000 C 
ATOM      4  C   UNL     1       4.401   5.418  18.754  0.00  0.00    +0.000 C 
ATOM      5  C   UNL     1       3.197   5.721  19.551  0.00  0.00    +0.000 C 
ATOM      6  C   UNL     1       2.176   4.891  19.179  0.00  0.00    +0.000 C 
ATOM      7  C   UNL     1       1.034   4.690  20.136  0.00  0.00    +0.000 C 
ATOM      8  C   UNL     1       2.400   3.882  17.915  0.00  0.00    +0.000 C 
ATOM      9  C   UNL     1       3.986   3.441  17.545  0.00  0.00    +0.000 C 
ATOM     10  C   UNL     1       4.965   4.171  16.460  0.00  0.00    +0.000 A 
ATOM     11  C   UNL     1       5.298   3.495  15.196  0.00  0.00    +0.000 A 
ATOM     12  C   UNL     1       6.279   3.936  14.387  0.00  0.00    +0.000 A 
ATOM     13  C   UNL     1       7.020   5.172  14.718  0.00  0.00    +0.000 A 
ATOM     14  O   UNL     1       7.888   5.619  13.981  0.00  0.00    +0.000 OA
ATOM     15  N   UNL     1       6.681   5.759  15.907  0.00  0.00    +0.000 N 
ATOM     16  C   UNL     1       5.733   5.271  16.779  0.00  0.00    +0.000 A 
ATOM     17  C   UNL     1       5.614   6.038  18.115  0.00  0.00    +0.000 C 
ATOM     18  H   UNL     1       7.210   6.589  16.143  0.00  0.00    +0.000 HD
ENDROOT
BRANCH   9  19
ATOM     19  N   UNL     1       4.030   1.998  17.283  0.00  0.00    +0.000 NA
ATOM     20  H   UNL     1       4.956   1.630  17.475  0.00  0.00    +0.000 HD
ATOM     21  H   UNL     1       3.846   1.850  16.292  0.00  0.00    +0.000 HD
ENDBRANCH   9  19
TORSDOF 1
ENDMDL
MODEL 2
REMARK VINA RESULT:      -7.2      2.850      5.069
REMARK  Name = 
REMARK  3 active torsions:
REMARK  status: ('A' for Active; 'I' for Inactive)
REMARK    1  A    between atoms: C_1  and  C_2
REMARK    2  A    between atoms: C_6  and  C_7
REMARK    3  A    between atoms: C_9  and  N_10
REMARK                            x       y       z     vdW  Elec       q    Type
REMARK                         _______ _______ _______ _____ _____    ______ ____
ROOT
ATOM      1  C   UNL     1       6.113   5.122  14.173  0.00  0.00    +0.000 C 
ATOM      2  C   UNL     1       5.194   5.799  15.140  0.00  0.00    +0.000 C 
ATOM      3  C   UNL     1       4.907   5.391  16.393  0.00  0.00    +0.000 C 
ATOM      4  C   UNL     1       4.363   6.315  17.510  0.00  0.00    +0.000 C 
ATOM      5  C   UNL     1       5.461   7.255  17.805  0.00  0.00    +0.000 C 
ATOM      6  C   UNL     1       6.624   6.561  17.998  0.00  0.00    +0.000 C 
ATOM      7  C   UNL     1       7.927   7.296  17.846  0.00  0.00    +0.000 C 
ATOM      8  C   UNL     1       6.576   4.929  18.010  0.00  0.00    +0.000 C 
ATOM      9  C   UNL     1       5.308   4.183  17.185  0.00  0.00    +0.000 C 
ATOM     10  C   UNL     1       3.884   3.706  17.827  0.00  0.00    +0.000 A 
ATOM     11  C   UNL     1       3.596   2.273  17.999  0.00  0.00    +0.000 A 
ATOM     12  C   UNL     1       2.362   1.823  18.291  0.00  0.00    +0.000 A 
ATOM     13  C   UNL     1       1.254   2.775  18.517  0.00  0.00    +0.000 A 
ATOM     14  O   UNL     1       0.132   2.397  18.824  0.00  0.00    +0.000 OA
ATOM     15  N   UNL     1       1.569   4.095  18.337  0.00  0.00    +0.000 N 
ATOM     16  C   UNL     1       2.809   4.559  17.961  0.00  0.00    +0.000 A 
ATOM     17  C   UNL     1       2.889   6.081  17.701  0.00  0.00    +0.000 C 
ATOM     18  H   UNL     1       0.800   4.742  18.465  0.00  0.00    +0.000 HD
ENDROOT
BRANCH   9  19
ATOM     19  N   UNL     1       5.842   3.060  16.406  0.00  0.00    +0.000 NA
ATOM     20  H   UNL     1       6.037   3.349  15.454  0.00  0.00    +0.000 HD
ATOM     21  H   UNL     1       5.127   2.336  16.362  0.00  0.00    +0.000 HD
ENDBRANCH   9  19
TORSDOF 1
ENDMDL
MODEL 3
REMARK VINA RESULT:      -7.2      3.650      5.193
REMARK  Name = 
REMARK  3 active torsions:
REMARK  status: ('A' for Active; 'I' for Inactive)
REMARK    1  A    between atoms: C_1  and  C_2
REMARK    2  A    between atoms: C_6  and  C_7
REMARK    3  A    between atoms: C_9  and  N_10
REMARK                            x       y       z     vdW  Elec       q    Type
REMARK                         _______ _______ _______ _____ _____    ______ ____
ROOT
ATOM      1  C   UNL     1       6.611   5.144  18.569  0.00  0.00    +0.000 C 
ATOM      2  C   UNL     1       5.425   5.107  19.481  0.00  0.00    +0.000 C 
ATOM      3  C   UNL     1       4.151   5.398  19.151  0.00  0.00    +0.000 C 
ATOM      4  C   UNL     1       2.910   4.909  19.937  0.00  0.00    +0.000 C 
ATOM      5  C   UNL     1       2.883   3.447  19.748  0.00  0.00    +0.000 C 
ATOM      6  C   UNL     1       3.010   3.151  18.419  0.00  0.00    +0.000 C 
ATOM      7  C   UNL     1       3.472   1.772  18.036  0.00  0.00    +0.000 C 
ATOM      8  C   UNL     1       3.025   4.372  17.337  0.00  0.00    +0.000 C 
ATOM      9  C   UNL     1       3.516   5.891  17.885  0.00  0.00    +0.000 C 
ATOM     10  C   UNL     1       2.543   7.084  18.430  0.00  0.00    +0.000 A 
ATOM     11  C   UNL     1       2.338   8.295  17.620  0.00  0.00    +0.000 A 
ATOM     12  C   UNL     1       1.752   9.398  18.120  0.00  0.00    +0.000 A 
ATOM     13  C   UNL     1       1.228   9.403  19.503  0.00  0.00    +0.000 A 
ATOM     14  O   UNL     1       0.654  10.376  19.971  0.00  0.00    +0.000 OA
ATOM     15  N   UNL     1       1.451   8.258  20.218  0.00  0.00    +0.000 N 
ATOM     16  C   UNL     1       2.120   7.153  19.740  0.00  0.00    +0.000 A 
ATOM     17  C   UNL     1       2.356   6.029  20.775  0.00  0.00    +0.000 C 
ATOM     18  H   UNL     1       1.115   8.275  21.174  0.00  0.00    +0.000 HD
ENDROOT
BRANCH   9  19
ATOM     19  N   UNL     1       4.432   6.479  16.901  0.00  0.00    +0.000 NA
ATOM     20  H   UNL     1       4.543   7.473  17.069  0.00  0.00    +0.000 HD
ATOM     21  H   UNL     1       4.016   6.373  15.977  0.00  0.00    +0.000 HD
ENDBRANCH   9  19
TORSDOF 1
ENDMDL
MODEL 4
REMARK VINA RESULT:      -7.2      2.228      2.762
REMARK  Name = 
REMARK  3 active torsions:
REMARK  status: ('A' for Active; 'I' for Inactive)
REMARK    1  A    between atoms: C_1  and  C_2
REMARK    2  A    between atoms: C_6  and  C_7
REMARK    3  A    between atoms: C_9  and  N_10
REMARK                            x       y       z     vdW  Elec       q    Type
REMARK                         _______ _______ _______ _____ _____    ______ ____
ROOT
ATOM      1  C   UNL     1       2.644   3.934  21.874  0.00  0.00    +0.000 C 
ATOM      2  C   UNL     1       2.438   4.769  20.650  0.00  0.00    +0.000 C 
ATOM      3  C   UNL     1       3.095   4.651  19.479  0.00  0.00    +0.000 C 
ATOM      4  C   UNL     1       2.563   5.171  18.121  0.00  0.00    +0.000 C 
ATOM      5  C   UNL     1       1.383   4.339  17.823  0.00  0.00    +0.000 C 
ATOM      6  C   UNL     1       1.700   3.017  17.972  0.00  0.00    +0.000 C 
ATOM      7  C   UNL     1       0.582   2.034  18.180  0.00  0.00    +0.000 C 
ATOM      8  C   UNL     1       3.248   2.608  18.289  0.00  0.00    +0.000 C 
ATOM      9  C   UNL     1       4.222   3.769  19.031  0.00  0.00    +0.000 C 
ATOM     10  C   UNL     1       5.209   4.829  18.276  0.00  0.00    +0.000 A 
ATOM     11  C   UNL     1       6.668   4.665  18.359  0.00  0.00    +0.000 A 
ATOM     12  C   UNL     1       7.519   5.632  17.968  0.00  0.00    +0.000 A 
ATOM     13  C   UNL     1       7.004   6.882  17.371  0.00  0.00    +0.000 A 
ATOM     14  O   UNL     1       7.755   7.760  16.968  0.00  0.00    +0.000 OA
ATOM     15  N   UNL     1       5.641   6.991  17.323  0.00  0.00    +0.000 N 
ATOM     16  C   UNL     1       4.763   6.041  17.794  0.00  0.00    +0.000 A 
ATOM     17  C   UNL     1       3.271   6.444  17.743  0.00  0.00    +0.000 C 
ATOM     18  H   UNL     1       5.292   7.862  16.939  0.00  0.00    +0.000 HD
ENDROOT
BRANCH   9  19
ATOM     19  N   UNL     1       4.994   3.129  20.102  0.00  0.00    +0.000 NA
ATOM     20  H   UNL     1       5.813   2.666  19.722  0.00  0.00    +0.000 HD
ATOM     21  H   UNL     1       4.410   2.411  20.528  0.00  0.00    +0.000 HD
ENDBRANCH   9  19
TORSDOF 1
ENDMDL
MODEL 5
REMARK VINA RESULT:      -7.2      4.145      6.155
REMARK  Name = 
REMARK  3 active torsions:
REMARK  status: ('A' for Active; 'I' for Inactive)
REMARK    1  A    between atoms: C_1  and  C_2
REMARK    2  A    between atoms: C_6  and  C_7
REMARK    3  A    between atoms: C_9  and  N_10
REMARK                            x       y       z     vdW  Elec       q    Type
REMARK                         _______ _______ _______ _____ _____    ______ ____
ROOT
ATOM      1  C   UNL     1       1.439   3.361  18.200  0.00  0.00    +0.000 C 
ATOM      2  C   UNL     1       1.829   4.692  17.637  0.00  0.00    +0.000 C 
ATOM      3  C   UNL     1       2.349   5.730  18.322  0.00  0.00    +0.000 C 
ATOM      4  C   UNL     1       3.168   6.877  17.681  0.00  0.00    +0.000 C 
ATOM      5  C   UNL     1       4.415   6.248  17.210  0.00  0.00    +0.000 C 
ATOM      6  C   UNL     1       4.961   5.496  18.213  0.00  0.00    +0.000 C 
ATOM      7  C   UNL     1       5.941   4.417  17.845  0.00  0.00    +0.000 C 
ATOM      8  C   UNL     1       4.272   5.535  19.692  0.00  0.00    +0.000 C 
ATOM      9  C   UNL     1       2.638   5.946  19.778  0.00  0.00    +0.000 C 
ATOM     10  C   UNL     1       2.027   7.439  20.031  0.00  0.00    +0.000 A 
ATOM     11  C   UNL     1       1.384   7.765  21.314  0.00  0.00    +0.000 A 
ATOM     12  C   UNL     1       0.658   8.884  21.485  0.00  0.00    +0.000 A 
ATOM     13  C   UNL     1       0.538   9.871  20.390  0.00  0.00    +0.000 A 
ATOM     14  O   UNL     1      -0.080  10.917  20.530  0.00  0.00    +0.000 OA
ATOM     15  N   UNL     1       1.145   9.520  19.215  0.00  0.00    +0.000 N 
ATOM     16  C   UNL     1       1.823   8.339  19.007  0.00  0.00    +0.000 A 
ATOM     17  C   UNL     1       2.317   8.112  17.559  0.00  0.00    +0.000 C 
ATOM     18  H   UNL     1       1.037  10.185  18.459  0.00  0.00    +0.000 HD
ENDROOT
BRANCH   9  19
ATOM     19  N   UNL     1       1.963   5.028  20.702  0.00  0.00    +0.000 NA
ATOM     20  H   UNL     1       2.219   4.067  20.499  0.00  0.00    +0.000 HD
ATOM     21  H   UNL     1       0.959   5.111  20.556  0.00  0.00    +0.000 HD
ENDBRANCH   9  19
TORSDOF 1
ENDMDL
MODEL 6
REMARK VINA RESULT:      -6.9      1.788      3.006
REMARK  Name = 
REMARK  3 active torsions:
REMARK  status: ('A' for Active; 'I' for Inactive)
REMARK    1  A    between atoms: C_1  and  C_2
REMARK    2  A    between atoms: C_6  and  C_7
REMARK    3  A    between atoms: C_9  and  N_10
REMARK                            x       y       z     vdW  Elec       q    Type
REMARK                         _______ _______ _______ _____ _____    ______ ____
ROOT
ATOM      1  C   UNL     1       2.223   6.984  20.024  0.00  0.00    +0.000 C 
ATOM      2  C   UNL     1       2.018   5.918  18.994  0.00  0.00    +0.000 C 
ATOM      3  C   UNL     1       2.873   4.920  18.692  0.00  0.00    +0.000 C 
ATOM      4  C   UNL     1       2.462   3.596  18.002  0.00  0.00    +0.000 C 
ATOM      5  C   UNL     1       1.606   2.898  18.978  0.00  0.00    +0.000 C 
ATOM      6  C   UNL     1       2.224   2.869  20.197  0.00  0.00    +0.000 C 
ATOM      7  C   UNL     1       1.381   2.642  21.421  0.00  0.00    +0.000 C 
ATOM      8  C   UNL     1       3.749   3.440  20.322  0.00  0.00    +0.000 C 
ATOM      9  C   UNL     1       4.249   4.577  19.181  0.00  0.00    +0.000 C 
ATOM     10  C   UNL     1       5.040   4.265  17.787  0.00  0.00    +0.000 A 
ATOM     11  C   UNL     1       6.456   4.637  17.644  0.00  0.00    +0.000 A 
ATOM     12  C   UNL     1       7.081   4.627  16.453  0.00  0.00    +0.000 A 
ATOM     13  C   UNL     1       6.369   4.170  15.240  0.00  0.00    +0.000 A 
ATOM     14  O   UNL     1       6.923   4.110  14.151  0.00  0.00    +0.000 OA
ATOM     15  N   UNL     1       5.052   3.843  15.422  0.00  0.00    +0.000 N 
ATOM     16  C   UNL     1       4.383   3.927  16.623  0.00  0.00    +0.000 A 
ATOM     17  C   UNL     1       2.869   3.623  16.553  0.00  0.00    +0.000 C 
ATOM     18  H   UNL     1       4.560   3.558  14.584  0.00  0.00    +0.000 HD
ENDROOT
BRANCH   9  19
ATOM     19  N   UNL     1       4.967   5.657  19.867  0.00  0.00    +0.000 NA
ATOM     20  H   UNL     1       4.354   6.131  20.522  0.00  0.00    +0.000 HD
ATOM     21  H   UNL     1       5.252   6.342  19.169  0.00  0.00    +0.000 HD
ENDBRANCH   9  19
TORSDOF 1
ENDMDL
MODEL 7
REMARK VINA RESULT:      -6.8      2.912      5.627
REMARK  Name = 
REMARK  3 active torsions:
REMARK  status: ('A' for Active; 'I' for Inactive)
REMARK    1  A    between atoms: C_1  and  C_2
REMARK    2  A    between atoms: C_6  and  C_7
REMARK    3  A    between atoms: C_9  and  N_10
REMARK                            x       y       z     vdW  Elec       q    Type
REMARK                         _______ _______ _______ _____ _____    ______ ____
ROOT
ATOM      1  C   UNL     1       7.682   8.161  17.546  0.00  0.00    +0.000 C 
ATOM      2  C   UNL     1       7.448   6.712  17.836  0.00  0.00    +0.000 C 
ATOM      3  C   UNL     1       6.304   6.027  17.633  0.00  0.00    +0.000 C 
ATOM      4  C   UNL     1       6.221   4.489  17.484  0.00  0.00    +0.000 C 
ATOM      5  C   UNL     1       6.915   4.183  16.220  0.00  0.00    +0.000 C 
ATOM      6  C   UNL     1       6.442   4.992  15.225  0.00  0.00    +0.000 C 
ATOM      7  C   UNL     1       7.293   5.193  14.002  0.00  0.00    +0.000 C 
ATOM      8  C   UNL     1       5.185   5.983  15.545  0.00  0.00    +0.000 C 
ATOM      9  C   UNL     1       4.945   6.440  17.151  0.00  0.00    +0.000 C 
ATOM     10  C   UNL     1       3.962   5.706  18.230  0.00  0.00    +0.000 A 
ATOM     11  C   UNL     1       2.720   6.366  18.662  0.00  0.00    +0.000 A 
ATOM     12  C   UNL     1       2.007   5.926  19.715  0.00  0.00    +0.000 A 
ATOM     13  C   UNL     1       2.421   4.706  20.439  0.00  0.00    +0.000 A 
ATOM     14  O   UNL     1       1.770   4.258  21.373  0.00  0.00    +0.000 OA
ATOM     15  N   UNL     1       3.587   4.134  20.006  0.00  0.00    +0.000 N 
ATOM     16  C   UNL     1       4.365   4.623  18.981  0.00  0.00    +0.000 A 
ATOM     17  C   UNL     1       5.699   3.876  18.756  0.00  0.00    +0.000 C 
ATOM     18  H   UNL     1       3.882   3.314  20.523  0.00  0.00    +0.000 HD
ENDROOT
BRANCH   9  19
ATOM     19  N   UNL     1       4.663   7.879  17.200  0.00  0.00    +0.000 NA
ATOM     20  H   UNL     1       5.153   8.311  17.976  0.00  0.00    +0.000 HD
ATOM     21  H   UNL     1       3.665   8.001  17.367  0.00  0.00    +0.000 HD
ENDBRANCH   9  19
TORSDOF 1
ENDMDL
MODEL 8
REMARK VINA RESULT:      -6.6      3.625      5.646
REMARK  Name = 
REMARK  3 active torsions:
REMARK  status: ('A' for Active; 'I' for Inactive)
REMARK    1  A    between atoms: C_1  and  C_2
REMARK    2  A    between atoms: C_6  and  C_7
REMARK    3  A    between atoms: C_9  and  N_10
REMARK                            x       y       z     vdW  Elec       q    Type
REMARK                         _______ _______ _______ _____ _____    ______ ____
ROOT
ATOM      1  C   UNL     1       3.010   2.845  17.499  0.00  0.00    +0.000 C 
ATOM      2  C   UNL     1       3.227   4.257  17.052  0.00  0.00    +0.000 C 
ATOM      3  C   UNL     1       3.510   5.313  17.840  0.00  0.00    +0.000 C 
ATOM      4  C   UNL     1       4.184   6.617  17.346  0.00  0.00    +0.000 C 
ATOM      5  C   UNL     1       5.552   6.224  16.963  0.00  0.00    +0.000 C 
ATOM      6  C   UNL     1       6.125   5.499  17.971  0.00  0.00    +0.000 C 
ATOM      7  C   UNL     1       7.295   4.615  17.640  0.00  0.00    +0.000 C 
ATOM      8  C   UNL     1       5.313   5.325  19.377  0.00  0.00    +0.000 C 
ATOM      9  C   UNL     1       3.633   5.468  19.327  0.00  0.00    +0.000 C 
ATOM     10  C   UNL     1       2.768   6.826  19.603  0.00  0.00    +0.000 A 
ATOM     11  C   UNL     1       1.973   6.956  20.833  0.00  0.00    +0.000 A 
ATOM     12  C   UNL     1       1.062   7.933  20.996  0.00  0.00    +0.000 A 
ATOM     13  C   UNL     1       0.879   8.963  19.951  0.00  0.00    +0.000 A 
ATOM     14  O   UNL     1       0.089   9.887  20.089  0.00  0.00    +0.000 OA
ATOM     15  N   UNL     1       1.635   8.795  18.823  0.00  0.00    +0.000 N 
ATOM     16  C   UNL     1       2.511   7.753  18.615  0.00  0.00    +0.000 A 
ATOM     17  C   UNL     1       3.157   7.709  17.212  0.00  0.00    +0.000 C 
ATOM     18  H   UNL     1       1.485   9.487  18.098  0.00  0.00    +0.000 HD
ENDROOT
BRANCH   9  19
ATOM     19  N   UNL     1       3.039   4.393  20.129  0.00  0.00    +0.000 NA
ATOM     20  H   UNL     1       2.934   4.686  21.095  0.00  0.00    +0.000 HD
ATOM     21  H   UNL     1       3.680   3.601  20.122  0.00  0.00    +0.000 HD
ENDBRANCH   9  19
TORSDOF 1
ENDMDL
MODEL 9
REMARK VINA RESULT:      -6.6      2.767      5.493
REMARK  Name = 
REMARK  3 active torsions:
REMARK  status: ('A' for Active; 'I' for Inactive)
REMARK    1  A    between atoms: C_1  and  C_2
REMARK    2  A    between atoms: C_6  and  C_7
REMARK    3  A    between atoms: C_9  and  N_10
REMARK                            x       y       z     vdW  Elec       q    Type
REMARK                         _______ _______ _______ _____ _____    ______ ____
ROOT
ATOM      1  C   UNL     1       7.864   6.627  18.049  0.00  0.00    +0.000 C 
ATOM      2  C   UNL     1       7.191   5.303  17.865  0.00  0.00    +0.000 C 
ATOM      3  C   UNL     1       5.936   5.096  17.417  0.00  0.00    +0.000 C 
ATOM      4  C   UNL     1       5.438   3.770  16.794  0.00  0.00    +0.000 C 
ATOM      5  C   UNL     1       6.175   3.637  15.524  0.00  0.00    +0.000 C 
ATOM      6  C   UNL     1       6.085   4.802  14.813  0.00  0.00    +0.000 C 
ATOM      7  C   UNL     1       7.110   5.069  13.746  0.00  0.00    +0.000 C 
ATOM      8  C   UNL     1       5.132   6.000  15.380  0.00  0.00    +0.000 C 
ATOM      9  C   UNL     1       4.825   6.031  17.039  0.00  0.00    +0.000 C 
ATOM     10  C   UNL     1       3.543   5.363  17.798  0.00  0.00    +0.000 A 
ATOM     11  C   UNL     1       2.495   6.224  18.369  0.00  0.00    +0.000 A 
ATOM     12  C   UNL     1       1.555   5.747  19.205  0.00  0.00    +0.000 A 
ATOM     13  C   UNL     1       1.507   4.305  19.529  0.00  0.00    +0.000 A 
ATOM     14  O   UNL     1       0.640   3.835  20.253  0.00  0.00    +0.000 OA
ATOM     15  N   UNL     1       2.507   3.547  18.982  0.00  0.00    +0.000 N 
ATOM     16  C   UNL     1       3.519   4.041  18.189  0.00  0.00    +0.000 A 
ATOM     17  C   UNL     1       4.603   3.013  17.791  0.00  0.00    +0.000 C 
ATOM     18  H   UNL     1       2.488   2.565  19.229  0.00  0.00    +0.000 HD
ENDROOT
BRANCH   9  19
ATOM     19  N   UNL     1       4.961   7.409  17.523  0.00  0.00    +0.000 NA
ATOM     20  H   UNL     1       5.070   7.422  18.531  0.00  0.00    +0.000 HD
ATOM     21  H   UNL     1       4.099   7.907  17.306  0.00  0.00    +0.000 HD
ENDBRANCH   9  19
TORSDOF 1
ENDMDL
