MODEL 1
REMARK VINA RESULT:      -5.1      0.000      0.000
REMARK  Name = 
REMARK  1 active torsions:
REMARK  status: ('A' for Active; 'I' for Inactive)
REMARK    1  A    between atoms: O_1  and  C_2
REMARK                            x       y       z     vdW  Elec       q    Type
REMARK                         _______ _______ _______ _____ _____    ______ ____
ROOT
ATOM      1  C   UNL     1       3.710   2.580  20.128  0.00  0.00    +0.000 A 
ATOM      2  C   UNL     1       2.924   2.546  21.282  0.00  0.00    +0.000 A 
ATOM      3  C   UNL     1       1.652   3.117  21.271  0.00  0.00    +0.000 A 
ATOM      4  C   UNL     1       1.168   3.716  20.108  0.00  0.00    +0.000 A 
ATOM      5  C   UNL     1       1.953   3.749  18.951  0.00  0.00    +0.000 A 
ATOM      6 CL   UNL     1       1.274   4.507  17.552  0.00  0.00    +0.000 Cl
ATOM      7  C   UNL     1       3.234   3.182  18.953  0.00  0.00    +0.000 A 
ATOM      8 CL   UNL     1       4.238   3.211  17.541  0.00  0.00    +0.000 Cl
ENDROOT
BRANCH   1   9
ATOM      9  O   UNL     1       4.959   2.017  20.152  0.00  0.00    +0.000 OA
ATOM     10  H   UNL     1       4.898   1.072  19.938  0.00  0.00    +0.000 HD
ENDBRANCH   1   9
TORSDOF 1
ENDMDL
MODEL 2
REMARK VINA RESULT:      -4.8      2.012      2.093
REMARK  Name = 
REMARK  1 active torsions:
REMARK  status: ('A' for Active; 'I' for Inactive)
REMARK    1  A    between atoms: O_1  and  C_2
REMARK                            x       y       z     vdW  Elec       q    Type
REMARK                         _______ _______ _______ _____ _____    ______ ____
ROOT
ATOM      1  C   UNL     1       3.952   2.884  19.107  0.00  0.00    +0.000 A 
ATOM      2  C   UNL     1       2.885   2.042  18.785  0.00  0.00    +0.000 A 
ATOM      3  C   UNL     1       1.708   2.583  18.269  0.00  0.00    +0.000 A 
ATOM      4  C   UNL     1       1.602   3.960  18.071  0.00  0.00    +0.000 A 
ATOM      5  C   UNL     1       2.672   4.804  18.391  0.00  0.00    +0.000 A 
ATOM      6 CL   UNL     1       2.457   6.498  18.110  0.00  0.00    +0.000 Cl
ATOM      7  C   UNL     1       3.856   4.270  18.915  0.00  0.00    +0.000 A 
ATOM      8 CL   UNL     1       5.198   5.286  19.329  0.00  0.00    +0.000 Cl
ENDROOT
BRANCH   1   9
ATOM      9  O   UNL     1       5.102   2.341  19.616  0.00  0.00    +0.000 OA
ATOM     10  H   UNL     1       5.525   1.780  18.946  0.00  0.00    +0.000 HD
ENDBRANCH   1   9
TORSDOF 1
ENDMDL
MODEL 3
REMARK VINA RESULT:      -4.8      4.742      5.459
REMARK  Name = 
REMARK  1 active torsions:
REMARK  status: ('A' for Active; 'I' for Inactive)
REMARK    1  A    between atoms: O_1  and  C_2
REMARK                            x       y       z     vdW  Elec       q    Type
REMARK                         _______ _______ _______ _____ _____    ______ ____
ROOT
ATOM      1  C   UNL     1       7.209   4.629  16.970  0.00  0.00    +0.000 A 
ATOM      2  C   UNL     1       7.173   4.532  15.577  0.00  0.00    +0.000 A 
ATOM      3  C   UNL     1       6.143   5.146  14.867  0.00  0.00    +0.000 A 
ATOM      4  C   UNL     1       5.154   5.857  15.548  0.00  0.00    +0.000 A 
ATOM      5  C   UNL     1       5.190   5.956  16.943  0.00  0.00    +0.000 A 
ATOM      6 CL   UNL     1       3.928   6.861  17.707  0.00  0.00    +0.000 Cl
ATOM      7  C   UNL     1       6.219   5.339  17.666  0.00  0.00    +0.000 A 
ATOM      8 CL   UNL     1       6.291   5.435  19.395  0.00  0.00    +0.000 Cl
ENDROOT
BRANCH   1   9
ATOM      9  O   UNL     1       8.226   4.020  17.658  0.00  0.00    +0.000 OA
ATOM     10  H   UNL     1       9.053   4.510  17.523  0.00  0.00    +0.000 HD
ENDBRANCH   1   9
TORSDOF 1
ENDMDL
MODEL 4
REMARK VINA RESULT:      -4.7      2.453      3.201
REMARK  Name = 
REMARK  1 active torsions:
REMARK  status: ('A' for Active; 'I' for Inactive)
REMARK    1  A    between atoms: O_1  and  C_2
REMARK                            x       y       z     vdW  Elec       q    Type
REMARK                         _______ _______ _______ _____ _____    ______ ____
ROOT
ATOM      1  C   UNL     1       1.408   3.226  19.797  0.00  0.00    +0.000 A 
ATOM      2  C   UNL     1       1.602   2.172  18.901  0.00  0.00    +0.000 A 
ATOM      3  C   UNL     1       2.297   2.392  17.713  0.00  0.00    +0.000 A 
ATOM      4  C   UNL     1       2.801   3.661  17.426  0.00  0.00    +0.000 A 
ATOM      5  C   UNL     1       2.610   4.717  18.324  0.00  0.00    +0.000 A 
ATOM      6 CL   UNL     1       3.272   6.256  17.891  0.00  0.00    +0.000 Cl
ATOM      7  C   UNL     1       1.909   4.507  19.518  0.00  0.00    +0.000 A 
ATOM      8 CL   UNL     1       1.646   5.793  20.650  0.00  0.00    +0.000 Cl
ENDROOT
BRANCH   1   9
ATOM      9  O   UNL     1       0.722   2.998  20.961  0.00  0.00    +0.000 OA
ATOM     10  H   UNL     1       1.337   2.713  21.655  0.00  0.00    +0.000 HD
ENDBRANCH   1   9
TORSDOF 1
ENDMDL
MODEL 5
REMARK VINA RESULT:      -4.7      2.017      2.938
REMARK  Name = 
REMARK  1 active torsions:
REMARK  status: ('A' for Active; 'I' for Inactive)
REMARK    1  A    between atoms: O_1  and  C_2
REMARK                            x       y       z     vdW  Elec       q    Type
REMARK                         _______ _______ _______ _____ _____    ______ ____
ROOT
ATOM      1  C   UNL     1       1.645   3.576  18.795  0.00  0.00    +0.000 A 
ATOM      2  C   UNL     1       0.817   3.725  19.911  0.00  0.00    +0.000 A 
ATOM      3  C   UNL     1       1.257   3.295  21.162  0.00  0.00    +0.000 A 
ATOM      4  C   UNL     1       2.523   2.723  21.297  0.00  0.00    +0.000 A 
ATOM      5  C   UNL     1       3.354   2.576  20.180  0.00  0.00    +0.000 A 
ATOM      6 CL   UNL     1       4.908   1.861  20.437  0.00  0.00    +0.000 Cl
ATOM      7  C   UNL     1       2.918   3.001  18.918  0.00  0.00    +0.000 A 
ATOM      8 CL   UNL     1       3.918   2.827  17.513  0.00  0.00    +0.000 Cl
ENDROOT
BRANCH   1   9
ATOM      9  O   UNL     1       1.201   4.001  17.571  0.00  0.00    +0.000 OA
ATOM     10  H   UNL     1       0.807   3.257  17.088  0.00  0.00    +0.000 HD
ENDBRANCH   1   9
TORSDOF 1
ENDMDL
MODEL 6
REMARK VINA RESULT:      -4.7      2.250      2.854
REMARK  Name = 
REMARK  1 active torsions:
REMARK  status: ('A' for Active; 'I' for Inactive)
REMARK    1  A    between atoms: O_1  and  C_2
REMARK                            x       y       z     vdW  Elec       q    Type
REMARK                         _______ _______ _______ _____ _____    ______ ____
ROOT
ATOM      1  C   UNL     1       3.657   3.179  18.215  0.00  0.00    +0.000 A 
ATOM      2  C   UNL     1       2.679   3.811  17.444  0.00  0.00    +0.000 A 
ATOM      3  C   UNL     1       1.415   4.043  17.983  0.00  0.00    +0.000 A 
ATOM      4  C   UNL     1       1.132   3.648  19.292  0.00  0.00    +0.000 A 
ATOM      5  C   UNL     1       2.112   3.017  20.066  0.00  0.00    +0.000 A 
ATOM      6 CL   UNL     1       1.679   2.565  21.679  0.00  0.00    +0.000 Cl
ATOM      7  C   UNL     1       3.384   2.775  19.531  0.00  0.00    +0.000 A 
ATOM      8 CL   UNL     1       4.619   1.989  20.459  0.00  0.00    +0.000 Cl
ENDROOT
BRANCH   1   9
ATOM      9  O   UNL     1       4.896   2.955  17.674  0.00  0.00    +0.000 OA
ATOM     10  H   UNL     1       5.046   3.564  16.934  0.00  0.00    +0.000 HD
ENDBRANCH   1   9
TORSDOF 1
ENDMDL
MODEL 7
REMARK VINA RESULT:      -4.7      1.660      1.718
REMARK  Name = 
REMARK  1 active torsions:
REMARK  status: ('A' for Active; 'I' for Inactive)
REMARK    1  A    between atoms: O_1  and  C_2
REMARK                            x       y       z     vdW  Elec       q    Type
REMARK                         _______ _______ _______ _____ _____    ______ ____
ROOT
ATOM      1  C   UNL     1       2.372   2.503  18.985  0.00  0.00    +0.000 A 
ATOM      2  C   UNL     1       1.621   2.427  20.161  0.00  0.00    +0.000 A 
ATOM      3  C   UNL     1       1.205   3.598  20.793  0.00  0.00    +0.000 A 
ATOM      4  C   UNL     1       1.534   4.839  20.249  0.00  0.00    +0.000 A 
ATOM      5  C   UNL     1       2.284   4.917  19.070  0.00  0.00    +0.000 A 
ATOM      6 CL   UNL     1       2.645   6.496  18.461  0.00  0.00    +0.000 Cl
ATOM      7  C   UNL     1       2.711   3.746  18.430  0.00  0.00    +0.000 A 
ATOM      8 CL   UNL     1       3.648   3.805  16.973  0.00  0.00    +0.000 Cl
ENDROOT
BRANCH   1   9
ATOM      9  O   UNL     1       2.777   1.347  18.373  0.00  0.00    +0.000 OA
ATOM     10  H   UNL     1       2.436   0.580  18.861  0.00  0.00    +0.000 HD
ENDBRANCH   1   9
TORSDOF 1
ENDMDL
MODEL 8
REMARK VINA RESULT:      -4.7      1.834      2.205
REMARK  Name = 
REMARK  1 active torsions:
REMARK  status: ('A' for Active; 'I' for Inactive)
REMARK    1  A    between atoms: O_1  and  C_2
REMARK                            x       y       z     vdW  Elec       q    Type
REMARK                         _______ _______ _______ _____ _____    ______ ____
ROOT
ATOM      1  C   UNL     1       4.454   3.908  19.043  0.00  0.00    +0.000 A 
ATOM      2  C   UNL     1       4.246   5.227  19.454  0.00  0.00    +0.000 A 
ATOM      3  C   UNL     1       2.949   5.683  19.686  0.00  0.00    +0.000 A 
ATOM      4  C   UNL     1       1.865   4.822  19.513  0.00  0.00    +0.000 A 
ATOM      5  C   UNL     1       2.073   3.500  19.103  0.00  0.00    +0.000 A 
ATOM      6 CL   UNL     1       0.674   2.498  18.917  0.00  0.00    +0.000 Cl
ATOM      7  C   UNL     1       3.371   3.033  18.863  0.00  0.00    +0.000 A 
ATOM      8 CL   UNL     1       3.665   1.405  18.347  0.00  0.00    +0.000 Cl
ENDROOT
BRANCH   1   9
ATOM      9  O   UNL     1       5.732   3.472  18.816  0.00  0.00    +0.000 OA
ATOM     10  H   UNL     1       6.159   4.035  18.151  0.00  0.00    +0.000 HD
ENDBRANCH   1   9
TORSDOF 1
ENDMDL
MODEL 9
REMARK VINA RESULT:      -4.7      2.020      2.749
REMARK  Name = 
REMARK  1 active torsions:
REMARK  status: ('A' for Active; 'I' for Inactive)
REMARK    1  A    between atoms: O_1  and  C_2
REMARK                            x       y       z     vdW  Elec       q    Type
REMARK                         _______ _______ _______ _____ _____    ______ ____
ROOT
ATOM      1  C   UNL     1       4.161   2.851  19.270  0.00  0.00    +0.000 A 
ATOM      2  C   UNL     1       4.335   3.389  17.992  0.00  0.00    +0.000 A 
ATOM      3  C   UNL     1       3.378   4.258  17.470  0.00  0.00    +0.000 A 
ATOM      4  C   UNL     1       2.254   4.591  18.226  0.00  0.00    +0.000 A 
ATOM      5  C   UNL     1       2.079   4.054  19.507  0.00  0.00    +0.000 A 
ATOM      6 CL   UNL     1       0.659   4.523  20.376  0.00  0.00    +0.000 Cl
ATOM      7  C   UNL     1       3.033   3.177  20.038  0.00  0.00    +0.000 A 
ATOM      8 CL   UNL     1       2.846   2.488  21.617  0.00  0.00    +0.000 Cl
ENDROOT
BRANCH   1   9
ATOM      9  O   UNL     1       5.108   1.998  19.771  0.00  0.00    +0.000 OA
ATOM     10  H   UNL     1       4.904   1.087  19.503  0.00  0.00    +0.000 HD
ENDBRANCH   1   9
TORSDOF 1
ENDMDL
