MODEL 1
REMARK VINA RESULT:      -7.4      0.000      0.000
REMARK  Name = 
REMARK  6 active torsions:
REMARK  status: ('A' for Active; 'I' for Inactive)
REMARK    1  A    between atoms: C_1  and  N_2
REMARK    2  A    between atoms: N_2  and  C_3
REMARK    3  A    between atoms: N_2  and  C_4
REMARK    4  A    between atoms: C_7  and  C_8
REMARK    5  A    between atoms: C_9  and  C_10
REMARK    6  A    between atoms: C_10  and  C_12
REMARK                            x       y       z     vdW  Elec       q    Type
REMARK                         _______ _______ _______ _____ _____    ______ ____
ROOT
ATOM      1  C   UNL     1       7.881   9.155  17.637  0.00  0.00    +0.000 C 
ATOM      2  C   UNL     1       8.022   7.853  17.924  0.00  0.00    +0.000 C 
ENDROOT
BRANCH   1   6
ATOM      3  C   UNL     1      10.170  12.333  19.509  0.00  0.00    +0.000 A 
ATOM      4  C   UNL     1       9.430  12.520  18.329  0.00  0.00    +0.000 A 
ATOM      5  C   UNL     1       8.686  11.487  17.738  0.00  0.00    +0.000 A 
ATOM      6  C   UNL     1       8.645  10.217  18.310  0.00  0.00    +0.000 A 
ATOM      7  C   UNL     1       9.313  10.027  19.521  0.00  0.00    +0.000 A 
ATOM      8  C   UNL     1      10.062  11.064  20.100  0.00  0.00    +0.000 A 
BRANCH   3  10
ATOM      9  C   UNL     1      10.310  14.378  20.895  0.00  0.00    +0.000 C 
ATOM     10  N   UNL     1      10.943  13.347  20.078  0.00  0.00    +0.000 N 
ATOM     11  C   UNL     1      12.227  13.684  19.468  0.00  0.00    +0.000 C 
ENDBRANCH   3  10
ENDBRANCH   1   6
BRANCH   2  12
ATOM     12  C   UNL     1       7.250   6.815  17.186  0.00  0.00    +0.000 C 
ATOM     13  O   UNL     1       7.615   6.367  16.105  0.00  0.00    +0.000 OA
BRANCH  12  14
ATOM     14  C   UNL     1       6.028   6.299  17.857  0.00  0.00    +0.000 A 
ATOM     15  C   UNL     1       6.116   5.379  18.912  0.00  0.00    +0.000 A 
ATOM     16  C   UNL     1       4.957   4.881  19.506  0.00  0.00    +0.000 A 
ATOM     17  C   UNL     1       3.706   5.312  19.058  0.00  0.00    +0.000 A 
ATOM     18  I   UNL     1       1.985   4.541  19.928  0.00  0.00    +0.000 I 
ATOM     19  C   UNL     1       3.611   6.252  18.031  0.00  0.00    +0.000 A 
ATOM     20  C   UNL     1       4.773   6.752  17.433  0.00  0.00    +0.000 A 
ENDBRANCH  12  14
ENDBRANCH   2  12
TORSDOF 4
ENDMDL
MODEL 2
REMARK VINA RESULT:      -7.4      0.269      1.543
REMARK  Name = 
REMARK  6 active torsions:
REMARK  status: ('A' for Active; 'I' for Inactive)
REMARK    1  A    between atoms: C_1  and  N_2
REMARK    2  A    between atoms: N_2  and  C_3
REMARK    3  A    between atoms: N_2  and  C_4
REMARK    4  A    between atoms: C_7  and  C_8
REMARK    5  A    between atoms: C_9  and  C_10
REMARK    6  A    between atoms: C_10  and  C_12
REMARK                            x       y       z     vdW  Elec       q    Type
REMARK                         _______ _______ _______ _____ _____    ______ ____
ROOT
ATOM      1  C   UNL     1       7.813   9.090  17.649  0.00  0.00    +0.000 C 
ATOM      2  C   UNL     1       8.017   7.792  17.914  0.00  0.00    +0.000 C 
ENDROOT
BRANCH   1   6
ATOM      3  C   UNL     1      10.008  12.242  19.672  0.00  0.00    +0.000 A 
ATOM      4  C   UNL     1       9.936  10.928  20.163  0.00  0.00    +0.000 A 
ATOM      5  C   UNL     1       9.230   9.915  19.495  0.00  0.00    +0.000 A 
ATOM      6  C   UNL     1       8.569  10.174  18.296  0.00  0.00    +0.000 A 
ATOM      7  C   UNL     1       8.687  11.454  17.752  0.00  0.00    +0.000 A 
ATOM      8  C   UNL     1       9.387  12.463  18.431  0.00  0.00    +0.000 A 
BRANCH   3  10
ATOM      9  C   UNL     1      10.019  13.950  21.462  0.00  0.00    +0.000 C 
ATOM     10  N   UNL     1      10.674  13.263  20.353  0.00  0.00    +0.000 N 
ATOM     11  C   UNL     1      11.749  13.982  19.675  0.00  0.00    +0.000 C 
ENDBRANCH   3  10
ENDBRANCH   1   6
BRANCH   2  12
ATOM     12  C   UNL     1       7.249   6.733  17.202  0.00  0.00    +0.000 C 
ATOM     13  O   UNL     1       7.636   6.230  16.154  0.00  0.00    +0.000 OA
BRANCH  12  14
ATOM     14  C   UNL     1       6.002   6.266  17.862  0.00  0.00    +0.000 A 
ATOM     15  C   UNL     1       4.746   6.741  17.455  0.00  0.00    +0.000 A 
ATOM     16  C   UNL     1       3.589   6.317  18.109  0.00  0.00    +0.000 A 
ATOM     17  C   UNL     1       3.683   5.404  19.163  0.00  0.00    +0.000 A 
ATOM     18  I   UNL     1       1.959   4.803  20.151  0.00  0.00    +0.000 I 
ATOM     19  C   UNL     1       4.925   4.902  19.552  0.00  0.00    +0.000 A 
ATOM     20  C   UNL     1       6.086   5.328  18.898  0.00  0.00    +0.000 A 
ENDBRANCH  12  14
ENDBRANCH   2  12
TORSDOF 4
ENDMDL
MODEL 3
REMARK VINA RESULT:      -7.2      0.781      1.339
REMARK  Name = 
REMARK  6 active torsions:
REMARK  status: ('A' for Active; 'I' for Inactive)
REMARK    1  A    between atoms: C_1  and  N_2
REMARK    2  A    between atoms: N_2  and  C_3
REMARK    3  A    between atoms: N_2  and  C_4
REMARK    4  A    between atoms: C_7  and  C_8
REMARK    5  A    between atoms: C_9  and  C_10
REMARK    6  A    between atoms: C_10  and  C_12
REMARK                            x       y       z     vdW  Elec       q    Type
REMARK                         _______ _______ _______ _____ _____    ______ ____
ROOT
ATOM      1  C   UNL     1       8.500   8.654  18.248  0.00  0.00    +0.000 C 
ATOM      2  C   UNL     1       7.388   8.411  17.540  0.00  0.00    +0.000 C 
ENDROOT
BRANCH   1   6
ATOM      3  C   UNL     1       9.699  12.645  19.463  0.00  0.00    +0.000 A 
ATOM      4  C   UNL     1       9.163  12.364  18.195  0.00  0.00    +0.000 A 
ATOM      5  C   UNL     1       8.771  11.070  17.816  0.00  0.00    +0.000 A 
ATOM      6  C   UNL     1       8.891   9.999  18.699  0.00  0.00    +0.000 A 
ATOM      7  C   UNL     1       9.353  10.267  19.989  0.00  0.00    +0.000 A 
ATOM      8  C   UNL     1       9.752  11.562  20.355  0.00  0.00    +0.000 A 
BRANCH   3  10
ATOM      9  C   UNL     1      10.265  14.270  21.240  0.00  0.00    +0.000 C 
ATOM     10  N   UNL     1      10.129  13.922  19.829  0.00  0.00    +0.000 N 
ATOM     11  C   UNL     1       9.942  15.027  18.892  0.00  0.00    +0.000 C 
ENDBRANCH   3  10
ENDBRANCH   1   6
BRANCH   2  12
ATOM     12  C   UNL     1       7.018   7.024  17.140  0.00  0.00    +0.000 C 
ATOM     13  O   UNL     1       7.680   6.372  16.341  0.00  0.00    +0.000 OA
BRANCH  12  14
ATOM     14  C   UNL     1       5.825   6.440  17.805  0.00  0.00    +0.000 A 
ATOM     15  C   UNL     1       4.529   6.840  17.448  0.00  0.00    +0.000 A 
ATOM     16  C   UNL     1       3.423   6.305  18.108  0.00  0.00    +0.000 A 
ATOM     17  C   UNL     1       3.608   5.357  19.118  0.00  0.00    +0.000 A 
ATOM     18  I   UNL     1       1.957   4.590  20.116  0.00  0.00    +0.000 I 
ATOM     19  C   UNL     1       4.893   4.931  19.456  0.00  0.00    +0.000 A 
ATOM     20  C   UNL     1       6.003   5.467  18.796  0.00  0.00    +0.000 A 
ENDBRANCH  12  14
ENDBRANCH   2  12
TORSDOF 4
ENDMDL
MODEL 4
REMARK VINA RESULT:      -7.1      0.632      1.446
REMARK  Name = 
REMARK  6 active torsions:
REMARK  status: ('A' for Active; 'I' for Inactive)
REMARK    1  A    between atoms: C_1  and  N_2
REMARK    2  A    between atoms: N_2  and  C_3
REMARK    3  A    between atoms: N_2  and  C_4
REMARK    4  A    between atoms: C_7  and  C_8
REMARK    5  A    between atoms: C_9  and  C_10
REMARK    6  A    between atoms: C_10  and  C_12
REMARK                            x       y       z     vdW  Elec       q    Type
REMARK                         _______ _______ _______ _____ _____    ______ ____
ROOT
ATOM      1  C   UNL     1       8.414   8.554  18.231  0.00  0.00    +0.000 C 
ATOM      2  C   UNL     1       7.391   8.284  17.407  0.00  0.00    +0.000 C 
ENDROOT
BRANCH   1   6
ATOM      3  C   UNL     1       9.567  12.562  19.432  0.00  0.00    +0.000 A 
ATOM      4  C   UNL     1       9.775  11.434  20.244  0.00  0.00    +0.000 A 
ATOM      5  C   UNL     1       9.405  10.141  19.841  0.00  0.00    +0.000 A 
ATOM      6  C   UNL     1       8.816   9.921  18.597  0.00  0.00    +0.000 A 
ATOM      7  C   UNL     1       8.667  11.015  17.744  0.00  0.00    +0.000 A 
ATOM      8  C   UNL     1       9.031  12.306  18.160  0.00  0.00    +0.000 A 
BRANCH   3  10
ATOM      9  C   UNL     1      11.267  14.337  19.716  0.00  0.00    +0.000 C 
ATOM     10  N   UNL     1       9.896  13.855  19.845  0.00  0.00    +0.000 N 
ATOM     11  C   UNL     1       9.057  14.513  20.844  0.00  0.00    +0.000 C 
ENDBRANCH   3  10
ENDBRANCH   1   6
BRANCH   2  12
ATOM     12  C   UNL     1       7.002   6.880  17.098  0.00  0.00    +0.000 C 
ATOM     13  O   UNL     1       7.636   6.177  16.320  0.00  0.00    +0.000 OA
BRANCH  12  14
ATOM     14  C   UNL     1       5.826   6.344  17.831  0.00  0.00    +0.000 A 
ATOM     15  C   UNL     1       5.982   5.410  18.866  0.00  0.00    +0.000 A 
ATOM     16  C   UNL     1       4.863   4.893  19.520  0.00  0.00    +0.000 A 
ATOM     17  C   UNL     1       3.585   5.320  19.151  0.00  0.00    +0.000 A 
ATOM     18  I   UNL     1       1.924   4.522  20.108  0.00  0.00    +0.000 I 
ATOM     19  C   UNL     1       3.423   6.274  18.145  0.00  0.00    +0.000 A 
ATOM     20  C   UNL     1       4.544   6.792  17.488  0.00  0.00    +0.000 A 
ENDBRANCH  12  14
ENDBRANCH   2  12
TORSDOF 4
ENDMDL
MODEL 5
REMARK VINA RESULT:      -7.0      0.479      1.390
REMARK  Name = 
REMARK  6 active torsions:
REMARK  status: ('A' for Active; 'I' for Inactive)
REMARK    1  A    between atoms: C_1  and  N_2
REMARK    2  A    between atoms: N_2  and  C_3
REMARK    3  A    between atoms: N_2  and  C_4
REMARK    4  A    between atoms: C_7  and  C_8
REMARK    5  A    between atoms: C_9  and  C_10
REMARK    6  A    between atoms: C_10  and  C_12
REMARK                            x       y       z     vdW  Elec       q    Type
REMARK                         _______ _______ _______ _____ _____    ______ ____
ROOT
ATOM      1  C   UNL     1       7.915   8.754  17.573  0.00  0.00    +0.000 C 
ATOM      2  C   UNL     1       7.843   7.552  18.163  0.00  0.00    +0.000 C 
ENDROOT
BRANCH   1   6
ATOM      3  C   UNL     1       9.845  12.244  19.286  0.00  0.00    +0.000 A 
ATOM      4  C   UNL     1       9.018  12.311  18.152  0.00  0.00    +0.000 A 
ATOM      5  C   UNL     1       8.392  11.176  17.612  0.00  0.00    +0.000 A 
ATOM      6  C   UNL     1       8.562   9.921  18.193  0.00  0.00    +0.000 A 
ATOM      7  C   UNL     1       9.320   9.842  19.362  0.00  0.00    +0.000 A 
ATOM      8  C   UNL     1       9.949  10.981  19.889  0.00  0.00    +0.000 A 
BRANCH   3  10
ATOM      9  C   UNL     1      11.769  13.798  19.222  0.00  0.00    +0.000 C 
ATOM     10  N   UNL     1      10.502  13.363  19.802  0.00  0.00    +0.000 N 
ATOM     11  C   UNL     1      10.233  13.769  21.179  0.00  0.00    +0.000 C 
ENDBRANCH   3  10
ENDBRANCH   1   6
BRANCH   2  12
ATOM     12  C   UNL     1       7.209   6.394  17.475  0.00  0.00    +0.000 C 
ATOM     13  O   UNL     1       7.723   5.838  16.512  0.00  0.00    +0.000 OA
BRANCH  12  14
ATOM     14  C   UNL     1       5.932   5.901  18.054  0.00  0.00    +0.000 A 
ATOM     15  C   UNL     1       4.723   6.570  17.815  0.00  0.00    +0.000 A 
ATOM     16  C   UNL     1       3.540   6.111  18.395  0.00  0.00    +0.000 A 
ATOM     17  C   UNL     1       3.560   4.971  19.204  0.00  0.00    +0.000 A 
ATOM     18  I   UNL     1       1.801   4.314  20.088  0.00  0.00    +0.000 I 
ATOM     19  C   UNL     1       4.754   4.281  19.419  0.00  0.00    +0.000 A 
ATOM     20  C   UNL     1       5.940   4.741  18.839  0.00  0.00    +0.000 A 
ENDBRANCH  12  14
ENDBRANCH   2  12
TORSDOF 4
ENDMDL
MODEL 6
REMARK VINA RESULT:      -6.9      1.236      1.713
REMARK  Name = 
REMARK  6 active torsions:
REMARK  status: ('A' for Active; 'I' for Inactive)
REMARK    1  A    between atoms: C_1  and  N_2
REMARK    2  A    between atoms: N_2  and  C_3
REMARK    3  A    between atoms: N_2  and  C_4
REMARK    4  A    between atoms: C_7  and  C_8
REMARK    5  A    between atoms: C_9  and  C_10
REMARK    6  A    between atoms: C_10  and  C_12
REMARK                            x       y       z     vdW  Elec       q    Type
REMARK                         _______ _______ _______ _____ _____    ______ ____
ROOT
ATOM      1  C   UNL     1       7.752   8.024  17.455  0.00  0.00    +0.000 C 
ATOM      2  C   UNL     1       7.721   6.874  18.144  0.00  0.00    +0.000 C 
ENDROOT
BRANCH   1   6
ATOM      3  C   UNL     1       9.287  11.691  19.198  0.00  0.00    +0.000 A 
ATOM      4  C   UNL     1       9.505  10.426  19.770  0.00  0.00    +0.000 A 
ATOM      5  C   UNL     1       9.010   9.246  19.192  0.00  0.00    +0.000 A 
ATOM      6  C   UNL     1       8.280   9.282  18.006  0.00  0.00    +0.000 A 
ATOM      7  C   UNL     1       8.113  10.519  17.381  0.00  0.00    +0.000 A 
ATOM      8  C   UNL     1       8.604  11.694  17.972  0.00  0.00    +0.000 A 
BRANCH   3  10
ATOM      9  C   UNL     1       9.069  14.135  19.510  0.00  0.00    +0.000 C 
ATOM     10  N   UNL     1       9.742  12.870  19.791  0.00  0.00    +0.000 N 
ATOM     11  C   UNL     1      11.129  12.947  20.241  0.00  0.00    +0.000 C 
ENDBRANCH   3  10
ENDBRANCH   1   6
BRANCH   2  12
ATOM     12  C   UNL     1       7.210   5.620  17.525  0.00  0.00    +0.000 C 
ATOM     13  O   UNL     1       7.880   4.946  16.752  0.00  0.00    +0.000 OA
BRANCH  12  14
ATOM     14  C   UNL     1       5.850   5.187  17.939  0.00  0.00    +0.000 A 
ATOM     15  C   UNL     1       5.402   5.368  19.256  0.00  0.00    +0.000 A 
ATOM     16  C   UNL     1       4.135   4.923  19.634  0.00  0.00    +0.000 A 
ATOM     17  C   UNL     1       3.305   4.310  18.692  0.00  0.00    +0.000 A 
ATOM     18  I   UNL     1       1.433   3.624  19.271  0.00  0.00    +0.000 I 
ATOM     19  C   UNL     1       3.731   4.156  17.372  0.00  0.00    +0.000 A 
ATOM     20  C   UNL     1       5.001   4.600  16.992  0.00  0.00    +0.000 A 
ENDBRANCH  12  14
ENDBRANCH   2  12
TORSDOF 4
ENDMDL
MODEL 7
REMARK VINA RESULT:      -6.8      7.245      9.437
REMARK  Name = 
REMARK  6 active torsions:
REMARK  status: ('A' for Active; 'I' for Inactive)
REMARK    1  A    between atoms: C_1  and  N_2
REMARK    2  A    between atoms: N_2  and  C_3
REMARK    3  A    between atoms: N_2  and  C_4
REMARK    4  A    between atoms: C_7  and  C_8
REMARK    5  A    between atoms: C_9  and  C_10
REMARK    6  A    between atoms: C_10  and  C_12
REMARK                            x       y       z     vdW  Elec       q    Type
REMARK                         _______ _______ _______ _____ _____    ______ ____
ROOT
ATOM      1  C   UNL     1       2.194   8.214  18.227  0.00  0.00    +0.000 C 
ATOM      2  C   UNL     1       1.388   8.946  19.009  0.00  0.00    +0.000 C 
ENDROOT
BRANCH   1   6
ATOM      3  C   UNL     1       3.269   4.078  18.983  0.00  0.00    +0.000 A 
ATOM      4  C   UNL     1       3.681   4.774  17.834  0.00  0.00    +0.000 A 
ATOM      5  C   UNL     1       3.334   6.115  17.605  0.00  0.00    +0.000 A 
ATOM      6  C   UNL     1       2.562   6.822  18.525  0.00  0.00    +0.000 A 
ATOM      7  C   UNL     1       2.202   6.173  19.708  0.00  0.00    +0.000 A 
ATOM      8  C   UNL     1       2.546   4.829  19.924  0.00  0.00    +0.000 A 
BRANCH   3  10
ATOM      9  C   UNL     1       4.471   2.351  20.285  0.00  0.00    +0.000 C 
ATOM     10  N   UNL     1       3.577   2.732  19.196  0.00  0.00    +0.000 N 
ATOM     11  C   UNL     1       3.455   1.794  18.083  0.00  0.00    +0.000 C 
ENDBRANCH   3  10
ENDBRANCH   1   6
BRANCH   2  12
ATOM     12  C   UNL     1       1.017  10.341  18.642  0.00  0.00    +0.000 C 
ATOM     13  O   UNL     1       1.853  11.219  18.462  0.00  0.00    +0.000 OA
BRANCH  12  14
ATOM     14  C   UNL     1      -0.431  10.608  18.444  0.00  0.00    +0.000 A 
ATOM     15  C   UNL     1      -1.191   9.849  17.541  0.00  0.00    +0.000 A 
ATOM     16  C   UNL     1      -2.541  10.138  17.344  0.00  0.00    +0.000 A 
ATOM     17  C   UNL     1      -3.141  11.177  18.061  0.00  0.00    +0.000 A 
ATOM     18  I   UNL     1      -5.144  11.619  17.738  0.00  0.00    +0.000 I 
ATOM     19  C   UNL     1      -2.400  11.915  18.984  0.00  0.00    +0.000 A 
ATOM     20  C   UNL     1      -1.045  11.627  19.182  0.00  0.00    +0.000 A 
ENDBRANCH  12  14
ENDBRANCH   2  12
TORSDOF 4
ENDMDL
MODEL 8
REMARK VINA RESULT:      -6.8      1.127      1.742
REMARK  Name = 
REMARK  6 active torsions:
REMARK  status: ('A' for Active; 'I' for Inactive)
REMARK    1  A    between atoms: C_1  and  N_2
REMARK    2  A    between atoms: N_2  and  C_3
REMARK    3  A    between atoms: N_2  and  C_4
REMARK    4  A    between atoms: C_7  and  C_8
REMARK    5  A    between atoms: C_9  and  C_10
REMARK    6  A    between atoms: C_10  and  C_12
REMARK                            x       y       z     vdW  Elec       q    Type
REMARK                         _______ _______ _______ _____ _____    ______ ____
ROOT
ATOM      1  C   UNL     1       7.720   8.236  17.393  0.00  0.00    +0.000 C 
ATOM      2  C   UNL     1       7.705   7.022  17.960  0.00  0.00    +0.000 C 
ENDROOT
BRANCH   1   6
ATOM      3  C   UNL     1       9.458  11.675  19.392  0.00  0.00    +0.000 A 
ATOM      4  C   UNL     1       9.580  10.365  19.885  0.00  0.00    +0.000 A 
ATOM      5  C   UNL     1       9.020   9.259  19.225  0.00  0.00    +0.000 A 
ATOM      6  C   UNL     1       8.318   9.419  18.032  0.00  0.00    +0.000 A 
ATOM      7  C   UNL     1       8.246  10.701  17.485  0.00  0.00    +0.000 A 
ATOM      8  C   UNL     1       8.801  11.802  18.157  0.00  0.00    +0.000 A 
BRANCH   3  10
ATOM      9  C   UNL     1       9.331  13.265  21.283  0.00  0.00    +0.000 C 
ATOM     10  N   UNL     1       9.977  12.782  20.066  0.00  0.00    +0.000 N 
ATOM     11  C   UNL     1      10.794  13.741  19.327  0.00  0.00    +0.000 C 
ENDBRANCH   3  10
ENDBRANCH   1   6
BRANCH   2  12
ATOM     12  C   UNL     1       7.118   5.849  17.253  0.00  0.00    +0.000 C 
ATOM     13  O   UNL     1       7.682   5.296  16.317  0.00  0.00    +0.000 OA
BRANCH  12  14
ATOM     14  C   UNL     1       5.826   5.339  17.781  0.00  0.00    +0.000 A 
ATOM     15  C   UNL     1       4.963   4.583  16.974  0.00  0.00    +0.000 A 
ATOM     16  C   UNL     1       3.739   4.142  17.477  0.00  0.00    +0.000 A 
ATOM     17  C   UNL     1       3.380   4.443  18.793  0.00  0.00    +0.000 A 
ATOM     18  I   UNL     1       1.542   3.809  19.523  0.00  0.00    +0.000 I 
ATOM     19  C   UNL     1       4.248   5.167  19.612  0.00  0.00    +0.000 A 
ATOM     20  C   UNL     1       5.475   5.610  19.109  0.00  0.00    +0.000 A 
ENDBRANCH  12  14
ENDBRANCH   2  12
TORSDOF 4
ENDMDL
MODEL 9
REMARK VINA RESULT:      -6.7      6.800      9.322
REMARK  Name = 
REMARK  6 active torsions:
REMARK  status: ('A' for Active; 'I' for Inactive)
REMARK    1  A    between atoms: C_1  and  N_2
REMARK    2  A    between atoms: N_2  and  C_3
REMARK    3  A    between atoms: N_2  and  C_4
REMARK    4  A    between atoms: C_7  and  C_8
REMARK    5  A    between atoms: C_9  and  C_10
REMARK    6  A    between atoms: C_10  and  C_12
REMARK                            x       y       z     vdW  Elec       q    Type
REMARK                         _______ _______ _______ _____ _____    ______ ____
ROOT
ATOM      1  C   UNL     1       2.467   8.351  17.912  0.00  0.00    +0.000 C 
ATOM      2  C   UNL     1       1.514   8.929  18.656  0.00  0.00    +0.000 C 
ENDROOT
BRANCH   1   6
ATOM      3  C   UNL     1       3.550   4.181  18.437  0.00  0.00    +0.000 A 
ATOM      4  C   UNL     1       2.222   4.635  18.489  0.00  0.00    +0.000 A 
ATOM      5  C   UNL     1       1.883   5.986  18.310  0.00  0.00    +0.000 A 
ATOM      6  C   UNL     1       2.865   6.942  18.060  0.00  0.00    +0.000 A 
ATOM      7  C   UNL     1       4.184   6.504  17.931  0.00  0.00    +0.000 A 
ATOM      8  C   UNL     1       4.514   5.152  18.122  0.00  0.00    +0.000 A 
BRANCH   3  10
ATOM      9  C   UNL     1       3.235   1.786  17.899  0.00  0.00    +0.000 C 
ATOM     10  N   UNL     1       3.895   2.846  18.656  0.00  0.00    +0.000 N 
ATOM     11  C   UNL     1       4.489   2.469  19.936  0.00  0.00    +0.000 C 
ENDBRANCH   3  10
ENDBRANCH   1   6
BRANCH   2  12
ATOM     12  C   UNL     1       1.124  10.350  18.440  0.00  0.00    +0.000 C 
ATOM     13  O   UNL     1       1.949  11.248  18.321  0.00  0.00    +0.000 OA
BRANCH  12  14
ATOM     14  C   UNL     1      -0.332  10.624  18.318  0.00  0.00    +0.000 A 
ATOM     15  C   UNL     1      -0.937  11.658  19.046  0.00  0.00    +0.000 A 
ATOM     16  C   UNL     1      -2.311  11.878  18.944  0.00  0.00    +0.000 A 
ATOM     17  C   UNL     1      -3.081  11.074  18.101  0.00  0.00    +0.000 A 
ATOM     18  I   UNL     1      -5.130  11.388  17.979  0.00  0.00    +0.000 I 
ATOM     19  C   UNL     1      -2.481  10.064  17.348  0.00  0.00    +0.000 A 
ATOM     20  C   UNL     1      -1.104   9.841  17.451  0.00  0.00    +0.000 A 
ENDBRANCH  12  14
ENDBRANCH   2  12
TORSDOF 4
ENDMDL
