MODEL 1
REMARK VINA RESULT:      -5.4      0.000      0.000
REMARK  Name = 
REMARK  8 active torsions:
REMARK  status: ('A' for Active; 'I' for Inactive)
REMARK    1  A    between atoms: C_1  and  C_2
REMARK    2  A    between atoms: C_2  and  C_3
REMARK    3  A    between atoms: C_3  and  C_4
REMARK    4  A    between atoms: C_4  and  C_5
REMARK    5  A    between atoms: C_6  and  C_7
REMARK    6  A    between atoms: C_6  and  C_9
REMARK    7  A    between atoms: C_11  and  C_12
REMARK    8  A    between atoms: C_11  and  C_14
REMARK                            x       y       z     vdW  Elec       q    Type
REMARK                         _______ _______ _______ _____ _____    ______ ____
ROOT
ATOM      1  C   UNL     1       3.334   3.897  18.186  0.00  0.00    +0.000 C 
ATOM      2  C   UNL     1       1.993   4.194  17.524  0.00  0.00    +0.000 C 
ATOM      3  C   UNL     1       3.341   3.455  19.667  0.00  0.00    +0.000 C 
ATOM      4  C   UNL     1       3.832   4.845  19.296  0.00  0.00    +0.000 C 
ENDROOT
BRANCH   3   5
ATOM      5  C   UNL     1       2.103   3.308  20.382  0.00  0.00    +0.000 C 
ATOM      6  N   UNL     1       1.113   3.202  20.974  0.00  0.00    +0.000 NA
ENDBRANCH   3   5
BRANCH   3   7
ATOM      7  C   UNL     1       4.283   2.458  20.103  0.00  0.00    +0.000 C 
ATOM      8  N   UNL     1       5.062   1.670  20.437  0.00  0.00    +0.000 NA
ENDBRANCH   3   7
BRANCH   4   9
ATOM      9  C   UNL     1       5.230   5.150  19.431  0.00  0.00    +0.000 C 
ATOM     10  N   UNL     1       6.354   5.404  19.529  0.00  0.00    +0.000 NA
ENDBRANCH   4   9
BRANCH   4  11
ATOM     11  C   UNL     1       3.040   5.994  19.645  0.00  0.00    +0.000 C 
ATOM     12  N   UNL     1       2.393   6.921  19.905  0.00  0.00    +0.000 NA
ENDBRANCH   4  11
BRANCH   1  13
ATOM     13  C   UNL     1       4.329   3.220  17.223  0.00  0.00    +0.000 C 
BRANCH  13  15
ATOM     14  C   UNL     1       6.317   4.146  15.944  0.00  0.00    +0.000 C 
ATOM     15  C   UNL     1       4.801   4.133  16.087  0.00  0.00    +0.000 C 
ENDBRANCH  13  15
ENDBRANCH   1  13
TORSDOF 6
ENDMDL
MODEL 2
REMARK VINA RESULT:      -5.3      2.351      4.510
REMARK  Name = 
REMARK  8 active torsions:
REMARK  status: ('A' for Active; 'I' for Inactive)
REMARK    1  A    between atoms: C_1  and  C_2
REMARK    2  A    between atoms: C_2  and  C_3
REMARK    3  A    between atoms: C_3  and  C_4
REMARK    4  A    between atoms: C_4  and  C_5
REMARK    5  A    between atoms: C_6  and  C_7
REMARK    6  A    between atoms: C_6  and  C_9
REMARK    7  A    between atoms: C_11  and  C_12
REMARK    8  A    between atoms: C_11  and  C_14
REMARK                            x       y       z     vdW  Elec       q    Type
REMARK                         _______ _______ _______ _____ _____    ______ ____
ROOT
ATOM      1  C   UNL     1       3.758   6.243  17.758  0.00  0.00    +0.000 C 
ATOM      2  C   UNL     1       4.838   7.098  17.104  0.00  0.00    +0.000 C 
ATOM      3  C   UNL     1       4.173   5.268  18.883  0.00  0.00    +0.000 C 
ATOM      4  C   UNL     1       3.782   4.720  17.520  0.00  0.00    +0.000 C 
ENDROOT
BRANCH   3   5
ATOM      5  C   UNL     1       5.544   5.197  19.308  0.00  0.00    +0.000 C 
ATOM      6  N   UNL     1       6.642   5.139  19.671  0.00  0.00    +0.000 NA
ENDBRANCH   3   5
BRANCH   3   7
ATOM      7  C   UNL     1       3.298   5.073  20.008  0.00  0.00    +0.000 C 
ATOM      8  N   UNL     1       2.578   4.894  20.897  0.00  0.00    +0.000 NA
ENDBRANCH   3   7
BRANCH   4   9
ATOM      9  C   UNL     1       2.558   3.976  17.392  0.00  0.00    +0.000 C 
ATOM     10  N   UNL     1       1.580   3.370  17.279  0.00  0.00    +0.000 NA
ENDBRANCH   4   9
BRANCH   4  11
ATOM     11  C   UNL     1       4.792   4.159  16.664  0.00  0.00    +0.000 C 
ATOM     12  N   UNL     1       5.624   3.715  15.988  0.00  0.00    +0.000 NA
ENDBRANCH   4  11
BRANCH   1  13
ATOM     13  C   UNL     1       2.422   6.997  17.909  0.00  0.00    +0.000 C 
BRANCH  13  15
ATOM     14  C   UNL     1       1.229   9.237  17.969  0.00  0.00    +0.000 C 
ATOM     15  C   UNL     1       2.566   8.521  17.836  0.00  0.00    +0.000 C 
ENDBRANCH  13  15
ENDBRANCH   1  13
TORSDOF 6
ENDMDL
MODEL 3
REMARK VINA RESULT:      -5.2      2.432      3.860
REMARK  Name = 
REMARK  8 active torsions:
REMARK  status: ('A' for Active; 'I' for Inactive)
REMARK    1  A    between atoms: C_1  and  C_2
REMARK    2  A    between atoms: C_2  and  C_3
REMARK    3  A    between atoms: C_3  and  C_4
REMARK    4  A    between atoms: C_4  and  C_5
REMARK    5  A    between atoms: C_6  and  C_7
REMARK    6  A    between atoms: C_6  and  C_9
REMARK    7  A    between atoms: C_11  and  C_12
REMARK    8  A    between atoms: C_11  and  C_14
REMARK                            x       y       z     vdW  Elec       q    Type
REMARK                         _______ _______ _______ _____ _____    ______ ____
ROOT
ATOM      1  C   UNL     1       5.542   5.485  15.896  0.00  0.00    +0.000 C 
ATOM      2  C   UNL     1       5.126   6.613  14.959  0.00  0.00    +0.000 C 
ATOM      3  C   UNL     1       5.003   5.495  17.345  0.00  0.00    +0.000 C 
ATOM      4  C   UNL     1       6.466   5.818  17.085  0.00  0.00    +0.000 C 
ENDROOT
BRANCH   3   5
ATOM      5  C   UNL     1       4.113   6.538  17.776  0.00  0.00    +0.000 C 
ATOM      6  N   UNL     1       3.402   7.374  18.145  0.00  0.00    +0.000 NA
ENDBRANCH   3   5
BRANCH   3   7
ATOM      7  C   UNL     1       4.649   4.252  17.977  0.00  0.00    +0.000 C 
ATOM      8  N   UNL     1       4.370   3.237  18.459  0.00  0.00    +0.000 NA
ENDBRANCH   3   7
BRANCH   4   9
ATOM      9  C   UNL     1       7.474   4.888  17.517  0.00  0.00    +0.000 C 
ATOM     10  N   UNL     1       8.275   4.134  17.872  0.00  0.00    +0.000 NA
ENDBRANCH   4   9
BRANCH   4  11
ATOM     11  C   UNL     1       6.936   7.167  17.252  0.00  0.00    +0.000 C 
ATOM     12  N   UNL     1       7.324   8.249  17.408  0.00  0.00    +0.000 NA
ENDBRANCH   4  11
BRANCH   1  13
ATOM     13  C   UNL     1       5.647   4.128  15.172  0.00  0.00    +0.000 C 
BRANCH  13  15
ATOM     14  C   UNL     1       5.859   3.526  12.715  0.00  0.00    +0.000 C 
ATOM     15  C   UNL     1       6.531   4.167  13.922  0.00  0.00    +0.000 C 
ENDBRANCH  13  15
ENDBRANCH   1  13
TORSDOF 6
ENDMDL
MODEL 4
REMARK VINA RESULT:      -5.0      0.872      2.591
REMARK  Name = 
REMARK  8 active torsions:
REMARK  status: ('A' for Active; 'I' for Inactive)
REMARK    1  A    between atoms: C_1  and  C_2
REMARK    2  A    between atoms: C_2  and  C_3
REMARK    3  A    between atoms: C_3  and  C_4
REMARK    4  A    between atoms: C_4  and  C_5
REMARK    5  A    between atoms: C_6  and  C_7
REMARK    6  A    between atoms: C_6  and  C_9
REMARK    7  A    between atoms: C_11  and  C_12
REMARK    8  A    between atoms: C_11  and  C_14
REMARK                            x       y       z     vdW  Elec       q    Type
REMARK                         _______ _______ _______ _____ _____    ______ ____
ROOT
ATOM      1  C   UNL     1       3.783   3.928  17.778  0.00  0.00    +0.000 C 
ATOM      2  C   UNL     1       3.265   2.604  17.227  0.00  0.00    +0.000 C 
ATOM      3  C   UNL     1       4.463   3.932  19.165  0.00  0.00    +0.000 C 
ATOM      4  C   UNL     1       3.079   4.540  19.005  0.00  0.00    +0.000 C 
ENDROOT
BRANCH   3   5
ATOM      5  C   UNL     1       4.617   2.704  19.897  0.00  0.00    +0.000 C 
ATOM      6  N   UNL     1       4.761   1.721  20.491  0.00  0.00    +0.000 NA
ENDBRANCH   3   5
BRANCH   3   7
ATOM      7  C   UNL     1       5.595   4.788  19.396  0.00  0.00    +0.000 C 
ATOM      8  N   UNL     1       6.496   5.497  19.561  0.00  0.00    +0.000 NA
ENDBRANCH   3   7
BRANCH   4   9
ATOM      9  C   UNL     1       2.922   5.964  19.131  0.00  0.00    +0.000 C 
ATOM     10  N   UNL     1       2.806   7.109  19.241  0.00  0.00    +0.000 NA
ENDBRANCH   4   9
BRANCH   4  11
ATOM     11  C   UNL     1       1.938   3.868  19.568  0.00  0.00    +0.000 C 
ATOM     12  N   UNL     1       1.029   3.326  20.043  0.00  0.00    +0.000 NA
ENDBRANCH   4  11
BRANCH   1  13
ATOM     13  C   UNL     1       4.376   4.831  16.678  0.00  0.00    +0.000 C 
BRANCH  13  15
ATOM     14  C   UNL     1       6.755   4.516  15.849  0.00  0.00    +0.000 C 
ATOM     15  C   UNL     1       5.300   4.088  15.707  0.00  0.00    +0.000 C 
ENDBRANCH  13  15
ENDBRANCH   1  13
TORSDOF 6
ENDMDL
MODEL 5
REMARK VINA RESULT:      -4.9      2.057      2.940
REMARK  Name = 
REMARK  8 active torsions:
REMARK  status: ('A' for Active; 'I' for Inactive)
REMARK    1  A    between atoms: C_1  and  C_2
REMARK    2  A    between atoms: C_2  and  C_3
REMARK    3  A    between atoms: C_3  and  C_4
REMARK    4  A    between atoms: C_4  and  C_5
REMARK    5  A    between atoms: C_6  and  C_7
REMARK    6  A    between atoms: C_6  and  C_9
REMARK    7  A    between atoms: C_11  and  C_12
REMARK    8  A    between atoms: C_11  and  C_14
REMARK                            x       y       z     vdW  Elec       q    Type
REMARK                         _______ _______ _______ _____ _____    ______ ____
ROOT
ATOM      1  C   UNL     1       5.235   4.963  17.225  0.00  0.00    +0.000 C 
ATOM      2  C   UNL     1       3.951   4.292  16.748  0.00  0.00    +0.000 C 
ATOM      3  C   UNL     1       5.312   5.443  18.691  0.00  0.00    +0.000 C 
ATOM      4  C   UNL     1       5.194   6.465  17.572  0.00  0.00    +0.000 C 
ENDROOT
BRANCH   3   5
ATOM      5  C   UNL     1       4.202   5.234  19.579  0.00  0.00    +0.000 C 
ATOM      6  N   UNL     1       3.302   5.086  20.293  0.00  0.00    +0.000 NA
ENDBRANCH   3   5
BRANCH   3   7
ATOM      7  C   UNL     1       6.551   5.316  19.413  0.00  0.00    +0.000 C 
ATOM      8  N   UNL     1       7.537   5.235  20.014  0.00  0.00    +0.000 NA
ENDBRANCH   3   7
BRANCH   4   9
ATOM      9  C   UNL     1       6.315   7.318  17.283  0.00  0.00    +0.000 C 
ATOM     10  N   UNL     1       7.224   7.993  17.049  0.00  0.00    +0.000 NA
ENDBRANCH   4   9
BRANCH   4  11
ATOM     11  C   UNL     1       3.965   7.192  17.401  0.00  0.00    +0.000 C 
ATOM     12  N   UNL     1       2.963   7.763  17.277  0.00  0.00    +0.000 NA
ENDBRANCH   4  11
BRANCH   1  13
ATOM     13  C   UNL     1       6.495   4.332  16.602  0.00  0.00    +0.000 C 
BRANCH  13  15
ATOM     14  C   UNL     1       6.979   4.817  14.157  0.00  0.00    +0.000 C 
ATOM     15  C   UNL     1       6.302   3.881  15.150  0.00  0.00    +0.000 C 
ENDBRANCH  13  15
ENDBRANCH   1  13
TORSDOF 6
ENDMDL
MODEL 6
REMARK VINA RESULT:      -4.9      2.491      4.577
REMARK  Name = 
REMARK  8 active torsions:
REMARK  status: ('A' for Active; 'I' for Inactive)
REMARK    1  A    between atoms: C_1  and  C_2
REMARK    2  A    between atoms: C_2  and  C_3
REMARK    3  A    between atoms: C_3  and  C_4
REMARK    4  A    between atoms: C_4  and  C_5
REMARK    5  A    between atoms: C_6  and  C_7
REMARK    6  A    between atoms: C_6  and  C_9
REMARK    7  A    between atoms: C_11  and  C_12
REMARK    8  A    between atoms: C_11  and  C_14
REMARK                            x       y       z     vdW  Elec       q    Type
REMARK                         _______ _______ _______ _____ _____    ______ ____
ROOT
ATOM      1  C   UNL     1       4.706   5.768  17.674  0.00  0.00    +0.000 C 
ATOM      2  C   UNL     1       5.475   6.937  17.069  0.00  0.00    +0.000 C 
ATOM      3  C   UNL     1       5.483   4.480  18.026  0.00  0.00    +0.000 C 
ATOM      4  C   UNL     1       4.539   4.485  16.835  0.00  0.00    +0.000 C 
ENDROOT
BRANCH   3   5
ATOM      5  C   UNL     1       6.902   4.409  17.804  0.00  0.00    +0.000 C 
ATOM      6  N   UNL     1       8.046   4.373  17.631  0.00  0.00    +0.000 NA
ENDBRANCH   3   5
BRANCH   3   7
ATOM      7  C   UNL     1       5.133   3.743  19.211  0.00  0.00    +0.000 C 
ATOM      8  N   UNL     1       4.867   3.126  20.154  0.00  0.00    +0.000 NA
ENDBRANCH   3   7
BRANCH   4   9
ATOM      9  C   UNL     1       3.327   3.715  16.901  0.00  0.00    +0.000 C 
ATOM     10  N   UNL     1       2.350   3.097  16.941  0.00  0.00    +0.000 NA
ENDBRANCH   4   9
BRANCH   4  11
ATOM     11  C   UNL     1       5.077   4.444  15.501  0.00  0.00    +0.000 C 
ATOM     12  N   UNL     1       5.496   4.392  14.421  0.00  0.00    +0.000 NA
ENDBRANCH   4  11
BRANCH   1  13
ATOM     13  C   UNL     1       3.595   6.230  18.638  0.00  0.00    +0.000 C 
BRANCH  13  15
ATOM     14  C   UNL     1       2.376   8.401  18.143  0.00  0.00    +0.000 C 
ATOM     15  C   UNL     1       2.408   6.893  17.932  0.00  0.00    +0.000 C 
ENDBRANCH  13  15
ENDBRANCH   1  13
TORSDOF 6
ENDMDL
MODEL 7
REMARK VINA RESULT:      -4.8      1.795      4.517
REMARK  Name = 
REMARK  8 active torsions:
REMARK  status: ('A' for Active; 'I' for Inactive)
REMARK    1  A    between atoms: C_1  and  C_2
REMARK    2  A    between atoms: C_2  and  C_3
REMARK    3  A    between atoms: C_3  and  C_4
REMARK    4  A    between atoms: C_4  and  C_5
REMARK    5  A    between atoms: C_6  and  C_7
REMARK    6  A    between atoms: C_6  and  C_9
REMARK    7  A    between atoms: C_11  and  C_12
REMARK    8  A    between atoms: C_11  and  C_14
REMARK                            x       y       z     vdW  Elec       q    Type
REMARK                         _______ _______ _______ _____ _____    ______ ____
ROOT
ATOM      1  C   UNL     1       3.600   4.686  17.592  0.00  0.00    +0.000 C 
ATOM      2  C   UNL     1       4.576   3.861  16.760  0.00  0.00    +0.000 C 
ATOM      3  C   UNL     1       3.857   6.203  17.737  0.00  0.00    +0.000 C 
ATOM      4  C   UNL     1       4.091   5.284  18.925  0.00  0.00    +0.000 C 
ENDROOT
BRANCH   3   5
ATOM      5  C   UNL     1       4.981   6.811  17.079  0.00  0.00    +0.000 C 
ATOM      6  N   UNL     1       5.899   7.297  16.567  0.00  0.00    +0.000 NA
ENDBRANCH   3   5
BRANCH   3   7
ATOM      7  C   UNL     1       2.742   7.112  17.748  0.00  0.00    +0.000 C 
ATOM      8  N   UNL     1       1.864   7.867  17.757  0.00  0.00    +0.000 NA
ENDBRANCH   3   7
BRANCH   4   9
ATOM      9  C   UNL     1       3.214   5.372  20.060  0.00  0.00    +0.000 C 
ATOM     10  N   UNL     1       2.499   5.436  20.967  0.00  0.00    +0.000 NA
ENDBRANCH   4   9
BRANCH   4  11
ATOM     11  C   UNL     1       5.436   5.016  19.361  0.00  0.00    +0.000 C 
ATOM     12  N   UNL     1       6.523   4.823  19.719  0.00  0.00    +0.000 NA
ENDBRANCH   4  11
BRANCH   1  13
ATOM     13  C   UNL     1       2.142   4.211  17.431  0.00  0.00    +0.000 C 
BRANCH  13  15
ATOM     14  C   UNL     1       0.890   2.624  18.967  0.00  0.00    +0.000 C 
ATOM     15  C   UNL     1       1.922   2.755  17.854  0.00  0.00    +0.000 C 
ENDBRANCH  13  15
ENDBRANCH   1  13
TORSDOF 6
ENDMDL
MODEL 8
REMARK VINA RESULT:      -4.8      2.799      4.607
REMARK  Name = 
REMARK  8 active torsions:
REMARK  status: ('A' for Active; 'I' for Inactive)
REMARK    1  A    between atoms: C_1  and  C_2
REMARK    2  A    between atoms: C_2  and  C_3
REMARK    3  A    between atoms: C_3  and  C_4
REMARK    4  A    between atoms: C_4  and  C_5
REMARK    5  A    between atoms: C_6  and  C_7
REMARK    6  A    between atoms: C_6  and  C_9
REMARK    7  A    between atoms: C_11  and  C_12
REMARK    8  A    between atoms: C_11  and  C_14
REMARK                            x       y       z     vdW  Elec       q    Type
REMARK                         _______ _______ _______ _____ _____    ______ ____
ROOT
ATOM      1  C   UNL     1       5.914   5.197  17.880  0.00  0.00    +0.000 C 
ATOM      2  C   UNL     1       5.800   4.987  19.386  0.00  0.00    +0.000 C 
ATOM      3  C   UNL     1       4.677   5.716  17.115  0.00  0.00    +0.000 C 
ATOM      4  C   UNL     1       5.112   4.269  16.946  0.00  0.00    +0.000 C 
ENDROOT
BRANCH   3   5
ATOM      5  C   UNL     1       3.461   6.011  17.823  0.00  0.00    +0.000 C 
ATOM      6  N   UNL     1       2.472   6.232  18.384  0.00  0.00    +0.000 NA
ENDBRANCH   3   5
BRANCH   3   7
ATOM      7  C   UNL     1       4.853   6.645  16.031  0.00  0.00    +0.000 C 
ATOM      8  N   UNL     1       5.015   7.373  15.145  0.00  0.00    +0.000 NA
ENDBRANCH   3   7
BRANCH   4   9
ATOM      9  C   UNL     1       5.657   3.847  15.684  0.00  0.00    +0.000 C 
ATOM     10  N   UNL     1       6.094   3.520  14.665  0.00  0.00    +0.000 NA
ENDBRANCH   4   9
BRANCH   4  11
ATOM     11  C   UNL     1       4.316   3.216  17.516  0.00  0.00    +0.000 C 
ATOM     12  N   UNL     1       3.670   2.358  17.954  0.00  0.00    +0.000 NA
ENDBRANCH   4  11
BRANCH   1  13
ATOM     13  C   UNL     1       7.300   5.729  17.464  0.00  0.00    +0.000 C 
BRANCH  13  15
ATOM     14  C   UNL     1       7.856   8.199  17.664  0.00  0.00    +0.000 C 
ATOM     15  C   UNL     1       7.823   6.849  18.369  0.00  0.00    +0.000 C 
ENDBRANCH  13  15
ENDBRANCH   1  13
TORSDOF 6
ENDMDL
MODEL 9
REMARK VINA RESULT:      -4.8      2.193      4.087
REMARK  Name = 
REMARK  8 active torsions:
REMARK  status: ('A' for Active; 'I' for Inactive)
REMARK    1  A    between atoms: C_1  and  C_2
REMARK    2  A    between atoms: C_2  and  C_3
REMARK    3  A    between atoms: C_3  and  C_4
REMARK    4  A    between atoms: C_4  and  C_5
REMARK    5  A    between atoms: C_6  and  C_7
REMARK    6  A    between atoms: C_6  and  C_9
REMARK    7  A    between atoms: C_11  and  C_12
REMARK    8  A    between atoms: C_11  and  C_14
REMARK                            x       y       z     vdW  Elec       q    Type
REMARK                         _______ _______ _______ _____ _____    ______ ____
ROOT
ATOM      1  C   UNL     1       5.005   5.232  17.054  0.00  0.00    +0.000 C 
ATOM      2  C   UNL     1       4.977   3.731  17.323  0.00  0.00    +0.000 C 
ATOM      3  C   UNL     1       5.834   6.133  17.996  0.00  0.00    +0.000 C 
ATOM      4  C   UNL     1       4.316   6.172  18.063  0.00  0.00    +0.000 C 
ENDROOT
BRANCH   3   5
ATOM      5  C   UNL     1       6.576   5.553  19.082  0.00  0.00    +0.000 C 
ATOM      6  N   UNL     1       7.179   5.069  19.944  0.00  0.00    +0.000 NA
ENDBRANCH   3   5
BRANCH   3   7
ATOM      7  C   UNL     1       6.553   7.254  17.451  0.00  0.00    +0.000 C 
ATOM      8  N   UNL     1       7.137   8.166  17.042  0.00  0.00    +0.000 NA
ENDBRANCH   3   7
BRANCH   4   9
ATOM      9  C   UNL     1       3.628   7.354  17.617  0.00  0.00    +0.000 C 
ATOM     10  N   UNL     1       3.077   8.300  17.246  0.00  0.00    +0.000 NA
ENDBRANCH   4   9
BRANCH   4  11
ATOM     11  C   UNL     1       3.640   5.608  19.200  0.00  0.00    +0.000 C 
ATOM     12  N   UNL     1       3.077   5.168  20.114  0.00  0.00    +0.000 NA
ENDBRANCH   4  11
BRANCH   1  13
ATOM     13  C   UNL     1       5.010   5.559  15.548  0.00  0.00    +0.000 C 
BRANCH  13  15
ATOM     14  C   UNL     1       7.078   4.778  14.298  0.00  0.00    +0.000 C 
ATOM     15  C   UNL     1       5.639   4.461  14.684  0.00  0.00    +0.000 C 
ENDBRANCH  13  15
ENDBRANCH   1  13
TORSDOF 6
ENDMDL
