MODEL 1
REMARK VINA RESULT:      -8.1      0.000      0.000
REMARK  Name = 
REMARK  6 active torsions:
REMARK  status: ('A' for Active; 'I' for Inactive)
REMARK    1  A    between atoms: C_1  and  C_2
REMARK    2  A    between atoms: C_5  and  S_6
REMARK    3  A    between atoms: S_6  and  N_9
REMARK    4  A    between atoms: C_10  and  C_12
REMARK    5  A    between atoms: C_12  and  C_13
REMARK    6  A    between atoms: C_13  and  C_14
REMARK                            x       y       z     vdW  Elec       q    Type
REMARK                         _______ _______ _______ _____ _____    ______ ____
ROOT
ATOM      1  N   UNL     1       7.470   6.925  16.631  0.00  0.00    +0.000 N 
ATOM      2  C   UNL     1       7.892   7.432  17.863  0.00  0.00    +0.000 C 
ATOM      3  O   UNL     1       8.125   6.724  18.836  0.00  0.00    +0.000 OA
ATOM      4  H   UNL     1       7.207   7.539  15.869  0.00  0.00    +0.000 HD
ENDROOT
BRANCH   1   5
ATOM      5  S   UNL     1       7.173   5.324  16.297  0.00  0.00    +0.000 S 
ATOM      6  O   UNL     1       8.069   4.519  17.098  0.00  0.00    +0.000 OA
ATOM      7  O   UNL     1       7.187   5.228  14.852  0.00  0.00    +0.000 OA
BRANCH   5  12
ATOM      8  C   UNL     1       1.471   4.393  18.153  0.00  0.00    +0.000 C 
ATOM      9  C   UNL     1       2.870   4.634  17.666  0.00  0.00    +0.000 A 
ATOM     10  C   UNL     1       3.453   5.904  17.766  0.00  0.00    +0.000 A 
ATOM     11  C   UNL     1       4.767   6.114  17.342  0.00  0.00    +0.000 A 
ATOM     12  C   UNL     1       5.504   5.050  16.821  0.00  0.00    +0.000 A 
ATOM     13  C   UNL     1       4.923   3.788  16.680  0.00  0.00    +0.000 A 
ATOM     14  C   UNL     1       3.607   3.585  17.103  0.00  0.00    +0.000 A 
ENDBRANCH   5  12
ENDBRANCH   1   5
BRANCH   2  15
ATOM     15  C   UNL     1       8.132   8.929  17.899  0.00  0.00    +0.000 C 
BRANCH  15  16
ATOM     16  C   UNL     1       8.956   9.433  19.086  0.00  0.00    +0.000 C 
BRANCH  16  17
ATOM     17  C   UNL     1       9.387  10.897  19.039  0.00  0.00    +0.000 C 
ATOM     18  C   UNL     1      10.311  11.302  17.905  0.00  0.00    +0.000 C 
ATOM     19  C   UNL     1      10.862  12.604  18.433  0.00  0.00    +0.000 C 
ATOM     20  C   UNL     1      11.010  12.310  19.911  0.00  0.00    +0.000 C 
ATOM     21  O   UNL     1      10.073  11.266  20.239  0.00  0.00    +0.000 OA
ENDBRANCH  16  17
ENDBRANCH  15  16
ENDBRANCH   2  15
TORSDOF 5
ENDMDL
MODEL 2
REMARK VINA RESULT:      -7.9      0.784      1.213
REMARK  Name = 
REMARK  6 active torsions:
REMARK  status: ('A' for Active; 'I' for Inactive)
REMARK    1  A    between atoms: C_1  and  C_2
REMARK    2  A    between atoms: C_5  and  S_6
REMARK    3  A    between atoms: S_6  and  N_9
REMARK    4  A    between atoms: C_10  and  C_12
REMARK    5  A    between atoms: C_12  and  C_13
REMARK    6  A    between atoms: C_13  and  C_14
REMARK                            x       y       z     vdW  Elec       q    Type
REMARK                         _______ _______ _______ _____ _____    ______ ____
ROOT
ATOM      1  N   UNL     1       7.257   7.055  16.653  0.00  0.00    +0.000 N 
ATOM      2  C   UNL     1       7.807   7.535  17.844  0.00  0.00    +0.000 C 
ATOM      3  O   UNL     1       8.054   6.818  18.807  0.00  0.00    +0.000 OA
ATOM      4  H   UNL     1       6.988   7.682  15.904  0.00  0.00    +0.000 HD
ENDROOT
BRANCH   1   5
ATOM      5  S   UNL     1       6.810   5.480  16.362  0.00  0.00    +0.000 S 
ATOM      6  O   UNL     1       7.868   4.613  16.834  0.00  0.00    +0.000 OA
ATOM      7  O   UNL     1       6.396   5.452  14.975  0.00  0.00    +0.000 OA
BRANCH   5  12
ATOM      8  C   UNL     1       1.821   4.566  19.695  0.00  0.00    +0.000 C 
ATOM      9  C   UNL     1       3.069   4.805  18.896  0.00  0.00    +0.000 A 
ATOM     10  C   UNL     1       4.143   3.908  18.960  0.00  0.00    +0.000 A 
ATOM     11  C   UNL     1       5.288   4.119  18.188  0.00  0.00    +0.000 A 
ATOM     12  C   UNL     1       5.359   5.228  17.345  0.00  0.00    +0.000 A 
ATOM     13  C   UNL     1       4.312   6.151  17.300  0.00  0.00    +0.000 A 
ATOM     14  C   UNL     1       3.170   5.936  18.076  0.00  0.00    +0.000 A 
ENDBRANCH   5  12
ENDBRANCH   1   5
BRANCH   2  15
ATOM     15  C   UNL     1       8.166   9.009  17.842  0.00  0.00    +0.000 C 
BRANCH  15  16
ATOM     16  C   UNL     1       9.009   9.480  19.031  0.00  0.00    +0.000 C 
BRANCH  16  17
ATOM     17  C   UNL     1       9.433  10.947  19.022  0.00  0.00    +0.000 C 
ATOM     18  C   UNL     1      10.315  11.397  17.873  0.00  0.00    +0.000 C 
ATOM     19  C   UNL     1      10.879  12.682  18.428  0.00  0.00    +0.000 C 
ATOM     20  C   UNL     1      11.079  12.336  19.888  0.00  0.00    +0.000 C 
ATOM     21  O   UNL     1      10.158  11.276  20.211  0.00  0.00    +0.000 OA
ENDBRANCH  16  17
ENDBRANCH  15  16
ENDBRANCH   2  15
TORSDOF 5
ENDMDL
MODEL 3
REMARK VINA RESULT:      -7.9      1.318      1.394
REMARK  Name = 
REMARK  6 active torsions:
REMARK  status: ('A' for Active; 'I' for Inactive)
REMARK    1  A    between atoms: C_1  and  C_2
REMARK    2  A    between atoms: C_5  and  S_6
REMARK    3  A    between atoms: S_6  and  N_9
REMARK    4  A    between atoms: C_10  and  C_12
REMARK    5  A    between atoms: C_12  and  C_13
REMARK    6  A    between atoms: C_13  and  C_14
REMARK                            x       y       z     vdW  Elec       q    Type
REMARK                         _______ _______ _______ _____ _____    ______ ____
ROOT
ATOM      1  N   UNL     1       7.120   7.392  16.796  0.00  0.00    +0.000 N 
ATOM      2  C   UNL     1       7.873   7.834  17.887  0.00  0.00    +0.000 C 
ATOM      3  O   UNL     1       8.246   7.093  18.789  0.00  0.00    +0.000 OA
ATOM      4  H   UNL     1       6.756   8.041  16.107  0.00  0.00    +0.000 HD
ENDROOT
BRANCH   1   5
ATOM      5  S   UNL     1       6.573   5.839  16.567  0.00  0.00    +0.000 S 
ATOM      6  O   UNL     1       7.627   4.925  16.948  0.00  0.00    +0.000 OA
ATOM      7  O   UNL     1       6.030   5.822  15.224  0.00  0.00    +0.000 OA
BRANCH   5  12
ATOM      8  C   UNL     1       1.910   5.300  20.413  0.00  0.00    +0.000 C 
ATOM      9  C   UNL     1       3.048   5.415  19.441  0.00  0.00    +0.000 A 
ATOM     10  C   UNL     1       3.011   6.355  18.404  0.00  0.00    +0.000 A 
ATOM     11  C   UNL     1       4.087   6.480  17.523  0.00  0.00    +0.000 A 
ATOM     12  C   UNL     1       5.209   5.666  17.682  0.00  0.00    +0.000 A 
ATOM     13  C   UNL     1       5.243   4.698  18.688  0.00  0.00    +0.000 A 
ATOM     14  C   UNL     1       4.162   4.576  19.564  0.00  0.00    +0.000 A 
ENDBRANCH   5  12
ENDBRANCH   1   5
BRANCH   2  15
ATOM     15  C   UNL     1       8.283   9.293  17.841  0.00  0.00    +0.000 C 
BRANCH  15  16
ATOM     16  C   UNL     1       9.111   9.780  19.034  0.00  0.00    +0.000 C 
BRANCH  16  17
ATOM     17  C   UNL     1       9.613  11.221  18.967  0.00  0.00    +0.000 C 
ATOM     18  C   UNL     1       9.060  12.087  17.852  0.00  0.00    +0.000 C 
ATOM     19  C   UNL     1      10.076  13.203  17.822  0.00  0.00    +0.000 C 
ATOM     20  C   UNL     1      11.368  12.463  18.093  0.00  0.00    +0.000 C 
ATOM     21  O   UNL     1      11.034  11.260  18.812  0.00  0.00    +0.000 OA
ENDBRANCH  16  17
ENDBRANCH  15  16
ENDBRANCH   2  15
TORSDOF 5
ENDMDL
MODEL 4
REMARK VINA RESULT:      -7.9      4.663      6.369
REMARK  Name = 
REMARK  6 active torsions:
REMARK  status: ('A' for Active; 'I' for Inactive)
REMARK    1  A    between atoms: C_1  and  C_2
REMARK    2  A    between atoms: C_5  and  S_6
REMARK    3  A    between atoms: S_6  and  N_9
REMARK    4  A    between atoms: C_10  and  C_12
REMARK    5  A    between atoms: C_12  and  C_13
REMARK    6  A    between atoms: C_13  and  C_14
REMARK                            x       y       z     vdW  Elec       q    Type
REMARK                         _______ _______ _______ _____ _____    ______ ____
ROOT
ATOM      1  N   UNL     1       4.589   5.819  19.006  0.00  0.00    +0.000 N 
ATOM      2  C   UNL     1       5.576   4.834  19.097  0.00  0.00    +0.000 C 
ATOM      3  O   UNL     1       5.334   3.662  19.362  0.00  0.00    +0.000 OA
ATOM      4  H   UNL     1       4.826   6.794  18.866  0.00  0.00    +0.000 HD
ENDROOT
BRANCH   1   5
ATOM      5  S   UNL     1       2.967   5.586  19.283  0.00  0.00    +0.000 S 
ATOM      6  O   UNL     1       2.805   5.053  20.618  0.00  0.00    +0.000 OA
ATOM      7  O   UNL     1       2.486   4.852  18.131  0.00  0.00    +0.000 OA
BRANCH   5  12
ATOM      8  C   UNL     1       0.462  11.107  19.019  0.00  0.00    +0.000 C 
ATOM      9  C   UNL     1       1.108   9.755  19.096  0.00  0.00    +0.000 A 
ATOM     10  C   UNL     1       1.116   9.033  20.296  0.00  0.00    +0.000 A 
ATOM     11  C   UNL     1       1.689   7.761  20.352  0.00  0.00    +0.000 A 
ATOM     12  C   UNL     1       2.252   7.204  19.203  0.00  0.00    +0.000 A 
ATOM     13  C   UNL     1       2.286   7.928  18.010  0.00  0.00    +0.000 A 
ATOM     14  C   UNL     1       1.713   9.202  17.960  0.00  0.00    +0.000 A 
ENDBRANCH   5  12
ENDBRANCH   1   5
BRANCH   2  15
ATOM     15  C   UNL     1       6.981   5.294  18.756  0.00  0.00    +0.000 C 
BRANCH  15  16
ATOM     16  C   UNL     1       7.578   4.689  17.482  0.00  0.00    +0.000 C 
BRANCH  16  17
ATOM     17  C   UNL     1       6.801   4.927  16.190  0.00  0.00    +0.000 C 
ATOM     18  C   UNL     1       6.013   3.753  15.641  0.00  0.00    +0.000 C 
ATOM     19  C   UNL     1       5.793   4.196  14.214  0.00  0.00    +0.000 C 
ATOM     20  C   UNL     1       7.104   4.880  13.889  0.00  0.00    +0.000 C 
ATOM     21  O   UNL     1       7.678   5.326  15.133  0.00  0.00    +0.000 OA
ENDBRANCH  16  17
ENDBRANCH  15  16
ENDBRANCH   2  15
TORSDOF 5
ENDMDL
MODEL 5
REMARK VINA RESULT:      -7.7      1.240      1.336
REMARK  Name = 
REMARK  6 active torsions:
REMARK  status: ('A' for Active; 'I' for Inactive)
REMARK    1  A    between atoms: C_1  and  C_2
REMARK    2  A    between atoms: C_5  and  S_6
REMARK    3  A    between atoms: S_6  and  N_9
REMARK    4  A    between atoms: C_10  and  C_12
REMARK    5  A    between atoms: C_12  and  C_13
REMARK    6  A    between atoms: C_13  and  C_14
REMARK                            x       y       z     vdW  Elec       q    Type
REMARK                         _______ _______ _______ _____ _____    ______ ____
ROOT
ATOM      1  N   UNL     1       7.158   6.767  16.745  0.00  0.00    +0.000 N 
ATOM      2  C   UNL     1       7.750   7.444  17.814  0.00  0.00    +0.000 C 
ATOM      3  O   UNL     1       8.133   6.884  18.835  0.00  0.00    +0.000 OA
ATOM      4  H   UNL     1       6.778   7.265  15.949  0.00  0.00    +0.000 HD
ENDROOT
BRANCH   1   5
ATOM      5  S   UNL     1       6.835   5.137  16.696  0.00  0.00    +0.000 S 
ATOM      6  O   UNL     1       7.912   4.439  17.363  0.00  0.00    +0.000 OA
ATOM      7  O   UNL     1       6.518   4.854  15.311  0.00  0.00    +0.000 OA
BRANCH   5  12
ATOM      8  C   UNL     1       1.712   4.519  19.890  0.00  0.00    +0.000 C 
ATOM      9  C   UNL     1       2.969   4.649  19.080  0.00  0.00    +0.000 A 
ATOM     10  C   UNL     1       2.995   5.433  17.921  0.00  0.00    +0.000 A 
ATOM     11  C   UNL     1       4.177   5.577  17.190  0.00  0.00    +0.000 A 
ATOM     12  C   UNL     1       5.339   4.939  17.623  0.00  0.00    +0.000 A 
ATOM     13  C   UNL     1       5.319   4.123  18.756  0.00  0.00    +0.000 A 
ATOM     14  C   UNL     1       4.134   3.980  19.481  0.00  0.00    +0.000 A 
ENDBRANCH   5  12
ENDBRANCH   1   5
BRANCH   2  15
ATOM     15  C   UNL     1       7.974   8.928  17.595  0.00  0.00    +0.000 C 
BRANCH  15  16
ATOM     16  C   UNL     1       8.801   9.633  18.674  0.00  0.00    +0.000 C 
BRANCH  16  17
ATOM     17  C   UNL     1       9.618  10.840  18.220  0.00  0.00    +0.000 C 
ATOM     18  C   UNL     1      10.631  11.391  19.207  0.00  0.00    +0.000 C 
ATOM     19  C   UNL     1      10.874  12.766  18.633  0.00  0.00    +0.000 C 
ATOM     20  C   UNL     1       9.494  13.157  18.151  0.00  0.00    +0.000 C 
ATOM     21  O   UNL     1       8.764  11.941  17.895  0.00  0.00    +0.000 OA
ENDBRANCH  16  17
ENDBRANCH  15  16
ENDBRANCH   2  15
TORSDOF 5
ENDMDL
MODEL 6
REMARK VINA RESULT:      -7.7      0.997      1.029
REMARK  Name = 
REMARK  6 active torsions:
REMARK  status: ('A' for Active; 'I' for Inactive)
REMARK    1  A    between atoms: C_1  and  C_2
REMARK    2  A    between atoms: C_5  and  S_6
REMARK    3  A    between atoms: S_6  and  N_9
REMARK    4  A    between atoms: C_10  and  C_12
REMARK    5  A    between atoms: C_12  and  C_13
REMARK    6  A    between atoms: C_13  and  C_14
REMARK                            x       y       z     vdW  Elec       q    Type
REMARK                         _______ _______ _______ _____ _____    ______ ____
ROOT
ATOM      1  N   UNL     1       7.112   7.226  16.711  0.00  0.00    +0.000 N 
ATOM      2  C   UNL     1       7.765   7.624  17.880  0.00  0.00    +0.000 C 
ATOM      3  O   UNL     1       8.067   6.846  18.779  0.00  0.00    +0.000 OA
ATOM      4  H   UNL     1       6.802   7.902  16.023  0.00  0.00    +0.000 HD
ENDROOT
BRANCH   1   5
ATOM      5  S   UNL     1       6.600   5.682  16.369  0.00  0.00    +0.000 S 
ATOM      6  O   UNL     1       7.661   4.763  16.723  0.00  0.00    +0.000 OA
ATOM      7  O   UNL     1       6.095   5.740  15.014  0.00  0.00    +0.000 OA
BRANCH   5  12
ATOM      8  C   UNL     1       1.851   4.815  20.047  0.00  0.00    +0.000 C 
ATOM      9  C   UNL     1       3.008   5.018  19.113  0.00  0.00    +0.000 A 
ATOM     10  C   UNL     1       3.084   6.158  18.303  0.00  0.00    +0.000 A 
ATOM     11  C   UNL     1       4.180   6.356  17.461  0.00  0.00    +0.000 A 
ATOM     12  C   UNL     1       5.209   5.415  17.432  0.00  0.00    +0.000 A 
ATOM     13  C   UNL     1       5.129   4.255  18.206  0.00  0.00    +0.000 A 
ATOM     14  C   UNL     1       4.029   4.061  19.044  0.00  0.00    +0.000 A 
ENDBRANCH   5  12
ENDBRANCH   1   5
BRANCH   2  15
ATOM     15  C   UNL     1       8.165   9.086  17.933  0.00  0.00    +0.000 C 
BRANCH  15  16
ATOM     16  C   UNL     1       9.160   9.455  19.036  0.00  0.00    +0.000 C 
BRANCH  16  17
ATOM     17  C   UNL     1       9.416  10.946  19.247  0.00  0.00    +0.000 C 
ATOM     18  C   UNL     1      10.724  11.497  18.712  0.00  0.00    +0.000 C 
ATOM     19  C   UNL     1      10.826  12.793  19.479  0.00  0.00    +0.000 C 
ATOM     20  C   UNL     1      10.278  12.403  20.835  0.00  0.00    +0.000 C 
ATOM     21  O   UNL     1       9.405  11.273  20.640  0.00  0.00    +0.000 OA
ENDBRANCH  16  17
ENDBRANCH  15  16
ENDBRANCH   2  15
TORSDOF 5
ENDMDL
MODEL 7
REMARK VINA RESULT:      -7.6      4.507      7.240
REMARK  Name = 
REMARK  6 active torsions:
REMARK  status: ('A' for Active; 'I' for Inactive)
REMARK    1  A    between atoms: C_1  and  C_2
REMARK    2  A    between atoms: C_5  and  S_6
REMARK    3  A    between atoms: S_6  and  N_9
REMARK    4  A    between atoms: C_10  and  C_12
REMARK    5  A    between atoms: C_12  and  C_13
REMARK    6  A    between atoms: C_13  and  C_14
REMARK                            x       y       z     vdW  Elec       q    Type
REMARK                         _______ _______ _______ _____ _____    ______ ____
ROOT
ATOM      1  N   UNL     1       4.910   5.421  18.388  0.00  0.00    +0.000 N 
ATOM      2  C   UNL     1       3.891   6.270  17.949  0.00  0.00    +0.000 C 
ATOM      3  O   UNL     1       4.052   7.121  17.081  0.00  0.00    +0.000 OA
ATOM      4  H   UNL     1       4.769   4.784  19.163  0.00  0.00    +0.000 HD
ENDROOT
BRANCH   1   5
ATOM      5  S   UNL     1       6.485   5.451  17.859  0.00  0.00    +0.000 S 
ATOM      6  O   UNL     1       7.253   4.526  18.664  0.00  0.00    +0.000 OA
ATOM      7  O   UNL     1       6.841   6.853  17.803  0.00  0.00    +0.000 OA
BRANCH   5  12
ATOM      8  C   UNL     1       6.240   3.498  12.118  0.00  0.00    +0.000 C 
ATOM      9  C   UNL     1       6.322   3.958  13.544  0.00  0.00    +0.000 A 
ATOM     10  C   UNL     1       7.343   4.821  13.960  0.00  0.00    +0.000 A 
ATOM     11  C   UNL     1       7.394   5.272  15.281  0.00  0.00    +0.000 A 
ATOM     12  C   UNL     1       6.417   4.864  16.189  0.00  0.00    +0.000 A 
ATOM     13  C   UNL     1       5.416   3.974  15.798  0.00  0.00    +0.000 A 
ATOM     14  C   UNL     1       5.371   3.523  14.477  0.00  0.00    +0.000 A 
ENDBRANCH   5  12
ENDBRANCH   1   5
BRANCH   2  15
ATOM     15  C   UNL     1       2.526   6.013  18.560  0.00  0.00    +0.000 C 
BRANCH  15  16
ATOM     16  C   UNL     1       1.847   4.712  18.125  0.00  0.00    +0.000 C 
BRANCH  16  17
ATOM     17  C   UNL     1       1.723   3.624  19.190  0.00  0.00    +0.000 C 
ATOM     18  C   UNL     1       1.034   4.010  20.485  0.00  0.00    +0.000 C 
ATOM     19  C   UNL     1       1.500   2.905  21.401  0.00  0.00    +0.000 C 
ATOM     20  C   UNL     1       2.928   2.695  20.943  0.00  0.00    +0.000 C 
ATOM     21  O   UNL     1       3.012   3.137  19.574  0.00  0.00    +0.000 OA
ENDBRANCH  16  17
ENDBRANCH  15  16
ENDBRANCH   2  15
TORSDOF 5
ENDMDL
MODEL 8
REMARK VINA RESULT:      -7.6      4.475      7.156
REMARK  Name = 
REMARK  6 active torsions:
REMARK  status: ('A' for Active; 'I' for Inactive)
REMARK    1  A    between atoms: C_1  and  C_2
REMARK    2  A    between atoms: C_5  and  S_6
REMARK    3  A    between atoms: S_6  and  N_9
REMARK    4  A    between atoms: C_10  and  C_12
REMARK    5  A    between atoms: C_12  and  C_13
REMARK    6  A    between atoms: C_13  and  C_14
REMARK                            x       y       z     vdW  Elec       q    Type
REMARK                         _______ _______ _______ _____ _____    ______ ____
ROOT
ATOM      1  N   UNL     1       5.688   5.519  17.619  0.00  0.00    +0.000 N 
ATOM      2  C   UNL     1       5.568   5.366  19.003  0.00  0.00    +0.000 C 
ATOM      3  O   UNL     1       6.523   5.154  19.741  0.00  0.00    +0.000 OA
ATOM      4  H   UNL     1       4.872   5.612  17.025  0.00  0.00    +0.000 HD
ENDROOT
BRANCH   1   5
ATOM      5  S   UNL     1       7.101   5.395  16.754  0.00  0.00    +0.000 S 
ATOM      6  O   UNL     1       7.969   4.457  17.433  0.00  0.00    +0.000 OA
ATOM      7  O   UNL     1       7.527   6.759  16.521  0.00  0.00    +0.000 OA
BRANCH   5  12
ATOM      8  C   UNL     1       5.459   3.042  11.406  0.00  0.00    +0.000 C 
ATOM      9  C   UNL     1       5.848   3.650  12.722  0.00  0.00    +0.000 A 
ATOM     10  C   UNL     1       5.000   3.555  13.833  0.00  0.00    +0.000 A 
ATOM     11  C   UNL     1       5.383   4.094  15.063  0.00  0.00    +0.000 A 
ATOM     12  C   UNL     1       6.621   4.725  15.186  0.00  0.00    +0.000 A 
ATOM     13  C   UNL     1       7.460   4.860  14.078  0.00  0.00    +0.000 A 
ATOM     14  C   UNL     1       7.070   4.322  12.850  0.00  0.00    +0.000 A 
ENDBRANCH   5  12
ENDBRANCH   1   5
BRANCH   2  15
ATOM     15  C   UNL     1       4.171   5.569  19.557  0.00  0.00    +0.000 C 
BRANCH  15  16
ATOM     16  C   UNL     1       3.060   5.693  18.510  0.00  0.00    +0.000 C 
BRANCH  16  17
ATOM     17  C   UNL     1       1.974   4.620  18.543  0.00  0.00    +0.000 C 
ATOM     18  C   UNL     1       1.470   4.200  19.911  0.00  0.00    +0.000 C 
ATOM     19  C   UNL     1       0.809   2.882  19.582  0.00  0.00    +0.000 C 
ATOM     20  C   UNL     1       1.745   2.310  18.538  0.00  0.00    +0.000 C 
ATOM     21  O   UNL     1       2.427   3.417  17.916  0.00  0.00    +0.000 OA
ENDBRANCH  16  17
ENDBRANCH  15  16
ENDBRANCH   2  15
TORSDOF 5
ENDMDL
MODEL 9
REMARK VINA RESULT:      -7.5      4.184      6.093
REMARK  Name = 
REMARK  6 active torsions:
REMARK  status: ('A' for Active; 'I' for Inactive)
REMARK    1  A    between atoms: C_1  and  C_2
REMARK    2  A    between atoms: C_5  and  S_6
REMARK    3  A    between atoms: S_6  and  N_9
REMARK    4  A    between atoms: C_10  and  C_12
REMARK    5  A    between atoms: C_12  and  C_13
REMARK    6  A    between atoms: C_13  and  C_14
REMARK                            x       y       z     vdW  Elec       q    Type
REMARK                         _______ _______ _______ _____ _____    ______ ____
ROOT
ATOM      1  N   UNL     1       4.682   5.899  19.132  0.00  0.00    +0.000 N 
ATOM      2  C   UNL     1       5.693   4.938  19.211  0.00  0.00    +0.000 C 
ATOM      3  O   UNL     1       5.472   3.743  19.377  0.00  0.00    +0.000 OA
ATOM      4  H   UNL     1       4.897   6.888  19.076  0.00  0.00    +0.000 HD
ENDROOT
BRANCH   1   5
ATOM      5  S   UNL     1       3.055   5.604  19.294  0.00  0.00    +0.000 S 
ATOM      6  O   UNL     1       2.828   5.007  20.592  0.00  0.00    +0.000 OA
ATOM      7  O   UNL     1       2.673   4.907  18.084  0.00  0.00    +0.000 OA
BRANCH   5  12
ATOM      8  C   UNL     1       0.497  11.104  19.091  0.00  0.00    +0.000 C 
ATOM      9  C   UNL     1       1.103   9.731  19.129  0.00  0.00    +0.000 A 
ATOM     10  C   UNL     1       1.687   9.174  17.985  0.00  0.00    +0.000 A 
ATOM     11  C   UNL     1       2.278   7.910  18.036  0.00  0.00    +0.000 A 
ATOM     12  C   UNL     1       2.292   7.201  19.237  0.00  0.00    +0.000 A 
ATOM     13  C   UNL     1       1.680   7.727  20.377  0.00  0.00    +0.000 A 
ATOM     14  C   UNL     1       1.088   8.991  20.319  0.00  0.00    +0.000 A 
ENDBRANCH   5  12
ENDBRANCH   1   5
BRANCH   2  15
ATOM     15  C   UNL     1       7.100   5.458  18.988  0.00  0.00    +0.000 C 
BRANCH  15  16
ATOM     16  C   UNL     1       7.252   6.476  17.855  0.00  0.00    +0.000 C 
BRANCH  16  17
ATOM     17  C   UNL     1       7.031   5.950  16.438  0.00  0.00    +0.000 C 
ATOM     18  C   UNL     1       5.612   5.996  15.905  0.00  0.00    +0.000 C 
ATOM     19  C   UNL     1       5.703   5.021  14.756  0.00  0.00    +0.000 C 
ATOM     20  C   UNL     1       6.628   3.960  15.314  0.00  0.00    +0.000 C 
ATOM     21  O   UNL     1       7.435   4.582  16.333  0.00  0.00    +0.000 OA
ENDBRANCH  16  17
ENDBRANCH  15  16
ENDBRANCH   2  15
TORSDOF 5
ENDMDL
