MODEL 1
REMARK VINA RESULT:      -7.8      0.000      0.000
REMARK  Name = 
REMARK  7 active torsions:
REMARK  status: ('A' for Active; 'I' for Inactive)
REMARK    1  A    between atoms: C_1  and  C_2
REMARK    2  A    between atoms: C_2  and  C_3
REMARK    3  A    between atoms: C_2  and  C_4
REMARK    4  A    between atoms: C_2  and  O_5
REMARK    5  A    between atoms: O_5  and  C_6
REMARK    6  A    between atoms: C_16  and  C_17
REMARK    7  A    between atoms: N_19  and  C_20
REMARK                            x       y       z     vdW  Elec       q    Type
REMARK                         _______ _______ _______ _____ _____    ______ ____
ROOT
ATOM      1  C   UNL     1       4.216   6.524  17.430  0.00  0.00    +0.000 C 
ATOM      2  O   UNL     1       4.739   7.633  17.358  0.00  0.00    +0.000 OA
ATOM      3  N   UNL     1       3.214   6.277  18.329  0.00  0.00    +0.000 N 
ATOM      4  C   UNL     1       2.491   5.103  18.607  0.00  0.00    +0.000 A 
ATOM      5  C   UNL     1       2.446   3.904  17.923  0.00  0.00    +0.000 A 
ATOM      6  C   UNL     1       1.606   2.901  18.407  0.00  0.00    +0.000 A 
ATOM      7  C   UNL     1       0.839   3.099  19.565  0.00  0.00    +0.000 A 
ATOM      8  C   UNL     1       0.900   4.308  20.258  0.00  0.00    +0.000 A 
ATOM      9  C   UNL     1       1.729   5.299  19.767  0.00  0.00    +0.000 A 
ATOM     10  C   UNL     1       2.012   6.637  20.383  0.00  0.00    +0.000 C 
ATOM     11  C   UNL     1       2.777   7.338  19.251  0.00  0.00    +0.000 C 
ENDROOT
BRANCH  11  12
ATOM     12  C   UNL     1       1.875   8.387  18.561  0.00  0.00    +0.000 C 
ATOM     13  O   UNL     1       2.017   8.649  17.365  0.00  0.00    +0.000 OA
ATOM     14  N   UNL     1       1.006   9.065  19.401  0.00  0.00    +0.000 N 
ATOM     15  H   UNL     1       1.281   9.114  20.377  0.00  0.00    +0.000 HD
BRANCH  14  16
ATOM     16  C   UNL     1       0.120  10.065  18.950  0.00  0.00    +0.000 A 
ATOM     17  C   UNL     1      -0.838   9.783  17.970  0.00  0.00    +0.000 A 
ATOM     18  C   UNL     1      -1.738  10.771  17.560  0.00  0.00    +0.000 A 
ATOM     19  C   UNL     1      -1.670  12.051  18.111  0.00  0.00    +0.000 A 
ATOM     20  C   UNL     1      -0.712  12.342  19.083  0.00  0.00    +0.000 A 
ATOM     21  C   UNL     1       0.167  11.347  19.515  0.00  0.00    +0.000 A 
ATOM     22 CL   UNL     1       1.377  11.758  20.681  0.00  0.00    +0.000 Cl
ENDBRANCH  14  16
ENDBRANCH  11  12
BRANCH   1  23
ATOM     23  O   UNL     1       4.524   5.494  16.599  0.00  0.00    +0.000 OA
BRANCH  23  25
ATOM     24  C   UNL     1       6.130   4.471  18.163  0.00  0.00    +0.000 C 
ATOM     25  C   UNL     1       5.834   4.861  16.709  0.00  0.00    +0.000 C 
ATOM     26  C   UNL     1       6.916   5.761  16.098  0.00  0.00    +0.000 C 
ATOM     27  C   UNL     1       5.772   3.562  15.884  0.00  0.00    +0.000 C 
ENDBRANCH  23  25
ENDBRANCH   1  23
TORSDOF 4
ENDMDL
MODEL 2
REMARK VINA RESULT:      -7.8      1.199      1.297
REMARK  Name = 
REMARK  7 active torsions:
REMARK  status: ('A' for Active; 'I' for Inactive)
REMARK    1  A    between atoms: C_1  and  C_2
REMARK    2  A    between atoms: C_2  and  C_3
REMARK    3  A    between atoms: C_2  and  C_4
REMARK    4  A    between atoms: C_2  and  O_5
REMARK    5  A    between atoms: O_5  and  C_6
REMARK    6  A    between atoms: C_16  and  C_17
REMARK    7  A    between atoms: N_19  and  C_20
REMARK                            x       y       z     vdW  Elec       q    Type
REMARK                         _______ _______ _______ _____ _____    ______ ____
ROOT
ATOM      1  C   UNL     1       4.299   6.265  17.584  0.00  0.00    +0.000 C 
ATOM      2  O   UNL     1       4.824   7.365  17.740  0.00  0.00    +0.000 OA
ATOM      3  N   UNL     1       3.314   5.831  18.429  0.00  0.00    +0.000 N 
ATOM      4  C   UNL     1       2.594   4.623  18.465  0.00  0.00    +0.000 A 
ATOM      5  C   UNL     1       2.531   3.598  17.542  0.00  0.00    +0.000 A 
ATOM      6  C   UNL     1       1.698   2.514  17.817  0.00  0.00    +0.000 A 
ATOM      7  C   UNL     1       0.955   2.458  19.006  0.00  0.00    +0.000 A 
ATOM      8  C   UNL     1       1.035   3.491  19.941  0.00  0.00    +0.000 A 
ATOM      9  C   UNL     1       1.857   4.565  19.656  0.00  0.00    +0.000 A 
ATOM     10  C   UNL     1       2.157   5.740  20.537  0.00  0.00    +0.000 C 
ATOM     11  C   UNL     1       2.901   6.669  19.566  0.00  0.00    +0.000 C 
ENDROOT
BRANCH  11  12
ATOM     12  C   UNL     1       1.988   7.840  19.135  0.00  0.00    +0.000 C 
ATOM     13  O   UNL     1       1.696   8.007  17.950  0.00  0.00    +0.000 OA
ATOM     14  N   UNL     1       1.637   8.720  20.147  0.00  0.00    +0.000 N 
ATOM     15  H   UNL     1       2.273   8.763  20.937  0.00  0.00    +0.000 HD
BRANCH  14  16
ATOM     16  C   UNL     1       0.823   9.853  19.937  0.00  0.00    +0.000 A 
ATOM     17  C   UNL     1       1.069  10.722  18.868  0.00  0.00    +0.000 A 
ATOM     18  C   UNL     1       0.231  11.819  18.646  0.00  0.00    +0.000 A 
ATOM     19  C   UNL     1      -0.842  12.064  19.503  0.00  0.00    +0.000 A 
ATOM     20  C   UNL     1      -1.088  11.207  20.576  0.00  0.00    +0.000 A 
ATOM     21  C   UNL     1      -0.270  10.094  20.780  0.00  0.00    +0.000 A 
ATOM     22 CL   UNL     1      -0.572   9.083  22.151  0.00  0.00    +0.000 Cl
ENDBRANCH  14  16
ENDBRANCH  11  12
BRANCH   1  23
ATOM     23  O   UNL     1       4.587   5.437  16.546  0.00  0.00    +0.000 OA
BRANCH  23  25
ATOM     24  C   UNL     1       6.332   4.325  17.882  0.00  0.00    +0.000 C 
ATOM     25  C   UNL     1       5.897   4.799  16.489  0.00  0.00    +0.000 C 
ATOM     26  C   UNL     1       6.919   5.733  15.828  0.00  0.00    +0.000 C 
ATOM     27  C   UNL     1       5.746   3.550  15.601  0.00  0.00    +0.000 C 
ENDBRANCH  23  25
ENDBRANCH   1  23
TORSDOF 4
ENDMDL
MODEL 3
REMARK VINA RESULT:      -7.7      2.091      4.166
REMARK  Name = 
REMARK  7 active torsions:
REMARK  status: ('A' for Active; 'I' for Inactive)
REMARK    1  A    between atoms: C_1  and  C_2
REMARK    2  A    between atoms: C_2  and  C_3
REMARK    3  A    between atoms: C_2  and  C_4
REMARK    4  A    between atoms: C_2  and  O_5
REMARK    5  A    between atoms: O_5  and  C_6
REMARK    6  A    between atoms: C_16  and  C_17
REMARK    7  A    between atoms: N_19  and  C_20
REMARK                            x       y       z     vdW  Elec       q    Type
REMARK                         _______ _______ _______ _____ _____    ______ ____
ROOT
ATOM      1  C   UNL     1       2.533   4.420  17.620  0.00  0.00    +0.000 C 
ATOM      2  O   UNL     1       1.321   4.616  17.591  0.00  0.00    +0.000 OA
ATOM      3  N   UNL     1       3.413   5.467  17.667  0.00  0.00    +0.000 N 
ATOM      4  C   UNL     1       4.819   5.492  17.682  0.00  0.00    +0.000 A 
ATOM      5  C   UNL     1       5.724   4.463  17.849  0.00  0.00    +0.000 A 
ATOM      6  C   UNL     1       7.083   4.776  17.857  0.00  0.00    +0.000 A 
ATOM      7  C   UNL     1       7.520   6.098  17.685  0.00  0.00    +0.000 A 
ATOM      8  C   UNL     1       6.600   7.131  17.502  0.00  0.00    +0.000 A 
ATOM      9  C   UNL     1       5.255   6.812  17.504  0.00  0.00    +0.000 A 
ATOM     10  C   UNL     1       4.101   7.735  17.251  0.00  0.00    +0.000 C 
ATOM     11  C   UNL     1       2.909   6.850  17.644  0.00  0.00    +0.000 C 
ENDROOT
BRANCH  11  12
ATOM     12  C   UNL     1       2.337   7.293  19.010  0.00  0.00    +0.000 C 
ATOM     13  O   UNL     1       2.423   6.559  19.996  0.00  0.00    +0.000 OA
ATOM     14  N   UNL     1       1.642   8.492  19.000  0.00  0.00    +0.000 N 
ATOM     15  H   UNL     1       1.244   8.766  18.108  0.00  0.00    +0.000 HD
BRANCH  14  16
ATOM     16  C   UNL     1       1.040   9.045  20.150  0.00  0.00    +0.000 A 
ATOM     17  C   UNL     1       1.465   8.671  21.430  0.00  0.00    +0.000 A 
ATOM     18  C   UNL     1       0.888   9.255  22.561  0.00  0.00    +0.000 A 
ATOM     19  C   UNL     1      -0.129  10.199  22.419  0.00  0.00    +0.000 A 
ATOM     20  C   UNL     1      -0.564  10.571  21.147  0.00  0.00    +0.000 A 
ATOM     21  C   UNL     1       0.032  10.010  20.015  0.00  0.00    +0.000 A 
ATOM     22 CL   UNL     1      -0.568  10.453  18.455  0.00  0.00    +0.000 Cl
ENDBRANCH  14  16
ENDBRANCH  11  12
BRANCH   1  23
ATOM     23  O   UNL     1       3.091   3.183  17.680  0.00  0.00    +0.000 OA
BRANCH  23  25
ATOM     24  C   UNL     1       1.392   1.853  18.870  0.00  0.00    +0.000 C 
ATOM     25  C   UNL     1       2.845   2.348  18.851  0.00  0.00    +0.000 C 
ATOM     26  C   UNL     1       3.240   3.093  20.132  0.00  0.00    +0.000 C 
ATOM     27  C   UNL     1       3.753   1.112  18.717  0.00  0.00    +0.000 C 
ENDBRANCH  23  25
ENDBRANCH   1  23
TORSDOF 4
ENDMDL
MODEL 4
REMARK VINA RESULT:      -7.5      1.525      1.883
REMARK  Name = 
REMARK  7 active torsions:
REMARK  status: ('A' for Active; 'I' for Inactive)
REMARK    1  A    between atoms: C_1  and  C_2
REMARK    2  A    between atoms: C_2  and  C_3
REMARK    3  A    between atoms: C_2  and  C_4
REMARK    4  A    between atoms: C_2  and  O_5
REMARK    5  A    between atoms: O_5  and  C_6
REMARK    6  A    between atoms: C_16  and  C_17
REMARK    7  A    between atoms: N_19  and  C_20
REMARK                            x       y       z     vdW  Elec       q    Type
REMARK                         _______ _______ _______ _____ _____    ______ ____
ROOT
ATOM      1  C   UNL     1       4.961   5.265  18.507  0.00  0.00    +0.000 C 
ATOM      2  O   UNL     1       5.561   6.272  18.871  0.00  0.00    +0.000 OA
ATOM      3  N   UNL     1       3.747   4.938  19.048  0.00  0.00    +0.000 N 
ATOM      4  C   UNL     1       2.896   3.842  18.813  0.00  0.00    +0.000 A 
ATOM      5  C   UNL     1       2.944   2.874  17.830  0.00  0.00    +0.000 A 
ATOM      6  C   UNL     1       1.940   1.907  17.808  0.00  0.00    +0.000 A 
ATOM      7  C   UNL     1       0.917   1.907  18.768  0.00  0.00    +0.000 A 
ATOM      8  C   UNL     1       0.883   2.879  19.768  0.00  0.00    +0.000 A 
ATOM      9  C   UNL     1       1.878   3.839  19.777  0.00  0.00    +0.000 A 
ATOM     10  C   UNL     1       2.087   4.924  20.791  0.00  0.00    +0.000 C 
ATOM     11  C   UNL     1       3.164   5.778  20.106  0.00  0.00    +0.000 C 
ENDROOT
BRANCH  11  12
ATOM     12  C   UNL     1       2.545   7.082  19.552  0.00  0.00    +0.000 C 
ATOM     13  O   UNL     1       2.783   7.451  18.401  0.00  0.00    +0.000 OA
ATOM     14  N   UNL     1       1.823   7.830  20.468  0.00  0.00    +0.000 N 
ATOM     15  H   UNL     1       2.068   7.694  21.444  0.00  0.00    +0.000 HD
BRANCH  14  16
ATOM     16  C   UNL     1       1.200   9.054  20.145  0.00  0.00    +0.000 A 
ATOM     17  C   UNL     1       1.176   9.517  18.825  0.00  0.00    +0.000 A 
ATOM     18  C   UNL     1       0.521  10.711  18.510  0.00  0.00    +0.000 A 
ATOM     19  C   UNL     1      -0.094  11.458  19.516  0.00  0.00    +0.000 A 
ATOM     20  C   UNL     1      -0.066  11.007  20.835  0.00  0.00    +0.000 A 
ATOM     21  C   UNL     1       0.562   9.799  21.146  0.00  0.00    +0.000 A 
ATOM     22 CL   UNL     1       0.624   9.297  22.800  0.00  0.00    +0.000 Cl
ENDBRANCH  14  16
ENDBRANCH  11  12
BRANCH   1  23
ATOM     23  O   UNL     1       5.399   4.448  17.514  0.00  0.00    +0.000 OA
BRANCH  23  25
ATOM     24  C   UNL     1       7.332   5.255  16.218  0.00  0.00    +0.000 C 
ATOM     25  C   UNL     1       5.814   5.033  16.244  0.00  0.00    +0.000 C 
ATOM     26  C   UNL     1       5.017   6.313  15.959  0.00  0.00    +0.000 C 
ATOM     27  C   UNL     1       5.477   4.006  15.148  0.00  0.00    +0.000 C 
ENDBRANCH  23  25
ENDBRANCH   1  23
TORSDOF 4
ENDMDL
MODEL 5
REMARK VINA RESULT:      -7.4      2.093      3.919
REMARK  Name = 
REMARK  7 active torsions:
REMARK  status: ('A' for Active; 'I' for Inactive)
REMARK    1  A    between atoms: C_1  and  C_2
REMARK    2  A    between atoms: C_2  and  C_3
REMARK    3  A    between atoms: C_2  and  C_4
REMARK    4  A    between atoms: C_2  and  O_5
REMARK    5  A    between atoms: O_5  and  C_6
REMARK    6  A    between atoms: C_16  and  C_17
REMARK    7  A    between atoms: N_19  and  C_20
REMARK                            x       y       z     vdW  Elec       q    Type
REMARK                         _______ _______ _______ _____ _____    ______ ____
ROOT
ATOM      1  C   UNL     1       2.669   4.793  19.197  0.00  0.00    +0.000 C 
ATOM      2  O   UNL     1       1.442   4.849  19.163  0.00  0.00    +0.000 OA
ATOM      3  N   UNL     1       3.432   5.760  18.602  0.00  0.00    +0.000 N 
ATOM      4  C   UNL     1       4.828   5.897  18.489  0.00  0.00    +0.000 A 
ATOM      5  C   UNL     1       5.842   5.197  19.112  0.00  0.00    +0.000 A 
ATOM      6  C   UNL     1       7.159   5.566  18.842  0.00  0.00    +0.000 A 
ATOM      7  C   UNL     1       7.448   6.610  17.950  0.00  0.00    +0.000 A 
ATOM      8  C   UNL     1       6.418   7.303  17.313  0.00  0.00    +0.000 A 
ATOM      9  C   UNL     1       5.115   6.935  17.594  0.00  0.00    +0.000 A 
ATOM     10  C   UNL     1       3.863   7.481  16.975  0.00  0.00    +0.000 C 
ATOM     11  C   UNL     1       2.783   6.865  17.878  0.00  0.00    +0.000 C 
ENDROOT
BRANCH  11  12
ATOM     12  C   UNL     1       2.202   7.935  18.829  0.00  0.00    +0.000 C 
ATOM     13  O   UNL     1       2.269   7.793  20.051  0.00  0.00    +0.000 OA
ATOM     14  N   UNL     1       1.521   8.971  18.210  0.00  0.00    +0.000 N 
ATOM     15  H   UNL     1       1.135   8.764  17.294  0.00  0.00    +0.000 HD
BRANCH  14  16
ATOM     16  C   UNL     1       0.914  10.028  18.919  0.00  0.00    +0.000 A 
ATOM     17  C   UNL     1      -0.184   9.792  19.755  0.00  0.00    +0.000 A 
ATOM     18  C   UNL     1      -0.752  10.841  20.483  0.00  0.00    +0.000 A 
ATOM     19  C   UNL     1      -0.241  12.133  20.364  0.00  0.00    +0.000 A 
ATOM     20  C   UNL     1       0.847  12.378  19.527  0.00  0.00    +0.000 A 
ATOM     21  C   UNL     1       1.435  11.326  18.821  0.00  0.00    +0.000 A 
ATOM     22 CL   UNL     1       2.748  11.676  17.751  0.00  0.00    +0.000 Cl
ENDBRANCH  14  16
ENDBRANCH  11  12
BRANCH   1  23
ATOM     23  O   UNL     1       3.358   3.835  19.870  0.00  0.00    +0.000 OA
BRANCH  23  25
ATOM     24  C   UNL     1       3.643   2.431  17.865  0.00  0.00    +0.000 C 
ATOM     25  C   UNL     1       3.342   2.465  19.370  0.00  0.00    +0.000 C 
ATOM     26  C   UNL     1       2.017   1.779  19.731  0.00  0.00    +0.000 C 
ATOM     27  C   UNL     1       4.478   1.715  20.087  0.00  0.00    +0.000 C 
ENDBRANCH  23  25
ENDBRANCH   1  23
TORSDOF 4
ENDMDL
MODEL 6
REMARK VINA RESULT:      -7.3      1.982      4.006
REMARK  Name = 
REMARK  7 active torsions:
REMARK  status: ('A' for Active; 'I' for Inactive)
REMARK    1  A    between atoms: C_1  and  C_2
REMARK    2  A    between atoms: C_2  and  C_3
REMARK    3  A    between atoms: C_2  and  C_4
REMARK    4  A    between atoms: C_2  and  O_5
REMARK    5  A    between atoms: O_5  and  C_6
REMARK    6  A    between atoms: C_16  and  C_17
REMARK    7  A    between atoms: N_19  and  C_20
REMARK                            x       y       z     vdW  Elec       q    Type
REMARK                         _______ _______ _______ _____ _____    ______ ____
ROOT
ATOM      1  C   UNL     1       2.711   4.710  18.033  0.00  0.00    +0.000 C 
ATOM      2  O   UNL     1       1.512   4.884  17.829  0.00  0.00    +0.000 OA
ATOM      3  N   UNL     1       3.610   5.723  17.837  0.00  0.00    +0.000 N 
ATOM      4  C   UNL     1       5.009   5.755  17.979  0.00  0.00    +0.000 A 
ATOM      5  C   UNL     1       5.867   4.831  18.541  0.00  0.00    +0.000 A 
ATOM      6  C   UNL     1       7.228   5.135  18.581  0.00  0.00    +0.000 A 
ATOM      7  C   UNL     1       7.714   6.340  18.052  0.00  0.00    +0.000 A 
ATOM      8  C   UNL     1       6.843   7.262  17.471  0.00  0.00    +0.000 A 
ATOM      9  C   UNL     1       5.495   6.956  17.444  0.00  0.00    +0.000 A 
ATOM     10  C   UNL     1       4.394   7.752  16.808  0.00  0.00    +0.000 C 
ATOM     11  C   UNL     1       3.148   7.029  17.341  0.00  0.00    +0.000 C 
ENDROOT
BRANCH  11  12
ATOM     12  C   UNL     1       2.466   7.872  18.442  0.00  0.00    +0.000 C 
ATOM     13  O   UNL     1       2.431   7.475  19.607  0.00  0.00    +0.000 OA
ATOM     14  N   UNL     1       1.819   9.014  17.997  0.00  0.00    +0.000 N 
ATOM     15  H   UNL     1       1.517   9.004  17.028  0.00  0.00    +0.000 HD
BRANCH  14  16
ATOM     16  C   UNL     1       1.131   9.896  18.857  0.00  0.00    +0.000 A 
ATOM     17  C   UNL     1       0.120   9.427  19.703  0.00  0.00    +0.000 A 
ATOM     18  C   UNL     1      -0.527  10.303  20.579  0.00  0.00    +0.000 A 
ATOM     19  C   UNL     1      -0.182  11.655  20.599  0.00  0.00    +0.000 A 
ATOM     20  C   UNL     1       0.819  12.131  19.752  0.00  0.00    +0.000 A 
ATOM     21  C   UNL     1       1.486  11.251  18.897  0.00  0.00    +0.000 A 
ATOM     22 CL   UNL     1       2.683  11.887  17.823  0.00  0.00    +0.000 Cl
ENDBRANCH  14  16
ENDBRANCH  11  12
BRANCH   1  23
ATOM     23  O   UNL     1       3.228   3.554  18.525  0.00  0.00    +0.000 OA
BRANCH  23  25
ATOM     24  C   UNL     1       1.601   2.129  19.706  0.00  0.00    +0.000 C 
ATOM     25  C   UNL     1       2.795   3.084  19.837  0.00  0.00    +0.000 C 
ATOM     26  C   UNL     1       2.512   4.273  20.765  0.00  0.00    +0.000 C 
ATOM     27  C   UNL     1       3.967   2.282  20.432  0.00  0.00    +0.000 C 
ENDBRANCH  23  25
ENDBRANCH   1  23
TORSDOF 4
ENDMDL
MODEL 7
REMARK VINA RESULT:      -7.2      1.974      4.096
REMARK  Name = 
REMARK  7 active torsions:
REMARK  status: ('A' for Active; 'I' for Inactive)
REMARK    1  A    between atoms: C_1  and  C_2
REMARK    2  A    between atoms: C_2  and  C_3
REMARK    3  A    between atoms: C_2  and  C_4
REMARK    4  A    between atoms: C_2  and  O_5
REMARK    5  A    between atoms: O_5  and  C_6
REMARK    6  A    between atoms: C_16  and  C_17
REMARK    7  A    between atoms: N_19  and  C_20
REMARK                            x       y       z     vdW  Elec       q    Type
REMARK                         _______ _______ _______ _____ _____    ______ ____
ROOT
ATOM      1  C   UNL     1       2.558   4.713  18.087  0.00  0.00    +0.000 C 
ATOM      2  O   UNL     1       1.357   4.866  17.881  0.00  0.00    +0.000 OA
ATOM      3  N   UNL     1       3.441   5.738  17.884  0.00  0.00    +0.000 N 
ATOM      4  C   UNL     1       4.840   5.794  18.026  0.00  0.00    +0.000 A 
ATOM      5  C   UNL     1       5.712   4.889  18.598  0.00  0.00    +0.000 A 
ATOM      6  C   UNL     1       7.067   5.215  18.636  0.00  0.00    +0.000 A 
ATOM      7  C   UNL     1       7.535   6.422  18.097  0.00  0.00    +0.000 A 
ATOM      8  C   UNL     1       6.650   7.325  17.507  0.00  0.00    +0.000 A 
ATOM      9  C   UNL     1       5.307   6.998  17.481  0.00  0.00    +0.000 A 
ATOM     10  C   UNL     1       4.194   7.770  16.837  0.00  0.00    +0.000 C 
ATOM     11  C   UNL     1       2.959   7.032  17.375  0.00  0.00    +0.000 C 
ENDROOT
BRANCH  11  12
ATOM     12  C   UNL     1       2.262   7.874  18.468  0.00  0.00    +0.000 C 
ATOM     13  O   UNL     1       2.307   7.531  19.650  0.00  0.00    +0.000 OA
ATOM     14  N   UNL     1       1.513   8.943  18.003  0.00  0.00    +0.000 N 
ATOM     15  H   UNL     1       1.172   8.865  17.050  0.00  0.00    +0.000 HD
BRANCH  14  16
ATOM     16  C   UNL     1       0.797   9.812  18.853  0.00  0.00    +0.000 A 
ATOM     17  C   UNL     1       1.379  10.303  20.027  0.00  0.00    +0.000 A 
ATOM     18  C   UNL     1       0.675  11.195  20.841  0.00  0.00    +0.000 A 
ATOM     19  C   UNL     1      -0.621  11.583  20.498  0.00  0.00    +0.000 A 
ATOM     20  C   UNL     1      -1.210  11.091  19.333  0.00  0.00    +0.000 A 
ATOM     21  C   UNL     1      -0.496  10.223  18.504  0.00  0.00    +0.000 A 
ATOM     22 CL   UNL     1      -1.278   9.590  17.097  0.00  0.00    +0.000 Cl
ENDBRANCH  14  16
ENDBRANCH  11  12
BRANCH   1  23
ATOM     23  O   UNL     1       3.092   3.570  18.591  0.00  0.00    +0.000 OA
BRANCH  23  25
ATOM     24  C   UNL     1       1.480   2.197  19.849  0.00  0.00    +0.000 C 
ATOM     25  C   UNL     1       2.698   3.128  19.924  0.00  0.00    +0.000 C 
ATOM     26  C   UNL     1       2.473   4.335  20.843  0.00  0.00    +0.000 C 
ATOM     27  C   UNL     1       3.873   2.310  20.488  0.00  0.00    +0.000 C 
ENDBRANCH  23  25
ENDBRANCH   1  23
TORSDOF 4
ENDMDL
MODEL 8
REMARK VINA RESULT:      -7.1      2.100      4.024
REMARK  Name = 
REMARK  7 active torsions:
REMARK  status: ('A' for Active; 'I' for Inactive)
REMARK    1  A    between atoms: C_1  and  C_2
REMARK    2  A    between atoms: C_2  and  C_3
REMARK    3  A    between atoms: C_2  and  C_4
REMARK    4  A    between atoms: C_2  and  O_5
REMARK    5  A    between atoms: O_5  and  C_6
REMARK    6  A    between atoms: C_16  and  C_17
REMARK    7  A    between atoms: N_19  and  C_20
REMARK                            x       y       z     vdW  Elec       q    Type
REMARK                         _______ _______ _______ _____ _____    ______ ____
ROOT
ATOM      1  C   UNL     1       2.611   4.819  19.127  0.00  0.00    +0.000 C 
ATOM      2  O   UNL     1       1.386   4.874  19.055  0.00  0.00    +0.000 OA
ATOM      3  N   UNL     1       3.392   5.779  18.541  0.00  0.00    +0.000 N 
ATOM      4  C   UNL     1       4.791   5.914  18.469  0.00  0.00    +0.000 A 
ATOM      5  C   UNL     1       5.785   5.224  19.133  0.00  0.00    +0.000 A 
ATOM      6  C   UNL     1       7.110   5.591  18.897  0.00  0.00    +0.000 A 
ATOM      7  C   UNL     1       7.425   6.622  18.000  0.00  0.00    +0.000 A 
ATOM      8  C   UNL     1       6.416   7.305  17.322  0.00  0.00    +0.000 A 
ATOM      9  C   UNL     1       5.105   6.940  17.568  0.00  0.00    +0.000 A 
ATOM     10  C   UNL     1       3.872   7.476  16.903  0.00  0.00    +0.000 C 
ATOM     11  C   UNL     1       2.765   6.872  17.781  0.00  0.00    +0.000 C 
ENDROOT
BRANCH  11  12
ATOM     12  C   UNL     1       2.155   7.955  18.699  0.00  0.00    +0.000 C 
ATOM     13  O   UNL     1       2.209   7.845  19.925  0.00  0.00    +0.000 OA
ATOM     14  N   UNL     1       1.464   8.964  18.046  0.00  0.00    +0.000 N 
ATOM     15  H   UNL     1       1.093   8.727  17.131  0.00  0.00    +0.000 HD
BRANCH  14  16
ATOM     16  C   UNL     1       0.830  10.028  18.721  0.00  0.00    +0.000 A 
ATOM     17  C   UNL     1       1.490  10.721  19.742  0.00  0.00    +0.000 A 
ATOM     18  C   UNL     1       0.867  11.799  20.377  0.00  0.00    +0.000 A 
ATOM     19  C   UNL     1      -0.425  12.176  20.010  0.00  0.00    +0.000 A 
ATOM     20  C   UNL     1      -1.092  11.484  18.999  0.00  0.00    +0.000 A 
ATOM     21  C   UNL     1      -0.459  10.426  18.343  0.00  0.00    +0.000 A 
ATOM     22 CL   UNL     1      -1.337   9.556  17.133  0.00  0.00    +0.000 Cl
ENDBRANCH  14  16
ENDBRANCH  11  12
BRANCH   1  23
ATOM     23  O   UNL     1       3.280   3.872  19.834  0.00  0.00    +0.000 OA
BRANCH  23  25
ATOM     24  C   UNL     1       3.619   2.457  17.846  0.00  0.00    +0.000 C 
ATOM     25  C   UNL     1       3.294   2.497  19.345  0.00  0.00    +0.000 C 
ATOM     26  C   UNL     1       1.975   1.793  19.691  0.00  0.00    +0.000 C 
ATOM     27  C   UNL     1       4.431   1.772  20.086  0.00  0.00    +0.000 C 
ENDBRANCH  23  25
ENDBRANCH   1  23
TORSDOF 4
ENDMDL
MODEL 9
REMARK VINA RESULT:      -7.1      2.137      4.229
REMARK  Name = 
REMARK  7 active torsions:
REMARK  status: ('A' for Active; 'I' for Inactive)
REMARK    1  A    between atoms: C_1  and  C_2
REMARK    2  A    between atoms: C_2  and  C_3
REMARK    3  A    between atoms: C_2  and  C_4
REMARK    4  A    between atoms: C_2  and  O_5
REMARK    5  A    between atoms: O_5  and  C_6
REMARK    6  A    between atoms: C_16  and  C_17
REMARK    7  A    between atoms: N_19  and  C_20
REMARK                            x       y       z     vdW  Elec       q    Type
REMARK                         _______ _______ _______ _____ _____    ______ ____
ROOT
ATOM      1  C   UNL     1       2.826   5.022  19.008  0.00  0.00    +0.000 C 
ATOM      2  O   UNL     1       1.614   5.134  18.840  0.00  0.00    +0.000 OA
ATOM      3  N   UNL     1       3.700   5.891  18.414  0.00  0.00    +0.000 N 
ATOM      4  C   UNL     1       5.106   5.948  18.439  0.00  0.00    +0.000 A 
ATOM      5  C   UNL     1       6.009   5.261  19.224  0.00  0.00    +0.000 A 
ATOM      6  C   UNL     1       7.367   5.539  19.063  0.00  0.00    +0.000 A 
ATOM      7  C   UNL     1       7.804   6.479  18.119  0.00  0.00    +0.000 A 
ATOM      8  C   UNL     1       6.886   7.159  17.318  0.00  0.00    +0.000 A 
ATOM      9  C   UNL     1       5.542   6.883  17.490  0.00  0.00    +0.000 A 
ATOM     10  C   UNL     1       4.392   7.429  16.697  0.00  0.00    +0.000 C 
ATOM     11  C   UNL     1       3.193   6.953  17.531  0.00  0.00    +0.000 C 
ENDROOT
BRANCH  11  12
ATOM     12  C   UNL     1       2.582   8.135  18.318  0.00  0.00    +0.000 C 
ATOM     13  O   UNL     1       2.943   9.291  18.096  0.00  0.00    +0.000 OA
ATOM     14  N   UNL     1       1.713   7.780  19.338  0.00  0.00    +0.000 N 
ATOM     15  H   UNL     1       1.840   6.851  19.727  0.00  0.00    +0.000 HD
BRANCH  14  16
ATOM     16  C   UNL     1       1.073   8.723  20.169  0.00  0.00    +0.000 A 
ATOM     17  C   UNL     1       1.322   8.748  21.546  0.00  0.00    +0.000 A 
ATOM     18  C   UNL     1       0.713   9.713  22.353  0.00  0.00    +0.000 A 
ATOM     19  C   UNL     1      -0.164  10.642  21.793  0.00  0.00    +0.000 A 
ATOM     20  C   UNL     1      -0.424  10.618  20.423  0.00  0.00    +0.000 A 
ATOM     21  C   UNL     1       0.208   9.673  19.610  0.00  0.00    +0.000 A 
ATOM     22 CL   UNL     1      -0.179   9.638  17.925  0.00  0.00    +0.000 Cl
ENDBRANCH  14  16
ENDBRANCH  11  12
BRANCH   1  23
ATOM     23  O   UNL     1       3.387   4.098  19.831  0.00  0.00    +0.000 OA
BRANCH  23  25
ATOM     24  C   UNL     1       3.602   2.505  17.964  0.00  0.00    +0.000 C 
ATOM     25  C   UNL     1       3.327   2.688  19.463  0.00  0.00    +0.000 C 
ATOM     26  C   UNL     1       1.992   2.075  19.906  0.00  0.00    +0.000 C 
ATOM     27  C   UNL     1       4.457   1.978  20.231  0.00  0.00    +0.000 C 
ENDBRANCH  23  25
ENDBRANCH   1  23
TORSDOF 4
ENDMDL
