MODEL 1
REMARK VINA RESULT:      -6.1      0.000      0.000
REMARK  Name = 
REMARK  10 active torsions:
REMARK  status: ('A' for Active; 'I' for Inactive)
REMARK    1  A    between atoms: C_1  and  C_2
REMARK    2  A    between atoms: C_2  and  C_3
REMARK    3  A    between atoms: C_2  and  C_4
REMARK    4  A    between atoms: C_4  and  C_5
REMARK    5  A    between atoms: C_4  and  C_10
REMARK    6  A    between atoms: C_4  and  N_13
REMARK    7  A    between atoms: C_5  and  S_6
REMARK    8  A    between atoms: S_6  and  O_9
REMARK    9  A    between atoms: C_10  and  C_11
REMARK   10  A    between atoms: C_10  and  C_12
REMARK                            x       y       z     vdW  Elec       q    Type
REMARK                         _______ _______ _______ _____ _____    ______ ____
ROOT
ATOM      1  C   UNL     1       4.549   4.949  17.950  0.00  0.00    +0.000 C 
ENDROOT
BRANCH   1   3
ATOM      2  C   UNL     1       2.442   5.888  19.297  0.00  0.00    +0.000 C 
ATOM      3  C   UNL     1       3.299   5.945  18.016  0.00  0.00    +0.000 C 
ATOM      4  C   UNL     1       3.599   7.429  17.742  0.00  0.00    +0.000 C 
ENDBRANCH   1   3
BRANCH   1   5
ATOM      5  C   UNL     1       4.061   3.415  17.948  0.00  0.00    +0.000 C 
ATOM      6  C   UNL     1       4.198   2.710  19.312  0.00  0.00    +0.000 C 
ATOM      7  C   UNL     1       2.689   3.108  17.326  0.00  0.00    +0.000 C 
ENDBRANCH   1   5
BRANCH   1   8
ATOM      8  N   UNL     1       5.374   5.115  16.693  0.00  0.00    +0.000 NA
ATOM      9 CL   UNL     1       5.828   3.707  15.748  0.00  0.00    +0.000 Cl
ATOM     10 CL   UNL     1       5.127   6.495  15.639  0.00  0.00    +0.000 Cl
ENDBRANCH   1   8
BRANCH   1  11
ATOM     11  C   UNL     1       5.566   5.239  19.118  0.00  0.00    +0.000 C 
BRANCH  11  12
ATOM     12  S   UNL     1       7.279   5.526  18.739  0.00  0.00    +0.000 S 
ATOM     13  O   UNL     1       7.892   4.343  18.170  0.00  0.00    +0.000 OA
ATOM     14  O   UNL     1       7.468   6.841  18.184  0.00  0.00    +0.000 OA
BRANCH  12  15
ATOM     15  O   UNL     1       7.843   5.591  20.255  0.00  0.00    +0.000 OA
ATOM     16  H   UNL     1       8.008   4.671  20.555  0.00  0.00    +0.000 HD
ENDBRANCH  12  15
ENDBRANCH  11  12
ENDBRANCH   1  11
TORSDOF 6
ENDMDL
MODEL 2
REMARK VINA RESULT:      -6.0      1.939      2.936
REMARK  Name = 
REMARK  10 active torsions:
REMARK  status: ('A' for Active; 'I' for Inactive)
REMARK    1  A    between atoms: C_1  and  C_2
REMARK    2  A    between atoms: C_2  and  C_3
REMARK    3  A    between atoms: C_2  and  C_4
REMARK    4  A    between atoms: C_4  and  C_5
REMARK    5  A    between atoms: C_4  and  C_10
REMARK    6  A    between atoms: C_4  and  N_13
REMARK    7  A    between atoms: C_5  and  S_6
REMARK    8  A    between atoms: S_6  and  O_9
REMARK    9  A    between atoms: C_10  and  C_11
REMARK   10  A    between atoms: C_10  and  C_12
REMARK                            x       y       z     vdW  Elec       q    Type
REMARK                         _______ _______ _______ _____ _____    ______ ____
ROOT
ATOM      1  C   UNL     1       4.865   4.910  17.836  0.00  0.00    +0.000 C 
ENDROOT
BRANCH   1   3
ATOM      2  C   UNL     1       5.947   3.772  15.675  0.00  0.00    +0.000 C 
ATOM      3  C   UNL     1       5.707   5.063  16.485  0.00  0.00    +0.000 C 
ATOM      4  C   UNL     1       5.211   6.130  15.493  0.00  0.00    +0.000 C 
ENDBRANCH   1   3
BRANCH   1   5
ATOM      5  C   UNL     1       3.597   5.901  17.837  0.00  0.00    +0.000 C 
ATOM      6  C   UNL     1       2.657   5.717  19.045  0.00  0.00    +0.000 C 
ATOM      7  C   UNL     1       3.863   7.395  17.592  0.00  0.00    +0.000 C 
ENDBRANCH   1   5
BRANCH   1   8
ATOM      8  N   UNL     1       4.296   3.521  18.026  0.00  0.00    +0.000 NA
ATOM      9 CL   UNL     1       4.414   2.729  19.588  0.00  0.00    +0.000 Cl
ATOM     10 CL   UNL     1       2.812   3.047  17.219  0.00  0.00    +0.000 Cl
ENDBRANCH   1   8
BRANCH   1  11
ATOM     11  C   UNL     1       5.779   5.126  19.101  0.00  0.00    +0.000 C 
BRANCH  11  12
ATOM     12  S   UNL     1       7.503   5.502  18.882  0.00  0.00    +0.000 S 
ATOM     13  O   UNL     1       8.213   4.379  18.306  0.00  0.00    +0.000 OA
ATOM     14  O   UNL     1       7.678   6.853  18.415  0.00  0.00    +0.000 OA
BRANCH  12  15
ATOM     15  O   UNL     1       7.938   5.506  20.442  0.00  0.00    +0.000 OA
ATOM     16  H   UNL     1       8.136   6.433  20.697  0.00  0.00    +0.000 HD
ENDBRANCH  12  15
ENDBRANCH  11  12
ENDBRANCH   1  11
TORSDOF 6
ENDMDL
MODEL 3
REMARK VINA RESULT:      -5.8      1.921      2.836
REMARK  Name = 
REMARK  10 active torsions:
REMARK  status: ('A' for Active; 'I' for Inactive)
REMARK    1  A    between atoms: C_1  and  C_2
REMARK    2  A    between atoms: C_2  and  C_3
REMARK    3  A    between atoms: C_2  and  C_4
REMARK    4  A    between atoms: C_4  and  C_5
REMARK    5  A    between atoms: C_4  and  C_10
REMARK    6  A    between atoms: C_4  and  N_13
REMARK    7  A    between atoms: C_5  and  S_6
REMARK    8  A    between atoms: S_6  and  O_9
REMARK    9  A    between atoms: C_10  and  C_11
REMARK   10  A    between atoms: C_10  and  C_12
REMARK                            x       y       z     vdW  Elec       q    Type
REMARK                         _______ _______ _______ _____ _____    ______ ____
ROOT
ATOM      1  C   UNL     1       4.847   4.984  17.691  0.00  0.00    +0.000 C 
ENDROOT
BRANCH   1   3
ATOM      2  C   UNL     1       4.372   2.985  19.398  0.00  0.00    +0.000 C 
ATOM      3  C   UNL     1       4.408   3.465  17.933  0.00  0.00    +0.000 C 
ATOM      4  C   UNL     1       3.081   3.030  17.285  0.00  0.00    +0.000 C 
ENDBRANCH   1   3
BRANCH   1   5
ATOM      5  C   UNL     1       5.655   5.134  16.308  0.00  0.00    +0.000 C 
ATOM      6  C   UNL     1       5.904   3.799  15.577  0.00  0.00    +0.000 C 
ATOM      7  C   UNL     1       5.170   6.202  15.314  0.00  0.00    +0.000 C 
ENDBRANCH   1   5
BRANCH   1   8
ATOM      8  N   UNL     1       3.672   5.930  17.581  0.00  0.00    +0.000 NA
ATOM      9 CL   UNL     1       2.130   5.504  18.305  0.00  0.00    +0.000 Cl
ATOM     10 CL   UNL     1       3.914   7.666  17.654  0.00  0.00    +0.000 Cl
ENDBRANCH   1   8
BRANCH   1  11
ATOM     11  C   UNL     1       5.671   5.536  18.915  0.00  0.00    +0.000 C 
BRANCH  11  12
ATOM     12  S   UNL     1       7.445   5.609  18.816  0.00  0.00    +0.000 S 
ATOM     13  O   UNL     1       7.988   4.384  18.266  0.00  0.00    +0.000 OA
ATOM     14  O   UNL     1       7.882   6.912  18.388  0.00  0.00    +0.000 OA
BRANCH  12  15
ATOM     15  O   UNL     1       7.768   5.524  20.400  0.00  0.00    +0.000 OA
ATOM     16  H   UNL     1       8.256   4.688  20.565  0.00  0.00    +0.000 HD
ENDBRANCH  12  15
ENDBRANCH  11  12
ENDBRANCH   1  11
TORSDOF 6
ENDMDL
MODEL 4
REMARK VINA RESULT:      -5.8      2.102      3.179
REMARK  Name = 
REMARK  10 active torsions:
REMARK  status: ('A' for Active; 'I' for Inactive)
REMARK    1  A    between atoms: C_1  and  C_2
REMARK    2  A    between atoms: C_2  and  C_3
REMARK    3  A    between atoms: C_2  and  C_4
REMARK    4  A    between atoms: C_4  and  C_5
REMARK    5  A    between atoms: C_4  and  C_10
REMARK    6  A    between atoms: C_4  and  N_13
REMARK    7  A    between atoms: C_5  and  S_6
REMARK    8  A    between atoms: S_6  and  O_9
REMARK    9  A    between atoms: C_10  and  C_11
REMARK   10  A    between atoms: C_10  and  C_12
REMARK                            x       y       z     vdW  Elec       q    Type
REMARK                         _______ _______ _______ _____ _____    ______ ____
ROOT
ATOM      1  C   UNL     1       4.419   4.757  18.209  0.00  0.00    +0.000 C 
ENDROOT
BRANCH   1   3
ATOM      2  C   UNL     1       4.657   2.729  19.931  0.00  0.00    +0.000 C 
ATOM      3  C   UNL     1       4.597   3.187  18.459  0.00  0.00    +0.000 C 
ATOM      4  C   UNL     1       3.592   2.267  17.744  0.00  0.00    +0.000 C 
ENDBRANCH   1   3
BRANCH   1   5
ATOM      5  C   UNL     1       4.605   5.114  16.651  0.00  0.00    +0.000 C 
ATOM      6  C   UNL     1       4.925   6.598  16.380  0.00  0.00    +0.000 C 
ATOM      7  C   UNL     1       5.532   4.210  15.821  0.00  0.00    +0.000 C 
ENDBRANCH   1   5
BRANCH   1   8
ATOM      8  N   UNL     1       3.044   5.264  18.582  0.00  0.00    +0.000 NA
ATOM      9 CL   UNL     1       2.849   6.889  19.217  0.00  0.00    +0.000 Cl
ATOM     10 CL   UNL     1       1.640   4.816  17.630  0.00  0.00    +0.000 Cl
ENDBRANCH   1   8
BRANCH   1  11
ATOM     11  C   UNL     1       5.396   5.590  19.123  0.00  0.00    +0.000 C 
BRANCH  11  12
ATOM     12  S   UNL     1       7.147   5.530  18.818  0.00  0.00    +0.000 S 
ATOM     13  O   UNL     1       7.543   4.233  18.306  0.00  0.00    +0.000 OA
ATOM     14  O   UNL     1       7.610   6.765  18.242  0.00  0.00    +0.000 OA
BRANCH  12  15
ATOM     15  O   UNL     1       7.649   5.534  20.357  0.00  0.00    +0.000 OA
ATOM     16  H   UNL     1       6.901   5.237  20.919  0.00  0.00    +0.000 HD
ENDBRANCH  12  15
ENDBRANCH  11  12
ENDBRANCH   1  11
TORSDOF 6
ENDMDL
MODEL 5
REMARK VINA RESULT:      -5.6      1.996      2.721
REMARK  Name = 
REMARK  10 active torsions:
REMARK  status: ('A' for Active; 'I' for Inactive)
REMARK    1  A    between atoms: C_1  and  C_2
REMARK    2  A    between atoms: C_2  and  C_3
REMARK    3  A    between atoms: C_2  and  C_4
REMARK    4  A    between atoms: C_4  and  C_5
REMARK    5  A    between atoms: C_4  and  C_10
REMARK    6  A    between atoms: C_4  and  N_13
REMARK    7  A    between atoms: C_5  and  S_6
REMARK    8  A    between atoms: S_6  and  O_9
REMARK    9  A    between atoms: C_10  and  C_11
REMARK   10  A    between atoms: C_10  and  C_12
REMARK                            x       y       z     vdW  Elec       q    Type
REMARK                         _______ _______ _______ _____ _____    ______ ____
ROOT
ATOM      1  C   UNL     1       4.270   4.789  18.326  0.00  0.00    +0.000 C 
ENDROOT
BRANCH   1   3
ATOM      2  C   UNL     1       4.699   6.766  16.582  0.00  0.00    +0.000 C 
ATOM      3  C   UNL     1       4.434   5.264  16.808  0.00  0.00    +0.000 C 
ATOM      4  C   UNL     1       5.466   4.494  15.963  0.00  0.00    +0.000 C 
ENDBRANCH   1   3
BRANCH   1   5
ATOM      5  C   UNL     1       2.763   5.022  18.840  0.00  0.00    +0.000 C 
ATOM      6  C   UNL     1       2.556   6.347  19.600  0.00  0.00    +0.000 C 
ATOM      7  C   UNL     1       1.626   4.805  17.828  0.00  0.00    +0.000 C 
ENDBRANCH   1   5
BRANCH   1   8
ATOM      8  N   UNL     1       4.543   3.314  18.519  0.00  0.00    +0.000 NA
ATOM      9 CL   UNL     1       4.834   2.677  20.129  0.00  0.00    +0.000 Cl
ATOM     10 CL   UNL     1       3.715   2.118  17.538  0.00  0.00    +0.000 Cl
ENDBRANCH   1   8
BRANCH   1  11
ATOM     11  C   UNL     1       5.324   5.499  19.258  0.00  0.00    +0.000 C 
BRANCH  11  12
ATOM     12  S   UNL     1       7.046   5.468  18.816  0.00  0.00    +0.000 S 
ATOM     13  O   UNL     1       7.426   4.174  18.287  0.00  0.00    +0.000 OA
ATOM     14  O   UNL     1       7.438   6.706  18.194  0.00  0.00    +0.000 OA
BRANCH  12  15
ATOM     15  O   UNL     1       7.668   5.499  20.310  0.00  0.00    +0.000 OA
ATOM     16  H   UNL     1       8.398   6.155  20.320  0.00  0.00    +0.000 HD
ENDBRANCH  12  15
ENDBRANCH  11  12
ENDBRANCH   1  11
TORSDOF 6
ENDMDL
MODEL 6
REMARK VINA RESULT:      -5.6      0.269      1.118
REMARK  Name = 
REMARK  10 active torsions:
REMARK  status: ('A' for Active; 'I' for Inactive)
REMARK    1  A    between atoms: C_1  and  C_2
REMARK    2  A    between atoms: C_2  and  C_3
REMARK    3  A    between atoms: C_2  and  C_4
REMARK    4  A    between atoms: C_4  and  C_5
REMARK    5  A    between atoms: C_4  and  C_10
REMARK    6  A    between atoms: C_4  and  N_13
REMARK    7  A    between atoms: C_5  and  S_6
REMARK    8  A    between atoms: S_6  and  O_9
REMARK    9  A    between atoms: C_10  and  C_11
REMARK   10  A    between atoms: C_10  and  C_12
REMARK                            x       y       z     vdW  Elec       q    Type
REMARK                         _______ _______ _______ _____ _____    ______ ____
ROOT
ATOM      1  C   UNL     1       4.393   4.829  17.941  0.00  0.00    +0.000 C 
ENDROOT
BRANCH   1   3
ATOM      2  C   UNL     1       2.360   5.880  19.320  0.00  0.00    +0.000 C 
ATOM      3  C   UNL     1       3.209   5.901  18.032  0.00  0.00    +0.000 C 
ATOM      4  C   UNL     1       3.599   7.368  17.776  0.00  0.00    +0.000 C 
ENDBRANCH   1   3
BRANCH   1   5
ATOM      5  C   UNL     1       3.806   3.339  17.788  0.00  0.00    +0.000 C 
ATOM      6  C   UNL     1       3.934   2.479  19.062  0.00  0.00    +0.000 C 
ATOM      7  C   UNL     1       2.401   3.187  17.184  0.00  0.00    +0.000 C 
ENDBRANCH   1   5
BRANCH   1   8
ATOM      8  N   UNL     1       5.291   5.038  16.742  0.00  0.00    +0.000 NA
ATOM      9 CL   UNL     1       5.824   3.660  15.794  0.00  0.00    +0.000 Cl
ATOM     10 CL   UNL     1       5.087   6.440  15.707  0.00  0.00    +0.000 Cl
ENDBRANCH   1   8
BRANCH   1  11
ATOM     11  C   UNL     1       5.364   4.954  19.175  0.00  0.00    +0.000 C 
BRANCH  11  12
ATOM     12  S   UNL     1       7.036   5.505  18.923  0.00  0.00    +0.000 S 
ATOM     13  O   UNL     1       7.087   6.593  17.967  0.00  0.00    +0.000 OA
ATOM     14  O   UNL     1       7.761   5.531  20.166  0.00  0.00    +0.000 OA
BRANCH  12  15
ATOM     15  O   UNL     1       7.583   4.218  18.109  0.00  0.00    +0.000 OA
ATOM     16  H   UNL     1       7.650   3.468  18.740  0.00  0.00    +0.000 HD
ENDBRANCH  12  15
ENDBRANCH  11  12
ENDBRANCH   1  11
TORSDOF 6
ENDMDL
MODEL 7
REMARK VINA RESULT:      -5.5      2.254      3.396
REMARK  Name = 
REMARK  10 active torsions:
REMARK  status: ('A' for Active; 'I' for Inactive)
REMARK    1  A    between atoms: C_1  and  C_2
REMARK    2  A    between atoms: C_2  and  C_3
REMARK    3  A    between atoms: C_2  and  C_4
REMARK    4  A    between atoms: C_4  and  C_5
REMARK    5  A    between atoms: C_4  and  C_10
REMARK    6  A    between atoms: C_4  and  N_13
REMARK    7  A    between atoms: C_5  and  S_6
REMARK    8  A    between atoms: S_6  and  O_9
REMARK    9  A    between atoms: C_10  and  C_11
REMARK   10  A    between atoms: C_10  and  C_12
REMARK                            x       y       z     vdW  Elec       q    Type
REMARK                         _______ _______ _______ _____ _____    ______ ____
ROOT
ATOM      1  C   UNL     1       4.281   4.686  18.258  0.00  0.00    +0.000 C 
ENDROOT
BRANCH   1   3
ATOM      2  C   UNL     1       4.582   2.674  19.988  0.00  0.00    +0.000 C 
ATOM      3  C   UNL     1       4.497   3.123  18.515  0.00  0.00    +0.000 C 
ATOM      4  C   UNL     1       3.505   2.176  17.815  0.00  0.00    +0.000 C 
ENDBRANCH   1   3
BRANCH   1   5
ATOM      5  C   UNL     1       4.448   5.039  16.697  0.00  0.00    +0.000 C 
ATOM      6  C   UNL     1       4.751   6.525  16.417  0.00  0.00    +0.000 C 
ATOM      7  C   UNL     1       5.373   4.141  15.860  0.00  0.00    +0.000 C 
ENDBRANCH   1   5
BRANCH   1   8
ATOM      8  N   UNL     1       2.896   5.164  18.637  0.00  0.00    +0.000 NA
ATOM      9 CL   UNL     1       1.513   4.721  17.650  0.00  0.00    +0.000 Cl
ATOM     10 CL   UNL     1       2.423   5.280  20.322  0.00  0.00    +0.000 Cl
ENDBRANCH   1   8
BRANCH   1  11
ATOM     11  C   UNL     1       5.244   5.546  19.160  0.00  0.00    +0.000 C 
BRANCH  11  12
ATOM     12  S   UNL     1       7.001   5.296  19.053  0.00  0.00    +0.000 S 
ATOM     13  O   UNL     1       7.619   5.372  20.361  0.00  0.00    +0.000 OA
ATOM     14  O   UNL     1       7.315   4.258  18.106  0.00  0.00    +0.000 OA
BRANCH  12  15
ATOM     15  O   UNL     1       7.390   6.694  18.334  0.00  0.00    +0.000 OA
ATOM     16  H   UNL     1       8.359   6.822  18.427  0.00  0.00    +0.000 HD
ENDBRANCH  12  15
ENDBRANCH  11  12
ENDBRANCH   1  11
TORSDOF 6
ENDMDL
MODEL 8
REMARK VINA RESULT:      -5.5      0.347      1.145
REMARK  Name = 
REMARK  10 active torsions:
REMARK  status: ('A' for Active; 'I' for Inactive)
REMARK    1  A    between atoms: C_1  and  C_2
REMARK    2  A    between atoms: C_2  and  C_3
REMARK    3  A    between atoms: C_2  and  C_4
REMARK    4  A    between atoms: C_4  and  C_5
REMARK    5  A    between atoms: C_4  and  C_10
REMARK    6  A    between atoms: C_4  and  N_13
REMARK    7  A    between atoms: C_5  and  S_6
REMARK    8  A    between atoms: S_6  and  O_9
REMARK    9  A    between atoms: C_10  and  C_11
REMARK   10  A    between atoms: C_10  and  C_12
REMARK                            x       y       z     vdW  Elec       q    Type
REMARK                         _______ _______ _______ _____ _____    ______ ____
ROOT
ATOM      1  C   UNL     1       4.383   4.978  17.992  0.00  0.00    +0.000 C 
ENDROOT
BRANCH   1   3
ATOM      2  C   UNL     1       2.045   5.447  19.196  0.00  0.00    +0.000 C 
ATOM      3  C   UNL     1       2.994   5.771  18.024  0.00  0.00    +0.000 C 
ATOM      4  C   UNL     1       3.086   7.305  17.931  0.00  0.00    +0.000 C 
ENDBRANCH   1   3
BRANCH   1   5
ATOM      5  C   UNL     1       4.135   3.388  18.016  0.00  0.00    +0.000 C 
ATOM      6  C   UNL     1       4.358   2.738  19.396  0.00  0.00    +0.000 C 
ATOM      7  C   UNL     1       2.836   2.861  17.383  0.00  0.00    +0.000 C 
ENDBRANCH   1   5
BRANCH   1   8
ATOM      8  N   UNL     1       5.189   5.245  16.740  0.00  0.00    +0.000 NA
ATOM      9 CL   UNL     1       5.536   3.937  15.622  0.00  0.00    +0.000 Cl
ATOM     10 CL   UNL     1       5.004   6.754  15.865  0.00  0.00    +0.000 Cl
ENDBRANCH   1   8
BRANCH   1  11
ATOM     11  C   UNL     1       5.327   5.442  19.164  0.00  0.00    +0.000 C 
BRANCH  11  12
ATOM     12  S   UNL     1       7.091   5.326  18.967  0.00  0.00    +0.000 S 
ATOM     13  O   UNL     1       7.770   5.512  20.233  0.00  0.00    +0.000 OA
ATOM     14  O   UNL     1       7.436   4.273  18.049  0.00  0.00    +0.000 OA
BRANCH  12  15
ATOM     15  O   UNL     1       7.325   6.715  18.169  0.00  0.00    +0.000 OA
ATOM     16  H   UNL     1       6.737   7.394  18.565  0.00  0.00    +0.000 HD
ENDBRANCH  12  15
ENDBRANCH  11  12
ENDBRANCH   1  11
TORSDOF 6
ENDMDL
MODEL 9
REMARK VINA RESULT:      -5.5      2.272      3.102
REMARK  Name = 
REMARK  10 active torsions:
REMARK  status: ('A' for Active; 'I' for Inactive)
REMARK    1  A    between atoms: C_1  and  C_2
REMARK    2  A    between atoms: C_2  and  C_3
REMARK    3  A    between atoms: C_2  and  C_4
REMARK    4  A    between atoms: C_4  and  C_5
REMARK    5  A    between atoms: C_4  and  C_10
REMARK    6  A    between atoms: C_4  and  N_13
REMARK    7  A    between atoms: C_5  and  S_6
REMARK    8  A    between atoms: S_6  and  O_9
REMARK    9  A    between atoms: C_10  and  C_11
REMARK   10  A    between atoms: C_10  and  C_12
REMARK                            x       y       z     vdW  Elec       q    Type
REMARK                         _______ _______ _______ _____ _____    ______ ____
ROOT
ATOM      1  C   UNL     1       3.432   4.155  19.133  0.00  0.00    +0.000 C 
ENDROOT
BRANCH   1   3
ATOM      2  C   UNL     1       2.950   6.682  18.415  0.00  0.00    +0.000 C 
ATOM      3  C   UNL     1       3.121   5.664  19.561  0.00  0.00    +0.000 C 
ATOM      4  C   UNL     1       1.936   5.867  20.522  0.00  0.00    +0.000 C 
ENDBRANCH   1   3
BRANCH   1   5
ATOM      5  C   UNL     1       3.633   3.221  20.428  0.00  0.00    +0.000 C 
ATOM      6  C   UNL     1       2.316   2.718  21.050  0.00  0.00    +0.000 C 
ATOM      7  C   UNL     1       4.646   2.070  20.323  0.00  0.00    +0.000 C 
ENDBRANCH   1   5
BRANCH   1   8
ATOM      8  N   UNL     1       2.310   3.520  18.343  0.00  0.00    +0.000 NA
ATOM      9 CL   UNL     1       1.198   4.527  17.430  0.00  0.00    +0.000 Cl
ATOM     10 CL   UNL     1       2.552   1.989  17.521  0.00  0.00    +0.000 Cl
ENDBRANCH   1   8
BRANCH   1  11
ATOM     11  C   UNL     1       4.671   4.087  18.162  0.00  0.00    +0.000 C 
BRANCH  11  12
ATOM     12  S   UNL     1       6.109   5.076  18.504  0.00  0.00    +0.000 S 
ATOM     13  O   UNL     1       6.144   6.254  17.662  0.00  0.00    +0.000 OA
ATOM     14  O   UNL     1       6.373   5.124  19.918  0.00  0.00    +0.000 OA
BRANCH  12  15
ATOM     15  O   UNL     1       7.224   4.087  17.872  0.00  0.00    +0.000 OA
ATOM     16  H   UNL     1       7.838   3.824  18.593  0.00  0.00    +0.000 HD
ENDBRANCH  12  15
ENDBRANCH  11  12
ENDBRANCH   1  11
TORSDOF 6
ENDMDL
