MODEL 1
REMARK VINA RESULT:      -7.4      0.000      0.000
REMARK  Name = 
REMARK  13 active torsions:
REMARK  status: ('A' for Active; 'I' for Inactive)
REMARK    1  A    between atoms: C_1  and  N_2
REMARK    2  A    between atoms: C_3  and  C_5
REMARK    3  A    between atoms: C_8  and  O_9
REMARK    4  A    between atoms: O_9  and  C_10
REMARK    5  A    between atoms: C_10  and  C_11
REMARK    6  A    between atoms: C_11  and  N_12
REMARK    7  A    between atoms: N_12  and  C_13
REMARK    8  A    between atoms: N_12  and  C_14
REMARK    9  A    between atoms: C_14  and  C_15
REMARK   10  A    between atoms: C_15  and  C_16
REMARK   11  A    between atoms: C_19  and  N_20
REMARK   12  A    between atoms: N_20  and  S_21
REMARK   13  A    between atoms: S_21  and  C_22
REMARK                            x       y       z     vdW  Elec       q    Type
REMARK                         _______ _______ _______ _____ _____    ______ ____
ROOT
ATOM      1  N   UNL     1       1.608   4.371  20.154  0.00  0.00    +0.000 NA
ATOM      2  C   UNL     1       1.501   3.541  21.361  0.00  0.00    +0.000 C 
ENDROOT
BRANCH   1   3
ATOM      3  C   UNL     1       2.429   3.714  19.114  0.00  0.00    +0.000 C 
BRANCH   3   4
ATOM      4  C   UNL     1       3.723   3.082  19.642  0.00  0.00    +0.000 C 
BRANCH   4   5
ATOM      5  O   UNL     1       4.796   4.018  19.494  0.00  0.00    +0.000 OA
BRANCH   5   9
ATOM      6  C   UNL     1       6.423   4.478  15.686  0.00  0.00    +0.000 A 
ATOM      7  C   UNL     1       7.124   4.859  16.837  0.00  0.00    +0.000 A 
ATOM      8  C   UNL     1       6.546   4.681  18.096  0.00  0.00    +0.000 A 
ATOM      9  C   UNL     1       5.263   4.144  18.213  0.00  0.00    +0.000 A 
ATOM     10  C   UNL     1       4.566   3.760  17.063  0.00  0.00    +0.000 A 
ATOM     11  C   UNL     1       5.141   3.936  15.802  0.00  0.00    +0.000 A 
BRANCH   6  14
ATOM     12  C   UNL     1       6.943   3.933  11.985  0.00  0.00    +0.000 C 
ATOM     13  N   UNL     1       6.478   3.838  13.347  0.00  0.00    +0.000 N 
ATOM     14  C   UNL     1       6.999   4.655  14.327  0.00  0.00    +0.000 C 
ATOM     15  O   UNL     1       7.862   5.500  14.124  0.00  0.00    +0.000 OA
ATOM     16  H   UNL     1       5.642   3.303  13.534  0.00  0.00    +0.000 HD
ENDBRANCH   6  14
ENDBRANCH   5   9
ENDBRANCH   4   5
ENDBRANCH   3   4
ENDBRANCH   1   3
BRANCH   1  17
ATOM     17  C   UNL     1       2.162   5.690  20.531  0.00  0.00    +0.000 C 
BRANCH  17  18
ATOM     18  C   UNL     1       2.599   6.553  19.336  0.00  0.00    +0.000 C 
BRANCH  18  19
ATOM     19  C   UNL     1       1.927   7.905  19.350  0.00  0.00    +0.000 A 
ATOM     20  C   UNL     1       1.340   8.381  20.530  0.00  0.00    +0.000 A 
ATOM     21  C   UNL     1       0.728   9.632  20.559  0.00  0.00    +0.000 A 
ATOM     22  C   UNL     1       0.683  10.409  19.405  0.00  0.00    +0.000 A 
ATOM     23  C   UNL     1       1.256   9.946  18.221  0.00  0.00    +0.000 A 
ATOM     24  C   UNL     1       1.874   8.692  18.193  0.00  0.00    +0.000 A 
BRANCH  22  25
ATOM     25  N   UNL     1       0.080  11.696  19.472  0.00  0.00    +0.000 N 
ATOM     26  H   UNL     1      -0.328  12.035  18.599  0.00  0.00    +0.000 HD
BRANCH  25  27
ATOM     27  S   UNL     1       0.974  12.937  20.196  0.00  0.00    +0.000 S 
ATOM     28  C   UNL     1       0.193  14.379  19.504  0.00  0.00    +0.000 C 
ATOM     29  O   UNL     1       0.780  12.931  21.627  0.00  0.00    +0.000 OA
ATOM     30  O   UNL     1       2.299  12.840  19.619  0.00  0.00    +0.000 OA
ENDBRANCH  25  27
ENDBRANCH  22  25
ENDBRANCH  18  19
ENDBRANCH  17  18
ENDBRANCH   1  17
TORSDOF 10
ENDMDL
MODEL 2
REMARK VINA RESULT:      -7.4      2.342      3.029
REMARK  Name = 
REMARK  13 active torsions:
REMARK  status: ('A' for Active; 'I' for Inactive)
REMARK    1  A    between atoms: C_1  and  N_2
REMARK    2  A    between atoms: C_3  and  C_5
REMARK    3  A    between atoms: C_8  and  O_9
REMARK    4  A    between atoms: O_9  and  C_10
REMARK    5  A    between atoms: C_10  and  C_11
REMARK    6  A    between atoms: C_11  and  N_12
REMARK    7  A    between atoms: N_12  and  C_13
REMARK    8  A    between atoms: N_12  and  C_14
REMARK    9  A    between atoms: C_14  and  C_15
REMARK   10  A    between atoms: C_15  and  C_16
REMARK   11  A    between atoms: C_19  and  N_20
REMARK   12  A    between atoms: N_20  and  S_21
REMARK   13  A    between atoms: S_21  and  C_22
REMARK                            x       y       z     vdW  Elec       q    Type
REMARK                         _______ _______ _______ _____ _____    ______ ____
ROOT
ATOM      1  N   UNL     1       1.459   4.346  18.909  0.00  0.00    +0.000 NA
ATOM      2  C   UNL     1       0.936   3.085  19.453  0.00  0.00    +0.000 C 
ENDROOT
BRANCH   1   3
ATOM      3  C   UNL     1       2.036   4.158  17.561  0.00  0.00    +0.000 C 
BRANCH   3   4
ATOM      4  C   UNL     1       3.220   3.181  17.515  0.00  0.00    +0.000 C 
BRANCH   4   5
ATOM      5  O   UNL     1       4.116   3.581  16.473  0.00  0.00    +0.000 OA
BRANCH   5   9
ATOM      6  C   UNL     1       6.861   6.470  17.687  0.00  0.00    +0.000 A 
ATOM      7  C   UNL     1       6.830   5.195  18.265  0.00  0.00    +0.000 A 
ATOM      8  C   UNL     1       5.899   4.252  17.824  0.00  0.00    +0.000 A 
ATOM      9  C   UNL     1       4.983   4.581  16.824  0.00  0.00    +0.000 A 
ATOM     10  C   UNL     1       5.017   5.854  16.245  0.00  0.00    +0.000 A 
ATOM     11  C   UNL     1       5.947   6.799  16.683  0.00  0.00    +0.000 A 
BRANCH   6  14
ATOM     12  C   UNL     1       8.572   9.831  17.900  0.00  0.00    +0.000 C 
ATOM     13  N   UNL     1       7.701   8.741  17.536  0.00  0.00    +0.000 N 
ATOM     14  C   UNL     1       7.832   7.505  18.131  0.00  0.00    +0.000 C 
ATOM     15  O   UNL     1       8.664   7.247  18.992  0.00  0.00    +0.000 OA
ATOM     16  H   UNL     1       6.881   8.945  16.982  0.00  0.00    +0.000 HD
ENDBRANCH   6  14
ENDBRANCH   5   9
ENDBRANCH   4   5
ENDBRANCH   3   4
ENDBRANCH   1   3
BRANCH   1  17
ATOM     17  C   UNL     1       2.456   4.895  19.854  0.00  0.00    +0.000 C 
BRANCH  17  18
ATOM     18  C   UNL     1       3.164   6.165  19.355  0.00  0.00    +0.000 C 
BRANCH  18  19
ATOM     19  C   UNL     1       2.273   7.379  19.466  0.00  0.00    +0.000 A 
ATOM     20  C   UNL     1       2.125   8.239  18.369  0.00  0.00    +0.000 A 
ATOM     21  C   UNL     1       1.296   9.356  18.454  0.00  0.00    +0.000 A 
ATOM     22  C   UNL     1       0.623   9.629  19.641  0.00  0.00    +0.000 A 
ATOM     23  C   UNL     1       0.765   8.788  20.744  0.00  0.00    +0.000 A 
ATOM     24  C   UNL     1       1.593   7.665  20.656  0.00  0.00    +0.000 A 
BRANCH  22  25
ATOM     25  N   UNL     1      -0.243  10.759  19.690  0.00  0.00    +0.000 N 
ATOM     26  H   UNL     1      -0.752  10.958  18.827  0.00  0.00    +0.000 HD
BRANCH  25  27
ATOM     27  S   UNL     1       0.391  12.196  20.318  0.00  0.00    +0.000 S 
ATOM     28  C   UNL     1       0.991  12.987  18.840  0.00  0.00    +0.000 C 
ATOM     29  O   UNL     1      -0.660  13.003  20.895  0.00  0.00    +0.000 OA
ATOM     30  O   UNL     1       1.545  11.798  21.097  0.00  0.00    +0.000 OA
ENDBRANCH  25  27
ENDBRANCH  22  25
ENDBRANCH  18  19
ENDBRANCH  17  18
ENDBRANCH   1  17
TORSDOF 10
ENDMDL
MODEL 3
REMARK VINA RESULT:      -7.2      1.981      2.614
REMARK  Name = 
REMARK  13 active torsions:
REMARK  status: ('A' for Active; 'I' for Inactive)
REMARK    1  A    between atoms: C_1  and  N_2
REMARK    2  A    between atoms: C_3  and  C_5
REMARK    3  A    between atoms: C_8  and  O_9
REMARK    4  A    between atoms: O_9  and  C_10
REMARK    5  A    between atoms: C_10  and  C_11
REMARK    6  A    between atoms: C_11  and  N_12
REMARK    7  A    between atoms: N_12  and  C_13
REMARK    8  A    between atoms: N_12  and  C_14
REMARK    9  A    between atoms: C_14  and  C_15
REMARK   10  A    between atoms: C_15  and  C_16
REMARK   11  A    between atoms: C_19  and  N_20
REMARK   12  A    between atoms: N_20  and  S_21
REMARK   13  A    between atoms: S_21  and  C_22
REMARK                            x       y       z     vdW  Elec       q    Type
REMARK                         _______ _______ _______ _____ _____    ______ ____
ROOT
ATOM      1  N   UNL     1       1.733   3.750  20.700  0.00  0.00    +0.000 NA
ATOM      2  C   UNL     1       3.195   3.825  20.812  0.00  0.00    +0.000 C 
ENDROOT
BRANCH   1   3
ATOM      3  C   UNL     1       1.317   2.902  19.562  0.00  0.00    +0.000 C 
BRANCH   3   4
ATOM      4  C   UNL     1       1.176   3.658  18.234  0.00  0.00    +0.000 C 
BRANCH   4   5
ATOM      5  O   UNL     1       2.097   3.113  17.285  0.00  0.00    +0.000 OA
BRANCH   5   9
ATOM      6  C   UNL     1       5.513   5.475  16.945  0.00  0.00    +0.000 A 
ATOM      7  C   UNL     1       4.272   6.021  17.294  0.00  0.00    +0.000 A 
ATOM      8  C   UNL     1       3.152   5.194  17.405  0.00  0.00    +0.000 A 
ATOM      9  C   UNL     1       3.258   3.827  17.148  0.00  0.00    +0.000 A 
ATOM     10  C   UNL     1       4.499   3.281  16.803  0.00  0.00    +0.000 A 
ATOM     11  C   UNL     1       5.622   4.105  16.692  0.00  0.00    +0.000 A 
BRANCH   6  14
ATOM     12  C   UNL     1       7.953   8.269  17.655  0.00  0.00    +0.000 C 
ATOM     13  N   UNL     1       6.811   7.389  17.676  0.00  0.00    +0.000 N 
ATOM     14  C   UNL     1       6.728   6.320  16.810  0.00  0.00    +0.000 C 
ATOM     15  O   UNL     1       7.592   6.039  15.989  0.00  0.00    +0.000 OA
ATOM     16  H   UNL     1       6.167   7.454  18.453  0.00  0.00    +0.000 HD
ENDBRANCH   6  14
ENDBRANCH   5   9
ENDBRANCH   4   5
ENDBRANCH   3   4
ENDBRANCH   1   3
BRANCH   1  17
ATOM     17  C   UNL     1       1.194   5.123  20.578  0.00  0.00    +0.000 C 
BRANCH  17  18
ATOM     18  C   UNL     1       2.262   6.227  20.646  0.00  0.00    +0.000 C 
BRANCH  18  19
ATOM     19  C   UNL     1       1.678   7.587  20.349  0.00  0.00    +0.000 A 
ATOM     20  C   UNL     1       1.947   8.209  19.122  0.00  0.00    +0.000 A 
ATOM     21  C   UNL     1       1.404   9.459  18.830  0.00  0.00    +0.000 A 
ATOM     22  C   UNL     1       0.602  10.102  19.768  0.00  0.00    +0.000 A 
ATOM     23  C   UNL     1       0.331   9.499  20.997  0.00  0.00    +0.000 A 
ATOM     24  C   UNL     1       0.872   8.243  21.287  0.00  0.00    +0.000 A 
BRANCH  22  25
ATOM     25  N   UNL     1       0.034  11.363  19.431  0.00  0.00    +0.000 N 
ATOM     26  H   UNL     1      -0.285  11.455  18.466  0.00  0.00    +0.000 HD
BRANCH  25  27
ATOM     27  S   UNL     1       0.898  12.748  19.876  0.00  0.00    +0.000 S 
ATOM     28  C   UNL     1      -0.418  13.824  20.405  0.00  0.00    +0.000 C 
ATOM     29  O   UNL     1       1.762  12.466  20.999  0.00  0.00    +0.000 OA
ATOM     30  O   UNL     1       1.427  13.283  18.639  0.00  0.00    +0.000 OA
ENDBRANCH  25  27
ENDBRANCH  22  25
ENDBRANCH  18  19
ENDBRANCH  17  18
ENDBRANCH   1  17
TORSDOF 10
ENDMDL
MODEL 4
REMARK VINA RESULT:      -7.0      2.330      5.081
REMARK  Name = 
REMARK  13 active torsions:
REMARK  status: ('A' for Active; 'I' for Inactive)
REMARK    1  A    between atoms: C_1  and  N_2
REMARK    2  A    between atoms: C_3  and  C_5
REMARK    3  A    between atoms: C_8  and  O_9
REMARK    4  A    between atoms: O_9  and  C_10
REMARK    5  A    between atoms: C_10  and  C_11
REMARK    6  A    between atoms: C_11  and  N_12
REMARK    7  A    between atoms: N_12  and  C_13
REMARK    8  A    between atoms: N_12  and  C_14
REMARK    9  A    between atoms: C_14  and  C_15
REMARK   10  A    between atoms: C_15  and  C_16
REMARK   11  A    between atoms: C_19  and  N_20
REMARK   12  A    between atoms: N_20  and  S_21
REMARK   13  A    between atoms: S_21  and  C_22
REMARK                            x       y       z     vdW  Elec       q    Type
REMARK                         _______ _______ _______ _____ _____    ______ ____
ROOT
ATOM      1  N   UNL     1       6.657   6.625  17.559  0.00  0.00    +0.000 NA
ATOM      2  C   UNL     1       7.865   7.338  17.997  0.00  0.00    +0.000 C 
ENDROOT
BRANCH   1   3
ATOM      3  C   UNL     1       6.910   5.824  16.342  0.00  0.00    +0.000 C 
BRANCH   3   4
ATOM      4  C   UNL     1       6.897   4.307  16.574  0.00  0.00    +0.000 C 
BRANCH   4   5
ATOM      5  O   UNL     1       5.693   3.761  16.026  0.00  0.00    +0.000 OA
BRANCH   5   9
ATOM      6  C   UNL     1       2.755   3.337  18.949  0.00  0.00    +0.000 A 
ATOM      7  C   UNL     1       4.113   3.437  19.279  0.00  0.00    +0.000 A 
ATOM      8  C   UNL     1       5.066   3.586  18.269  0.00  0.00    +0.000 A 
ATOM      9  C   UNL     1       4.675   3.614  16.930  0.00  0.00    +0.000 A 
ATOM     10  C   UNL     1       3.319   3.518  16.602  0.00  0.00    +0.000 A 
ATOM     11  C   UNL     1       2.362   3.369  17.609  0.00  0.00    +0.000 A 
BRANCH   6  14
ATOM     12  C   UNL     1       1.221   2.463  22.288  0.00  0.00    +0.000 C 
ATOM     13  N   UNL     1       2.140   2.650  21.193  0.00  0.00    +0.000 N 
ATOM     14  C   UNL     1       1.709   3.171  19.992  0.00  0.00    +0.000 C 
ATOM     15  O   UNL     1       0.554   3.512  19.772  0.00  0.00    +0.000 OA
ATOM     16  H   UNL     1       3.131   2.571  21.377  0.00  0.00    +0.000 HD
ENDBRANCH   6  14
ENDBRANCH   5   9
ENDBRANCH   4   5
ENDBRANCH   3   4
ENDBRANCH   1   3
BRANCH   1  17
ATOM     17  C   UNL     1       5.574   7.610  17.345  0.00  0.00    +0.000 C 
BRANCH  17  18
ATOM     18  C   UNL     1       4.194   6.982  17.087  0.00  0.00    +0.000 C 
BRANCH  18  19
ATOM     19  C   UNL     1       3.148   7.530  18.027  0.00  0.00    +0.000 A 
ATOM     20  C   UNL     1       2.899   6.887  19.248  0.00  0.00    +0.000 A 
ATOM     21  C   UNL     1       1.945   7.390  20.129  0.00  0.00    +0.000 A 
ATOM     22  C   UNL     1       1.221   8.529  19.790  0.00  0.00    +0.000 A 
ATOM     23  C   UNL     1       1.451   9.176  18.575  0.00  0.00    +0.000 A 
ATOM     24  C   UNL     1       2.412   8.673  17.694  0.00  0.00    +0.000 A 
BRANCH  22  25
ATOM     25  N   UNL     1       0.275   9.040  20.723  0.00  0.00    +0.000 N 
ATOM     26  H   UNL     1      -0.598   9.384  20.318  0.00  0.00    +0.000 HD
BRANCH  25  27
ATOM     27  S   UNL     1       0.838  10.145  21.874  0.00  0.00    +0.000 S 
ATOM     28  C   UNL     1      -0.692  10.739  22.564  0.00  0.00    +0.000 C 
ATOM     29  O   UNL     1       1.591   9.464  22.902  0.00  0.00    +0.000 OA
ATOM     30  O   UNL     1       1.421  11.229  21.111  0.00  0.00    +0.000 OA
ENDBRANCH  25  27
ENDBRANCH  22  25
ENDBRANCH  18  19
ENDBRANCH  17  18
ENDBRANCH   1  17
TORSDOF 10
ENDMDL
MODEL 5
REMARK VINA RESULT:      -7.0      5.927      8.575
REMARK  Name = 
REMARK  13 active torsions:
REMARK  status: ('A' for Active; 'I' for Inactive)
REMARK    1  A    between atoms: C_1  and  N_2
REMARK    2  A    between atoms: C_3  and  C_5
REMARK    3  A    between atoms: C_8  and  O_9
REMARK    4  A    between atoms: O_9  and  C_10
REMARK    5  A    between atoms: C_10  and  C_11
REMARK    6  A    between atoms: C_11  and  N_12
REMARK    7  A    between atoms: N_12  and  C_13
REMARK    8  A    between atoms: N_12  and  C_14
REMARK    9  A    between atoms: C_14  and  C_15
REMARK   10  A    between atoms: C_15  and  C_16
REMARK   11  A    between atoms: C_19  and  N_20
REMARK   12  A    between atoms: N_20  and  S_21
REMARK   13  A    between atoms: S_21  and  C_22
REMARK                            x       y       z     vdW  Elec       q    Type
REMARK                         _______ _______ _______ _____ _____    ______ ____
ROOT
ATOM      1  N   UNL     1       7.552   6.207  17.056  0.00  0.00    +0.000 NA
ATOM      2  C   UNL     1       7.664   5.080  17.992  0.00  0.00    +0.000 C 
ENDROOT
BRANCH   1   3
ATOM      3  C   UNL     1       7.145   7.449  17.748  0.00  0.00    +0.000 C 
BRANCH   3   4
ATOM      4  C   UNL     1       8.156   8.598  17.621  0.00  0.00    +0.000 C 
BRANCH   4   5
ATOM      5  O   UNL     1       8.761   8.832  18.897  0.00  0.00    +0.000 OA
BRANCH   5   9
ATOM      6  C   UNL     1      10.130  12.753  19.229  0.00  0.00    +0.000 A 
ATOM      7  C   UNL     1       9.940  12.143  17.983  0.00  0.00    +0.000 A 
ATOM      8  C   UNL     1       9.471  10.829  17.915  0.00  0.00    +0.000 A 
ATOM      9  C   UNL     1       9.213  10.111  19.083  0.00  0.00    +0.000 A 
ATOM     10  C   UNL     1       9.400  10.722  20.327  0.00  0.00    +0.000 A 
ATOM     11  C   UNL     1       9.868  12.037  20.400  0.00  0.00    +0.000 A 
BRANCH   6  14
ATOM     12  C   UNL     1      10.297  16.490  18.707  0.00  0.00    +0.000 C 
ATOM     13  N   UNL     1       9.918  15.099  18.653  0.00  0.00    +0.000 N 
ATOM     14  C   UNL     1      10.632  14.147  19.347  0.00  0.00    +0.000 C 
ATOM     15  O   UNL     1      11.605  14.399  20.047  0.00  0.00    +0.000 OA
ATOM     16  H   UNL     1       9.020  14.860  18.255  0.00  0.00    +0.000 HD
ENDBRANCH   6  14
ENDBRANCH   5   9
ENDBRANCH   4   5
ENDBRANCH   3   4
ENDBRANCH   1   3
BRANCH   1  17
ATOM     17  C   UNL     1       6.595   5.844  15.987  0.00  0.00    +0.000 C 
BRANCH  17  18
ATOM     18  C   UNL     1       5.272   6.625  16.035  0.00  0.00    +0.000 C 
BRANCH  18  19
ATOM     19  C   UNL     1       4.280   5.982  16.974  0.00  0.00    +0.000 A 
ATOM     20  C   UNL     1       3.627   6.761  17.940  0.00  0.00    +0.000 A 
ATOM     21  C   UNL     1       2.701   6.182  18.805  0.00  0.00    +0.000 A 
ATOM     22  C   UNL     1       2.432   4.819  18.721  0.00  0.00    +0.000 A 
ATOM     23  C   UNL     1       3.079   4.030  17.771  0.00  0.00    +0.000 A 
ATOM     24  C   UNL     1       4.005   4.612  16.900  0.00  0.00    +0.000 A 
BRANCH  22  25
ATOM     25  N   UNL     1       1.457   4.261  19.595  0.00  0.00    +0.000 N 
ATOM     26  H   UNL     1       0.998   4.925  20.221  0.00  0.00    +0.000 HD
BRANCH  25  27
ATOM     27  S   UNL     1       1.895   2.876  20.463  0.00  0.00    +0.000 S 
ATOM     28  C   UNL     1       1.454   1.590  19.313  0.00  0.00    +0.000 C 
ATOM     29  O   UNL     1       3.322   2.848  20.685  0.00  0.00    +0.000 OA
ATOM     30  O   UNL     1       0.962   2.808  21.570  0.00  0.00    +0.000 OA
ENDBRANCH  25  27
ENDBRANCH  22  25
ENDBRANCH  18  19
ENDBRANCH  17  18
ENDBRANCH   1  17
TORSDOF 10
ENDMDL
MODEL 6
REMARK VINA RESULT:      -6.9      2.639      7.567
REMARK  Name = 
REMARK  13 active torsions:
REMARK  status: ('A' for Active; 'I' for Inactive)
REMARK    1  A    between atoms: C_1  and  N_2
REMARK    2  A    between atoms: C_3  and  C_5
REMARK    3  A    between atoms: C_8  and  O_9
REMARK    4  A    between atoms: O_9  and  C_10
REMARK    5  A    between atoms: C_10  and  C_11
REMARK    6  A    between atoms: C_11  and  N_12
REMARK    7  A    between atoms: N_12  and  C_13
REMARK    8  A    between atoms: N_12  and  C_14
REMARK    9  A    between atoms: C_14  and  C_15
REMARK   10  A    between atoms: C_15  and  C_16
REMARK   11  A    between atoms: C_19  and  N_20
REMARK   12  A    between atoms: N_20  and  S_21
REMARK   13  A    between atoms: S_21  and  C_22
REMARK                            x       y       z     vdW  Elec       q    Type
REMARK                         _______ _______ _______ _____ _____    ______ ____
ROOT
ATOM      1  N   UNL     1       1.474   2.823  20.515  0.00  0.00    +0.000 NA
ATOM      2  C   UNL     1       0.388   3.280  19.638  0.00  0.00    +0.000 C 
ENDROOT
BRANCH   1   3
ATOM      3  C   UNL     1       2.207   3.961  21.110  0.00  0.00    +0.000 C 
BRANCH   3   4
ATOM      4  C   UNL     1       1.621   5.336  20.763  0.00  0.00    +0.000 C 
BRANCH   4   5
ATOM      5  O   UNL     1       2.546   6.042  19.929  0.00  0.00    +0.000 OA
BRANCH   5   9
ATOM      6  C   UNL     1       1.252   9.917  19.112  0.00  0.00    +0.000 A 
ATOM      7  C   UNL     1       0.962   9.285  20.327  0.00  0.00    +0.000 A 
ATOM      8  C   UNL     1       1.421   7.988  20.565  0.00  0.00    +0.000 A 
ATOM      9  C   UNL     1       2.149   7.308  19.589  0.00  0.00    +0.000 A 
ATOM     10  C   UNL     1       2.442   7.942  18.376  0.00  0.00    +0.000 A 
ATOM     11  C   UNL     1       1.985   9.240  18.135  0.00  0.00    +0.000 A 
BRANCH   6  14
ATOM     12  C   UNL     1       1.412  13.555  18.107  0.00  0.00    +0.000 C 
ATOM     13  N   UNL     1       1.753  12.194  18.440  0.00  0.00    +0.000 N 
ATOM     14  C   UNL     1       0.778  11.295  18.816  0.00  0.00    +0.000 C 
ATOM     15  O   UNL     1      -0.413  11.570  18.887  0.00  0.00    +0.000 OA
ATOM     16  H   UNL     1       2.680  11.860  18.214  0.00  0.00    +0.000 HD
ENDBRANCH   6  14
ENDBRANCH   5   9
ENDBRANCH   4   5
ENDBRANCH   3   4
ENDBRANCH   1   3
BRANCH   1  17
ATOM     17  C   UNL     1       2.376   1.944  19.738  0.00  0.00    +0.000 C 
BRANCH  17  18
ATOM     18  C   UNL     1       2.402   2.245  18.230  0.00  0.00    +0.000 C 
BRANCH  18  19
ATOM     19  C   UNL     1       3.630   3.034  17.841  0.00  0.00    +0.000 A 
ATOM     20  C   UNL     1       3.747   3.548  16.542  0.00  0.00    +0.000 A 
ATOM     21  C   UNL     1       4.869   4.287  16.175  0.00  0.00    +0.000 A 
ATOM     22  C   UNL     1       5.889   4.504  17.097  0.00  0.00    +0.000 A 
ATOM     23  C   UNL     1       5.791   3.992  18.391  0.00  0.00    +0.000 A 
ATOM     24  C   UNL     1       4.663   3.255  18.760  0.00  0.00    +0.000 A 
BRANCH  22  25
ATOM     25  N   UNL     1       7.008   5.291  16.704  0.00  0.00    +0.000 N 
ATOM     26  H   UNL     1       7.907   4.806  16.709  0.00  0.00    +0.000 HD
BRANCH  25  27
ATOM     27  S   UNL     1       7.182   6.811  17.427  0.00  0.00    +0.000 S 
ATOM     28  C   UNL     1       7.913   6.372  18.989  0.00  0.00    +0.000 C 
ATOM     29  O   UNL     1       8.112   7.624  16.678  0.00  0.00    +0.000 OA
ATOM     30  O   UNL     1       5.832   7.265  17.691  0.00  0.00    +0.000 OA
ENDBRANCH  25  27
ENDBRANCH  22  25
ENDBRANCH  18  19
ENDBRANCH  17  18
ENDBRANCH   1  17
TORSDOF 10
ENDMDL
MODEL 7
REMARK VINA RESULT:      -6.9      2.913      3.718
REMARK  Name = 
REMARK  13 active torsions:
REMARK  status: ('A' for Active; 'I' for Inactive)
REMARK    1  A    between atoms: C_1  and  N_2
REMARK    2  A    between atoms: C_3  and  C_5
REMARK    3  A    between atoms: C_8  and  O_9
REMARK    4  A    between atoms: O_9  and  C_10
REMARK    5  A    between atoms: C_10  and  C_11
REMARK    6  A    between atoms: C_11  and  N_12
REMARK    7  A    between atoms: N_12  and  C_13
REMARK    8  A    between atoms: N_12  and  C_14
REMARK    9  A    between atoms: C_14  and  C_15
REMARK   10  A    between atoms: C_15  and  C_16
REMARK   11  A    between atoms: C_19  and  N_20
REMARK   12  A    between atoms: N_20  and  S_21
REMARK   13  A    between atoms: S_21  and  C_22
REMARK                            x       y       z     vdW  Elec       q    Type
REMARK                         _______ _______ _______ _____ _____    ______ ____
ROOT
ATOM      1  N   UNL     1       2.174   8.024  19.545  0.00  0.00    +0.000 NA
ATOM      2  C   UNL     1       2.305   8.351  18.119  0.00  0.00    +0.000 C 
ENDROOT
BRANCH   1   3
ATOM      3  C   UNL     1       2.193   6.563  19.772  0.00  0.00    +0.000 C 
BRANCH   3   4
ATOM      4  C   UNL     1       3.573   5.917  19.590  0.00  0.00    +0.000 C 
BRANCH   4   5
ATOM      5  O   UNL     1       3.428   4.705  18.841  0.00  0.00    +0.000 OA
BRANCH   5   9
ATOM      6  C   UNL     1       5.879   4.711  15.472  0.00  0.00    +0.000 A 
ATOM      7  C   UNL     1       5.616   5.882  16.193  0.00  0.00    +0.000 A 
ATOM      8  C   UNL     1       4.795   5.837  17.321  0.00  0.00    +0.000 A 
ATOM      9  C   UNL     1       4.216   4.632  17.724  0.00  0.00    +0.000 A 
ATOM     10  C   UNL     1       4.483   3.462  17.005  0.00  0.00    +0.000 A 
ATOM     11  C   UNL     1       5.304   3.504  15.876  0.00  0.00    +0.000 A 
BRANCH   6  14
ATOM     12  C   UNL     1       7.080   3.832  12.001  0.00  0.00    +0.000 C 
ATOM     13  N   UNL     1       6.334   3.896  13.233  0.00  0.00    +0.000 N 
ATOM     14  C   UNL     1       6.743   4.716  14.262  0.00  0.00    +0.000 C 
ATOM     15  O   UNL     1       7.732   5.437  14.209  0.00  0.00    +0.000 OA
ATOM     16  H   UNL     1       5.414   3.478  13.262  0.00  0.00    +0.000 HD
ENDBRANCH   6  14
ENDBRANCH   5   9
ENDBRANCH   4   5
ENDBRANCH   3   4
ENDBRANCH   1   3
BRANCH   1  17
ATOM     17  C   UNL     1       0.931   8.637  20.063  0.00  0.00    +0.000 C 
BRANCH  17  18
ATOM     18  C   UNL     1       1.031   9.135  21.514  0.00  0.00    +0.000 C 
BRANCH  18  19
ATOM     19  C   UNL     1       0.042  10.240  21.794  0.00  0.00    +0.000 A 
ATOM     20  C   UNL     1      -0.691  10.235  22.989  0.00  0.00    +0.000 A 
ATOM     21  C   UNL     1      -1.598  11.256  23.264  0.00  0.00    +0.000 A 
ATOM     22  C   UNL     1      -1.792  12.279  22.341  0.00  0.00    +0.000 A 
ATOM     23  C   UNL     1      -1.077  12.293  21.143  0.00  0.00    +0.000 A 
ATOM     24  C   UNL     1      -0.163  11.272  20.870  0.00  0.00    +0.000 A 
BRANCH  22  25
ATOM     25  N   UNL     1      -2.701  13.326  22.662  0.00  0.00    +0.000 N 
ATOM     26  H   UNL     1      -2.591  13.732  23.593  0.00  0.00    +0.000 HD
BRANCH  25  27
ATOM     27  S   UNL     1      -4.342  13.052  22.356  0.00  0.00    +0.000 S 
ATOM     28  C   UNL     1      -4.998  14.703  22.464  0.00  0.00    +0.000 C 
ATOM     29  O   UNL     1      -4.530  12.552  21.014  0.00  0.00    +0.000 OA
ATOM     30  O   UNL     1      -4.828  12.315  23.505  0.00  0.00    +0.000 OA
ENDBRANCH  25  27
ENDBRANCH  22  25
ENDBRANCH  18  19
ENDBRANCH  17  18
ENDBRANCH   1  17
TORSDOF 10
ENDMDL
MODEL 8
REMARK VINA RESULT:      -6.9      2.232      3.092
REMARK  Name = 
REMARK  13 active torsions:
REMARK  status: ('A' for Active; 'I' for Inactive)
REMARK    1  A    between atoms: C_1  and  N_2
REMARK    2  A    between atoms: C_3  and  C_5
REMARK    3  A    between atoms: C_8  and  O_9
REMARK    4  A    between atoms: O_9  and  C_10
REMARK    5  A    between atoms: C_10  and  C_11
REMARK    6  A    between atoms: C_11  and  N_12
REMARK    7  A    between atoms: N_12  and  C_13
REMARK    8  A    between atoms: N_12  and  C_14
REMARK    9  A    between atoms: C_14  and  C_15
REMARK   10  A    between atoms: C_15  and  C_16
REMARK   11  A    between atoms: C_19  and  N_20
REMARK   12  A    between atoms: N_20  and  S_21
REMARK   13  A    between atoms: S_21  and  C_22
REMARK                            x       y       z     vdW  Elec       q    Type
REMARK                         _______ _______ _______ _____ _____    ______ ____
ROOT
ATOM      1  N   UNL     1       2.350   7.446  19.603  0.00  0.00    +0.000 NA
ATOM      2  C   UNL     1       2.134   8.316  18.440  0.00  0.00    +0.000 C 
ENDROOT
BRANCH   1   3
ATOM      3  C   UNL     1       2.502   6.030  19.201  0.00  0.00    +0.000 C 
BRANCH   3   4
ATOM      4  C   UNL     1       3.500   5.238  20.057  0.00  0.00    +0.000 C 
BRANCH   4   5
ATOM      5  O   UNL     1       3.820   4.014  19.389  0.00  0.00    +0.000 OA
BRANCH   5   9
ATOM      6  C   UNL     1       5.975   4.398  15.843  0.00  0.00    +0.000 A 
ATOM      7  C   UNL     1       4.691   3.839  15.868  0.00  0.00    +0.000 A 
ATOM      8  C   UNL     1       3.999   3.735  17.076  0.00  0.00    +0.000 A 
ATOM      9  C   UNL     1       4.588   4.166  18.265  0.00  0.00    +0.000 A 
ATOM     10  C   UNL     1       5.869   4.728  18.239  0.00  0.00    +0.000 A 
ATOM     11  C   UNL     1       6.565   4.834  17.032  0.00  0.00    +0.000 A 
BRANCH   6  14
ATOM     12  C   UNL     1       6.966   3.794  12.249  0.00  0.00    +0.000 C 
ATOM     13  N   UNL     1       6.308   3.744  13.532  0.00  0.00    +0.000 N 
ATOM     14  C   UNL     1       6.748   4.522  14.580  0.00  0.00    +0.000 C 
ATOM     15  O   UNL     1       7.694   5.297  14.505  0.00  0.00    +0.000 OA
ATOM     16  H   UNL     1       5.415   3.276  13.597  0.00  0.00    +0.000 HD
ENDBRANCH   6  14
ENDBRANCH   5   9
ENDBRANCH   4   5
ENDBRANCH   3   4
ENDBRANCH   1   3
BRANCH   1  17
ATOM     17  C   UNL     1       1.226   7.623  20.547  0.00  0.00    +0.000 C 
BRANCH  17  18
ATOM     18  C   UNL     1       1.538   8.554  21.730  0.00  0.00    +0.000 C 
BRANCH  18  19
ATOM     19  C   UNL     1       0.506   9.647  21.868  0.00  0.00    +0.000 A 
ATOM     20  C   UNL     1      -0.238   9.761  23.050  0.00  0.00    +0.000 A 
ATOM     21  C   UNL     1      -1.185  10.773  23.193  0.00  0.00    +0.000 A 
ATOM     22  C   UNL     1      -1.406  11.667  22.151  0.00  0.00    +0.000 A 
ATOM     23  C   UNL     1      -0.680  11.563  20.965  0.00  0.00    +0.000 A 
ATOM     24  C   UNL     1       0.273  10.550  20.823  0.00  0.00    +0.000 A 
BRANCH  22  25
ATOM     25  N   UNL     1      -2.356  12.711  22.337  0.00  0.00    +0.000 N 
ATOM     26  H   UNL     1      -3.029  12.831  21.578  0.00  0.00    +0.000 HD
BRANCH  25  27
ATOM     27  S   UNL     1      -1.766  14.223  22.813  0.00  0.00    +0.000 S 
ATOM     28  C   UNL     1      -2.669  14.488  24.325  0.00  0.00    +0.000 C 
ATOM     29  O   UNL     1      -0.354  14.145  23.110  0.00  0.00    +0.000 OA
ATOM     30  O   UNL     1      -2.275  15.159  21.832  0.00  0.00    +0.000 OA
ENDBRANCH  25  27
ENDBRANCH  22  25
ENDBRANCH  18  19
ENDBRANCH  17  18
ENDBRANCH   1  17
TORSDOF 10
ENDMDL
MODEL 9
REMARK VINA RESULT:      -6.8      2.163      2.615
REMARK  Name = 
REMARK  13 active torsions:
REMARK  status: ('A' for Active; 'I' for Inactive)
REMARK    1  A    between atoms: C_1  and  N_2
REMARK    2  A    between atoms: C_3  and  C_5
REMARK    3  A    between atoms: C_8  and  O_9
REMARK    4  A    between atoms: O_9  and  C_10
REMARK    5  A    between atoms: C_10  and  C_11
REMARK    6  A    between atoms: C_11  and  N_12
REMARK    7  A    between atoms: N_12  and  C_13
REMARK    8  A    between atoms: N_12  and  C_14
REMARK    9  A    between atoms: C_14  and  C_15
REMARK   10  A    between atoms: C_15  and  C_16
REMARK   11  A    between atoms: C_19  and  N_20
REMARK   12  A    between atoms: N_20  and  S_21
REMARK   13  A    between atoms: S_21  and  C_22
REMARK                            x       y       z     vdW  Elec       q    Type
REMARK                         _______ _______ _______ _____ _____    ______ ____
ROOT
ATOM      1  N   UNL     1       1.720   3.186  19.496  0.00  0.00    +0.000 NA
ATOM      2  C   UNL     1       0.571   2.329  19.175  0.00  0.00    +0.000 C 
ENDROOT
BRANCH   1   3
ATOM      3  C   UNL     1       2.497   2.649  20.635  0.00  0.00    +0.000 C 
BRANCH   3   4
ATOM      4  C   UNL     1       3.890   2.129  20.255  0.00  0.00    +0.000 C 
BRANCH   4   5
ATOM      5  O   UNL     1       4.042   2.197  18.833  0.00  0.00    +0.000 OA
BRANCH   5   9
ATOM      6  C   UNL     1       5.755   5.801  17.634  0.00  0.00    +0.000 A 
ATOM      7  C   UNL     1       6.036   5.232  18.882  0.00  0.00    +0.000 A 
ATOM      8  C   UNL     1       5.447   4.018  19.243  0.00  0.00    +0.000 A 
ATOM      9  C   UNL     1       4.562   3.378  18.375  0.00  0.00    +0.000 A 
ATOM     10  C   UNL     1       4.284   3.946  17.127  0.00  0.00    +0.000 A 
ATOM     11  C   UNL     1       4.872   5.160  16.762  0.00  0.00    +0.000 A 
BRANCH   6  14
ATOM     12  C   UNL     1       8.108   8.756  17.637  0.00  0.00    +0.000 C 
ATOM     13  N   UNL     1       7.429   7.526  17.962  0.00  0.00    +0.000 N 
ATOM     14  C   UNL     1       6.355   7.094  17.213  0.00  0.00    +0.000 C 
ATOM     15  O   UNL     1       5.915   7.696  16.242  0.00  0.00    +0.000 OA
ATOM     16  H   UNL     1       7.863   6.897  18.623  0.00  0.00    +0.000 HD
ENDBRANCH   6  14
ENDBRANCH   5   9
ENDBRANCH   4   5
ENDBRANCH   3   4
ENDBRANCH   1   3
BRANCH   1  17
ATOM     17  C   UNL     1       1.231   4.555  19.771  0.00  0.00    +0.000 C 
BRANCH  17  18
ATOM     18  C   UNL     1       2.324   5.533  20.234  0.00  0.00    +0.000 C 
BRANCH  18  19
ATOM     19  C   UNL     1       2.063   6.935  19.741  0.00  0.00    +0.000 A 
ATOM     20  C   UNL     1       1.398   7.853  20.566  0.00  0.00    +0.000 A 
ATOM     21  C   UNL     1       1.162   9.154  20.128  0.00  0.00    +0.000 A 
ATOM     22  C   UNL     1       1.572   9.542  18.856  0.00  0.00    +0.000 A 
ATOM     23  C   UNL     1       2.226   8.638  18.019  0.00  0.00    +0.000 A 
ATOM     24  C   UNL     1       2.468   7.334  18.461  0.00  0.00    +0.000 A 
BRANCH  22  25
ATOM     25  N   UNL     1       1.346  10.886  18.446  0.00  0.00    +0.000 N 
ATOM     26  H   UNL     1       2.186  11.425  18.228  0.00  0.00    +0.000 HD
BRANCH  25  27
ATOM     27  S   UNL     1       0.303  11.823  19.393  0.00  0.00    +0.000 S 
ATOM     28  C   UNL     1       0.178  13.304  18.413  0.00  0.00    +0.000 C 
ATOM     29  O   UNL     1      -0.997  11.200  19.482  0.00  0.00    +0.000 OA
ATOM     30  O   UNL     1       1.059  12.152  20.584  0.00  0.00    +0.000 OA
ENDBRANCH  25  27
ENDBRANCH  22  25
ENDBRANCH  18  19
ENDBRANCH  17  18
ENDBRANCH   1  17
TORSDOF 10
ENDMDL
