MODEL 1
REMARK VINA RESULT:      -7.1      0.000      0.000
REMARK  Name = 
REMARK  11 active torsions:
REMARK  status: ('A' for Active; 'I' for Inactive)
REMARK    1  A    between atoms: C_1  and  N_2
REMARK    2  A    between atoms: N_2  and  C_3
REMARK    3  A    between atoms: N_2  and  N_5
REMARK    4  A    between atoms: N_5  and  C_6
REMARK    5  A    between atoms: C_7  and  C_9
REMARK    6  A    between atoms: C_9  and  C_10
REMARK    7  A    between atoms: C_9  and  N_17
REMARK    8  A    between atoms: C_10  and  C_11
REMARK    9  A    between atoms: C_18  and  O_20
REMARK   10  A    between atoms: O_20  and  C_21
REMARK   11  A    between atoms: C_21  and  C_22
REMARK                            x       y       z     vdW  Elec       q    Type
REMARK                         _______ _______ _______ _____ _____    ______ ____
ROOT
ATOM      1  C   UNL     1       4.487   5.828  17.112  0.00  0.00    +0.000 C 
ENDROOT
BRANCH   1   4
ATOM      2  N   UNL     1       5.602   4.495  15.259  0.00  0.00    +0.000 N 
ATOM      3  C   UNL     1       5.344   3.207  15.906  0.00  0.00    +0.000 C 
ATOM      4  C   UNL     1       5.271   5.746  15.776  0.00  0.00    +0.000 C 
ATOM      5  O   UNL     1       5.595   6.806  15.223  0.00  0.00    +0.000 OA
BRANCH   2   7
ATOM      6  C   UNL     1       7.617   5.088  13.707  0.00  0.00    +0.000 C 
ATOM      7  N   UNL     1       6.316   4.397  13.915  0.00  0.00    +0.000 N 
BRANCH   7   8
ATOM      8  C   UNL     1       5.680   3.803  12.895  0.00  0.00    +0.000 C 
ATOM      9  N   UNL     1       5.112   3.283  12.027  0.00  0.00    +0.000 NA
ENDBRANCH   7   8
ENDBRANCH   2   7
ENDBRANCH   1   4
BRANCH   1  10
ATOM     10  N   UNL     1       5.538   5.905  18.139  0.00  0.00    +0.000 N 
ATOM     11  C   UNL     1       5.926   5.010  19.076  0.00  0.00    +0.000 C 
ATOM     12  O   UNL     1       6.686   5.323  19.982  0.00  0.00    +0.000 OA
ATOM     13  H   UNL     1       5.919   6.828  18.316  0.00  0.00    +0.000 HD
BRANCH  11  14
ATOM     14  O   UNL     1       5.425   3.783  18.852  0.00  0.00    +0.000 OA
BRANCH  14  15
ATOM     15  C   UNL     1       4.923   3.106  19.998  0.00  0.00    +0.000 C 
BRANCH  15  16
ATOM     16  C   UNL     1       3.425   3.106  19.870  0.00  0.00    +0.000 A 
ATOM     17  C   UNL     1       2.625   3.154  21.016  0.00  0.00    +0.000 A 
ATOM     18  C   UNL     1       1.239   3.074  20.906  0.00  0.00    +0.000 A 
ATOM     19  C   UNL     1       0.644   2.933  19.653  0.00  0.00    +0.000 A 
ATOM     20  C   UNL     1       1.432   2.862  18.507  0.00  0.00    +0.000 A 
ATOM     21  C   UNL     1       2.819   2.946  18.614  0.00  0.00    +0.000 A 
ENDBRANCH  15  16
ENDBRANCH  14  15
ENDBRANCH  11  14
ENDBRANCH   1  10
BRANCH   1  22
ATOM     22  C   UNL     1       3.376   6.906  17.110  0.00  0.00    +0.000 C 
BRANCH  22  23
ATOM     23  C   UNL     1       2.639   7.289  18.381  0.00  0.00    +0.000 A 
ATOM     24  C   UNL     1       2.497   6.447  19.489  0.00  0.00    +0.000 A 
ATOM     25  C   UNL     1       1.835   6.878  20.642  0.00  0.00    +0.000 A 
ATOM     26  C   UNL     1       1.293   8.157  20.703  0.00  0.00    +0.000 A 
ATOM     27  C   UNL     1       1.394   9.000  19.601  0.00  0.00    +0.000 A 
ATOM     28  C   UNL     1       2.060   8.570  18.451  0.00  0.00    +0.000 A 
ENDBRANCH  22  23
ENDBRANCH   1  22
TORSDOF 9
ENDMDL
MODEL 2
REMARK VINA RESULT:      -7.1      0.151      1.317
REMARK  Name = 
REMARK  11 active torsions:
REMARK  status: ('A' for Active; 'I' for Inactive)
REMARK    1  A    between atoms: C_1  and  N_2
REMARK    2  A    between atoms: N_2  and  C_3
REMARK    3  A    between atoms: N_2  and  N_5
REMARK    4  A    between atoms: N_5  and  C_6
REMARK    5  A    between atoms: C_7  and  C_9
REMARK    6  A    between atoms: C_9  and  C_10
REMARK    7  A    between atoms: C_9  and  N_17
REMARK    8  A    between atoms: C_10  and  C_11
REMARK    9  A    between atoms: C_18  and  O_20
REMARK   10  A    between atoms: O_20  and  C_21
REMARK   11  A    between atoms: C_21  and  C_22
REMARK                            x       y       z     vdW  Elec       q    Type
REMARK                         _______ _______ _______ _____ _____    ______ ____
ROOT
ATOM      1  C   UNL     1       4.435   5.824  17.152  0.00  0.00    +0.000 C 
ENDROOT
BRANCH   1   4
ATOM      2  N   UNL     1       5.550   4.488  15.300  0.00  0.00    +0.000 N 
ATOM      3  C   UNL     1       5.330   3.204  15.969  0.00  0.00    +0.000 C 
ATOM      4  C   UNL     1       5.200   5.739  15.805  0.00  0.00    +0.000 C 
ATOM      5  O   UNL     1       5.492   6.798  15.232  0.00  0.00    +0.000 OA
BRANCH   2   7
ATOM      6  C   UNL     1       7.542   5.079  13.718  0.00  0.00    +0.000 C 
ATOM      7  N   UNL     1       6.246   4.386  13.947  0.00  0.00    +0.000 N 
BRANCH   7   8
ATOM      8  C   UNL     1       5.597   3.786  12.939  0.00  0.00    +0.000 C 
ATOM      9  N   UNL     1       5.052   3.271  12.053  0.00  0.00    +0.000 NA
ENDBRANCH   7   8
ENDBRANCH   2   7
ENDBRANCH   1   4
BRANCH   1  10
ATOM     10  N   UNL     1       5.500   5.882  18.165  0.00  0.00    +0.000 N 
ATOM     11  C   UNL     1       5.889   4.976  19.091  0.00  0.00    +0.000 C 
ATOM     12  O   UNL     1       6.665   5.274  19.989  0.00  0.00    +0.000 OA
ATOM     13  H   UNL     1       5.893   6.799  18.343  0.00  0.00    +0.000 HD
BRANCH  11  14
ATOM     14  O   UNL     1       5.371   3.756  18.865  0.00  0.00    +0.000 OA
BRANCH  14  15
ATOM     15  C   UNL     1       4.926   3.055  20.020  0.00  0.00    +0.000 C 
BRANCH  15  16
ATOM     16  C   UNL     1       3.434   2.919  19.887  0.00  0.00    +0.000 A 
ATOM     17  C   UNL     1       2.848   2.846  18.620  0.00  0.00    +0.000 A 
ATOM     18  C   UNL     1       1.462   2.800  18.492  0.00  0.00    +0.000 A 
ATOM     19  C   UNL     1       0.652   2.838  19.626  0.00  0.00    +0.000 A 
ATOM     20  C   UNL     1       1.225   2.933  20.892  0.00  0.00    +0.000 A 
ATOM     21  C   UNL     1       2.612   2.975  21.024  0.00  0.00    +0.000 A 
ENDBRANCH  15  16
ENDBRANCH  14  15
ENDBRANCH  11  14
ENDBRANCH   1  10
BRANCH   1  22
ATOM     22  C   UNL     1       3.337   6.916  17.170  0.00  0.00    +0.000 C 
BRANCH  22  23
ATOM     23  C   UNL     1       2.615   7.295  18.451  0.00  0.00    +0.000 A 
ATOM     24  C   UNL     1       2.093   8.566  18.710  0.00  0.00    +0.000 A 
ATOM     25  C   UNL     1       1.408   8.836  19.897  0.00  0.00    +0.000 A 
ATOM     26  C   UNL     1       1.243   7.840  20.855  0.00  0.00    +0.000 A 
ATOM     27  C   UNL     1       1.783   6.577  20.632  0.00  0.00    +0.000 A 
ATOM     28  C   UNL     1       2.463   6.307  19.442  0.00  0.00    +0.000 A 
ENDBRANCH  22  23
ENDBRANCH   1  22
TORSDOF 9
ENDMDL
MODEL 3
REMARK VINA RESULT:      -7.1      2.430      5.390
REMARK  Name = 
REMARK  11 active torsions:
REMARK  status: ('A' for Active; 'I' for Inactive)
REMARK    1  A    between atoms: C_1  and  N_2
REMARK    2  A    between atoms: N_2  and  C_3
REMARK    3  A    between atoms: N_2  and  N_5
REMARK    4  A    between atoms: N_5  and  C_6
REMARK    5  A    between atoms: C_7  and  C_9
REMARK    6  A    between atoms: C_9  and  C_10
REMARK    7  A    between atoms: C_9  and  N_17
REMARK    8  A    between atoms: C_10  and  C_11
REMARK    9  A    between atoms: C_18  and  O_20
REMARK   10  A    between atoms: O_20  and  C_21
REMARK   11  A    between atoms: C_21  and  C_22
REMARK                            x       y       z     vdW  Elec       q    Type
REMARK                         _______ _______ _______ _____ _____    ______ ____
ROOT
ATOM      1  C   UNL     1       3.193   6.772  18.103  0.00  0.00    +0.000 C 
ENDROOT
BRANCH   1   4
ATOM      2  N   UNL     1       5.210   5.231  17.987  0.00  0.00    +0.000 N 
ATOM      3  C   UNL     1       5.021   4.731  19.351  0.00  0.00    +0.000 C 
ATOM      4  C   UNL     1       4.430   6.201  17.361  0.00  0.00    +0.000 C 
ATOM      5  O   UNL     1       4.694   6.649  16.236  0.00  0.00    +0.000 OA
BRANCH   2   7
ATOM      6  C   UNL     1       7.759   4.687  17.825  0.00  0.00    +0.000 C 
ATOM      7  N   UNL     1       6.391   4.615  17.245  0.00  0.00    +0.000 N 
BRANCH   7   8
ATOM      8  C   UNL     1       6.191   4.143  16.006  0.00  0.00    +0.000 C 
ATOM      9  N   UNL     1       6.029   3.716  14.940  0.00  0.00    +0.000 NA
ENDBRANCH   7   8
ENDBRANCH   2   7
ENDBRANCH   1   4
BRANCH   1  10
ATOM     10  N   UNL     1       3.147   8.184  17.690  0.00  0.00    +0.000 N 
ATOM     11  C   UNL     1       2.291   9.176  18.026  0.00  0.00    +0.000 C 
ATOM     12  O   UNL     1       2.284  10.242  17.425  0.00  0.00    +0.000 OA
ATOM     13  H   UNL     1       3.718   8.430  16.889  0.00  0.00    +0.000 HD
BRANCH  11  14
ATOM     14  O   UNL     1       1.528   8.859  19.085  0.00  0.00    +0.000 OA
BRANCH  14  15
ATOM     15  C   UNL     1       0.240   9.462  19.116  0.00  0.00    +0.000 C 
BRANCH  15  16
ATOM     16  C   UNL     1      -0.053   9.769  20.559  0.00  0.00    +0.000 A 
ATOM     17  C   UNL     1      -0.128   8.732  21.494  0.00  0.00    +0.000 A 
ATOM     18  C   UNL     1      -0.477   9.005  22.814  0.00  0.00    +0.000 A 
ATOM     19  C   UNL     1      -0.765  10.311  23.206  0.00  0.00    +0.000 A 
ATOM     20  C   UNL     1      -0.715  11.349  22.277  0.00  0.00    +0.000 A 
ATOM     21  C   UNL     1      -0.361  11.079  20.957  0.00  0.00    +0.000 A 
ENDBRANCH  15  16
ENDBRANCH  14  15
ENDBRANCH  11  14
ENDBRANCH   1  10
BRANCH   1  22
ATOM     22  C   UNL     1       1.919   5.911  17.932  0.00  0.00    +0.000 C 
BRANCH  22  23
ATOM     23  C   UNL     1       1.697   4.649  18.748  0.00  0.00    +0.000 A 
ATOM     24  C   UNL     1       1.654   3.362  18.204  0.00  0.00    +0.000 A 
ATOM     25  C   UNL     1       1.482   2.240  19.020  0.00  0.00    +0.000 A 
ATOM     26  C   UNL     1       1.337   2.388  20.395  0.00  0.00    +0.000 A 
ATOM     27  C   UNL     1       1.345   3.662  20.954  0.00  0.00    +0.000 A 
ATOM     28  C   UNL     1       1.522   4.783  20.138  0.00  0.00    +0.000 A 
ENDBRANCH  22  23
ENDBRANCH   1  22
TORSDOF 9
ENDMDL
MODEL 4
REMARK VINA RESULT:      -6.9      1.809      3.713
REMARK  Name = 
REMARK  11 active torsions:
REMARK  status: ('A' for Active; 'I' for Inactive)
REMARK    1  A    between atoms: C_1  and  N_2
REMARK    2  A    between atoms: N_2  and  C_3
REMARK    3  A    between atoms: N_2  and  N_5
REMARK    4  A    between atoms: N_5  and  C_6
REMARK    5  A    between atoms: C_7  and  C_9
REMARK    6  A    between atoms: C_9  and  C_10
REMARK    7  A    between atoms: C_9  and  N_17
REMARK    8  A    between atoms: C_10  and  C_11
REMARK    9  A    between atoms: C_18  and  O_20
REMARK   10  A    between atoms: O_20  and  C_21
REMARK   11  A    between atoms: C_21  and  C_22
REMARK                            x       y       z     vdW  Elec       q    Type
REMARK                         _______ _______ _______ _____ _____    ______ ____
ROOT
ATOM      1  C   UNL     1       5.258   6.511  17.542  0.00  0.00    +0.000 C 
ENDROOT
BRANCH   1   4
ATOM      2  N   UNL     1       6.573   5.236  15.781  0.00  0.00    +0.000 N 
ATOM      3  C   UNL     1       7.450   4.598  16.766  0.00  0.00    +0.000 C 
ATOM      4  C   UNL     1       5.568   6.159  16.063  0.00  0.00    +0.000 C 
ATOM      5  O   UNL     1       4.919   6.733  15.178  0.00  0.00    +0.000 OA
BRANCH   2   7
ATOM      6  C   UNL     1       6.103   3.701  13.721  0.00  0.00    +0.000 C 
ATOM      7  N   UNL     1       6.847   4.833  14.336  0.00  0.00    +0.000 N 
BRANCH   7   8
ATOM      8  C   UNL     1       7.862   5.424  13.690  0.00  0.00    +0.000 C 
ATOM      9  N   UNL     1       8.747   5.945  13.150  0.00  0.00    +0.000 NA
ENDBRANCH   7   8
ENDBRANCH   2   7
ENDBRANCH   1   4
BRANCH   1  10
ATOM     10  N   UNL     1       4.062   7.365  17.463  0.00  0.00    +0.000 N 
ATOM     11  C   UNL     1       2.961   7.417  18.246  0.00  0.00    +0.000 C 
ATOM     12  O   UNL     1       1.970   8.053  17.911  0.00  0.00    +0.000 OA
ATOM     13  H   UNL     1       3.933   7.868  16.593  0.00  0.00    +0.000 HD
BRANCH  11  14
ATOM     14  O   UNL     1       3.120   6.751  19.403  0.00  0.00    +0.000 OA
BRANCH  14  15
ATOM     15  C   UNL     1       1.989   6.739  20.265  0.00  0.00    +0.000 C 
BRANCH  15  16
ATOM     16  C   UNL     1       1.728   5.297  20.606  0.00  0.00    +0.000 A 
ATOM     17  C   UNL     1       2.525   4.646  21.552  0.00  0.00    +0.000 A 
ATOM     18  C   UNL     1       2.337   3.291  21.811  0.00  0.00    +0.000 A 
ATOM     19  C   UNL     1       1.362   2.575  21.119  0.00  0.00    +0.000 A 
ATOM     20  C   UNL     1       0.577   3.208  20.158  0.00  0.00    +0.000 A 
ATOM     21  C   UNL     1       0.760   4.566  19.900  0.00  0.00    +0.000 A 
ENDBRANCH  15  16
ENDBRANCH  14  15
ENDBRANCH  11  14
ENDBRANCH   1  10
BRANCH   1  22
ATOM     22  C   UNL     1       5.225   5.277  18.476  0.00  0.00    +0.000 C 
BRANCH  22  23
ATOM     23  C   UNL     1       4.315   4.095  18.198  0.00  0.00    +0.000 A 
ATOM     24  C   UNL     1       3.283   4.105  17.253  0.00  0.00    +0.000 A 
ATOM     25  C   UNL     1       2.506   2.967  17.023  0.00  0.00    +0.000 A 
ATOM     26  C   UNL     1       2.738   1.800  17.743  0.00  0.00    +0.000 A 
ATOM     27  C   UNL     1       3.738   1.778  18.710  0.00  0.00    +0.000 A 
ATOM     28  C   UNL     1       4.518   2.914  18.936  0.00  0.00    +0.000 A 
ENDBRANCH  22  23
ENDBRANCH   1  22
TORSDOF 9
ENDMDL
MODEL 5
REMARK VINA RESULT:      -6.9      1.829      3.676
REMARK  Name = 
REMARK  11 active torsions:
REMARK  status: ('A' for Active; 'I' for Inactive)
REMARK    1  A    between atoms: C_1  and  N_2
REMARK    2  A    between atoms: N_2  and  C_3
REMARK    3  A    between atoms: N_2  and  N_5
REMARK    4  A    between atoms: N_5  and  C_6
REMARK    5  A    between atoms: C_7  and  C_9
REMARK    6  A    between atoms: C_9  and  C_10
REMARK    7  A    between atoms: C_9  and  N_17
REMARK    8  A    between atoms: C_10  and  C_11
REMARK    9  A    between atoms: C_18  and  O_20
REMARK   10  A    between atoms: O_20  and  C_21
REMARK   11  A    between atoms: C_21  and  C_22
REMARK                            x       y       z     vdW  Elec       q    Type
REMARK                         _______ _______ _______ _____ _____    ______ ____
ROOT
ATOM      1  C   UNL     1       5.206   6.532  17.576  0.00  0.00    +0.000 C 
ENDROOT
BRANCH   1   4
ATOM      2  N   UNL     1       6.539   5.238  15.843  0.00  0.00    +0.000 N 
ATOM      3  C   UNL     1       7.408   4.614  16.844  0.00  0.00    +0.000 C 
ATOM      4  C   UNL     1       5.530   6.162  16.104  0.00  0.00    +0.000 C 
ATOM      5  O   UNL     1       4.887   6.723  15.206  0.00  0.00    +0.000 OA
BRANCH   2   7
ATOM      6  C   UNL     1       6.098   3.670  13.802  0.00  0.00    +0.000 C 
ATOM      7  N   UNL     1       6.826   4.818  14.405  0.00  0.00    +0.000 N 
BRANCH   7   8
ATOM      8  C   UNL     1       7.840   5.409  13.758  0.00  0.00    +0.000 C 
ATOM      9  N   UNL     1       8.723   5.933  13.216  0.00  0.00    +0.000 NA
ENDBRANCH   7   8
ENDBRANCH   2   7
ENDBRANCH   1   4
BRANCH   1  10
ATOM     10  N   UNL     1       4.006   7.377  17.477  0.00  0.00    +0.000 N 
ATOM     11  C   UNL     1       2.923   7.473  18.282  0.00  0.00    +0.000 C 
ATOM     12  O   UNL     1       1.922   8.085  17.934  0.00  0.00    +0.000 OA
ATOM     13  H   UNL     1       3.854   7.828  16.582  0.00  0.00    +0.000 HD
BRANCH  11  14
ATOM     14  O   UNL     1       3.112   6.875  19.471  0.00  0.00    +0.000 OA
BRANCH  14  15
ATOM     15  C   UNL     1       1.949   6.728  20.276  0.00  0.00    +0.000 C 
BRANCH  15  16
ATOM     16  C   UNL     1       1.794   5.255  20.537  0.00  0.00    +0.000 A 
ATOM     17  C   UNL     1       0.753   4.543  19.935  0.00  0.00    +0.000 A 
ATOM     18  C   UNL     1       0.559   3.197  20.237  0.00  0.00    +0.000 A 
ATOM     19  C   UNL     1       1.395   2.558  21.150  0.00  0.00    +0.000 A 
ATOM     20  C   UNL     1       2.422   3.264  21.773  0.00  0.00    +0.000 A 
ATOM     21  C   UNL     1       2.621   4.609  21.470  0.00  0.00    +0.000 A 
ENDBRANCH  15  16
ENDBRANCH  14  15
ENDBRANCH  11  14
ENDBRANCH   1  10
BRANCH   1  22
ATOM     22  C   UNL     1       5.173   5.310  18.526  0.00  0.00    +0.000 C 
BRANCH  22  23
ATOM     23  C   UNL     1       4.318   4.092  18.224  0.00  0.00    +0.000 A 
ATOM     24  C   UNL     1       4.511   2.835  18.807  0.00  0.00    +0.000 A 
ATOM     25  C   UNL     1       3.664   1.765  18.509  0.00  0.00    +0.000 A 
ATOM     26  C   UNL     1       2.613   1.930  17.612  0.00  0.00    +0.000 A 
ATOM     27  C   UNL     1       2.422   3.163  16.997  0.00  0.00    +0.000 A 
ATOM     28  C   UNL     1       3.267   4.233  17.299  0.00  0.00    +0.000 A 
ENDBRANCH  22  23
ENDBRANCH   1  22
TORSDOF 9
ENDMDL
MODEL 6
REMARK VINA RESULT:      -6.8      0.688      1.735
REMARK  Name = 
REMARK  11 active torsions:
REMARK  status: ('A' for Active; 'I' for Inactive)
REMARK    1  A    between atoms: C_1  and  N_2
REMARK    2  A    between atoms: N_2  and  C_3
REMARK    3  A    between atoms: N_2  and  N_5
REMARK    4  A    between atoms: N_5  and  C_6
REMARK    5  A    between atoms: C_7  and  C_9
REMARK    6  A    between atoms: C_9  and  C_10
REMARK    7  A    between atoms: C_9  and  N_17
REMARK    8  A    between atoms: C_10  and  C_11
REMARK    9  A    between atoms: C_18  and  O_20
REMARK   10  A    between atoms: O_20  and  C_21
REMARK   11  A    between atoms: C_21  and  C_22
REMARK                            x       y       z     vdW  Elec       q    Type
REMARK                         _______ _______ _______ _____ _____    ______ ____
ROOT
ATOM      1  C   UNL     1       4.707   6.117  17.197  0.00  0.00    +0.000 C 
ENDROOT
BRANCH   1   4
ATOM      2  N   UNL     1       5.691   4.712  15.323  0.00  0.00    +0.000 N 
ATOM      3  C   UNL     1       5.794   3.511  16.154  0.00  0.00    +0.000 C 
ATOM      4  C   UNL     1       5.237   5.959  15.748  0.00  0.00    +0.000 C 
ATOM      5  O   UNL     1       5.256   6.962  15.020  0.00  0.00    +0.000 OA
BRANCH   2   7
ATOM      6  C   UNL     1       5.424   3.604  12.973  0.00  0.00    +0.000 C 
ATOM      7  N   UNL     1       6.155   4.527  13.882  0.00  0.00    +0.000 N 
BRANCH   7   8
ATOM      8  C   UNL     1       7.308   5.097  13.505  0.00  0.00    +0.000 C 
ATOM      9  N   UNL     1       8.317   5.581  13.196  0.00  0.00    +0.000 NA
ENDBRANCH   7   8
ENDBRANCH   2   7
ENDBRANCH   1   4
BRANCH   1  10
ATOM     10  N   UNL     1       5.897   5.912  18.037  0.00  0.00    +0.000 N 
ATOM     11  C   UNL     1       6.019   5.423  19.293  0.00  0.00    +0.000 C 
ATOM     12  O   UNL     1       7.070   5.514  19.913  0.00  0.00    +0.000 OA
ATOM     13  H   UNL     1       6.745   6.372  17.725  0.00  0.00    +0.000 HD
BRANCH  11  14
ATOM     14  O   UNL     1       4.899   4.813  19.718  0.00  0.00    +0.000 OA
BRANCH  14  15
ATOM     15  C   UNL     1       4.850   3.407  19.510  0.00  0.00    +0.000 C 
BRANCH  15  16
ATOM     16  C   UNL     1       3.397   3.021  19.545  0.00  0.00    +0.000 A 
ATOM     17  C   UNL     1       2.676   2.899  18.353  0.00  0.00    +0.000 A 
ATOM     18  C   UNL     1       1.312   2.620  18.386  0.00  0.00    +0.000 A 
ATOM     19  C   UNL     1       0.657   2.474  19.607  0.00  0.00    +0.000 A 
ATOM     20  C   UNL     1       1.361   2.615  20.801  0.00  0.00    +0.000 A 
ATOM     21  C   UNL     1       2.727   2.890  20.772  0.00  0.00    +0.000 A 
ENDBRANCH  15  16
ENDBRANCH  14  15
ENDBRANCH  11  14
ENDBRANCH   1  10
BRANCH   1  22
ATOM     22  C   UNL     1       3.864   7.398  17.410  0.00  0.00    +0.000 C 
BRANCH  22  23
ATOM     23  C   UNL     1       2.887   7.523  18.565  0.00  0.00    +0.000 A 
ATOM     24  C   UNL     1       2.179   8.691  18.870  0.00  0.00    +0.000 A 
ATOM     25  C   UNL     1       1.267   8.725  19.928  0.00  0.00    +0.000 A 
ATOM     26  C   UNL     1       1.055   7.593  20.708  0.00  0.00    +0.000 A 
ATOM     27  C   UNL     1       1.771   6.430  20.442  0.00  0.00    +0.000 A 
ATOM     28  C   UNL     1       2.679   6.396  19.381  0.00  0.00    +0.000 A 
ENDBRANCH  22  23
ENDBRANCH   1  22
TORSDOF 9
ENDMDL
MODEL 7
REMARK VINA RESULT:      -6.7      2.380      5.412
REMARK  Name = 
REMARK  11 active torsions:
REMARK  status: ('A' for Active; 'I' for Inactive)
REMARK    1  A    between atoms: C_1  and  N_2
REMARK    2  A    between atoms: N_2  and  C_3
REMARK    3  A    between atoms: N_2  and  N_5
REMARK    4  A    between atoms: N_5  and  C_6
REMARK    5  A    between atoms: C_7  and  C_9
REMARK    6  A    between atoms: C_9  and  C_10
REMARK    7  A    between atoms: C_9  and  N_17
REMARK    8  A    between atoms: C_10  and  C_11
REMARK    9  A    between atoms: C_18  and  O_20
REMARK   10  A    between atoms: O_20  and  C_21
REMARK   11  A    between atoms: C_21  and  C_22
REMARK                            x       y       z     vdW  Elec       q    Type
REMARK                         _______ _______ _______ _____ _____    ______ ____
ROOT
ATOM      1  C   UNL     1       3.233   6.880  18.174  0.00  0.00    +0.000 C 
ENDROOT
BRANCH   1   4
ATOM      2  N   UNL     1       5.158   5.258  17.823  0.00  0.00    +0.000 N 
ATOM      3  C   UNL     1       5.075   4.722  19.183  0.00  0.00    +0.000 C 
ATOM      4  C   UNL     1       4.368   6.281  17.302  0.00  0.00    +0.000 C 
ATOM      5  O   UNL     1       4.546   6.753  16.170  0.00  0.00    +0.000 OA
BRANCH   2   7
ATOM      6  C   UNL     1       5.896   4.096  15.604  0.00  0.00    +0.000 C 
ATOM      7  N   UNL     1       6.235   4.617  16.954  0.00  0.00    +0.000 N 
BRANCH   7   8
ATOM      8  C   UNL     1       7.446   4.408  17.491  0.00  0.00    +0.000 C 
ATOM      9  N   UNL     1       8.490   4.244  17.970  0.00  0.00    +0.000 NA
ENDBRANCH   7   8
ENDBRANCH   2   7
ENDBRANCH   1   4
BRANCH   1  10
ATOM     10  N   UNL     1       3.243   8.312  17.840  0.00  0.00    +0.000 N 
ATOM     11  C   UNL     1       2.251   9.232  17.864  0.00  0.00    +0.000 C 
ATOM     12  O   UNL     1       2.393  10.337  17.357  0.00  0.00    +0.000 OA
ATOM     13  H   UNL     1       4.055   8.644  17.333  0.00  0.00    +0.000 HD
BRANCH  11  14
ATOM     14  O   UNL     1       1.167   8.801  18.533  0.00  0.00    +0.000 OA
BRANCH  14  15
ATOM     15  C   UNL     1       0.257   9.814  18.943  0.00  0.00    +0.000 C 
BRANCH  15  16
ATOM     16  C   UNL     1       0.227   9.776  20.447  0.00  0.00    +0.000 A 
ATOM     17  C   UNL     1       0.921   8.778  21.136  0.00  0.00    +0.000 A 
ATOM     18  C   UNL     1       0.830   8.693  22.523  0.00  0.00    +0.000 A 
ATOM     19  C   UNL     1       0.037   9.596  23.229  0.00  0.00    +0.000 A 
ATOM     20  C   UNL     1      -0.677  10.581  22.550  0.00  0.00    +0.000 A 
ATOM     21  C   UNL     1      -0.584  10.671  21.163  0.00  0.00    +0.000 A 
ENDBRANCH  15  16
ENDBRANCH  14  15
ENDBRANCH  11  14
ENDBRANCH   1  10
BRANCH   1  22
ATOM     22  C   UNL     1       1.898   6.104  18.067  0.00  0.00    +0.000 C 
BRANCH  22  23
ATOM     23  C   UNL     1       1.684   4.787  18.792  0.00  0.00    +0.000 A 
ATOM     24  C   UNL     1       1.631   3.542  18.156  0.00  0.00    +0.000 A 
ATOM     25  C   UNL     1       1.466   2.365  18.891  0.00  0.00    +0.000 A 
ATOM     26  C   UNL     1       1.339   2.413  20.275  0.00  0.00    +0.000 A 
ATOM     27  C   UNL     1       1.356   3.643  20.924  0.00  0.00    +0.000 A 
ATOM     28  C   UNL     1       1.526   4.820  20.190  0.00  0.00    +0.000 A 
ENDBRANCH  22  23
ENDBRANCH   1  22
TORSDOF 9
ENDMDL
MODEL 8
REMARK VINA RESULT:      -6.7      2.784      5.785
REMARK  Name = 
REMARK  11 active torsions:
REMARK  status: ('A' for Active; 'I' for Inactive)
REMARK    1  A    between atoms: C_1  and  N_2
REMARK    2  A    between atoms: N_2  and  C_3
REMARK    3  A    between atoms: N_2  and  N_5
REMARK    4  A    between atoms: N_5  and  C_6
REMARK    5  A    between atoms: C_7  and  C_9
REMARK    6  A    between atoms: C_9  and  C_10
REMARK    7  A    between atoms: C_9  and  N_17
REMARK    8  A    between atoms: C_10  and  C_11
REMARK    9  A    between atoms: C_18  and  O_20
REMARK   10  A    between atoms: O_20  and  C_21
REMARK   11  A    between atoms: C_21  and  C_22
REMARK                            x       y       z     vdW  Elec       q    Type
REMARK                         _______ _______ _______ _____ _____    ______ ____
ROOT
ATOM      1  C   UNL     1       2.878   6.781  18.182  0.00  0.00    +0.000 C 
ENDROOT
BRANCH   1   4
ATOM      2  N   UNL     1       5.301   6.018  18.134  0.00  0.00    +0.000 N 
ATOM      3  C   UNL     1       5.217   5.366  19.442  0.00  0.00    +0.000 C 
ATOM      4  C   UNL     1       4.275   6.724  17.509  0.00  0.00    +0.000 C 
ATOM      5  O   UNL     1       4.434   7.331  16.440  0.00  0.00    +0.000 OA
BRANCH   2   7
ATOM      6  C   UNL     1       7.203   4.563  17.091  0.00  0.00    +0.000 C 
ATOM      7  N   UNL     1       6.661   5.900  17.453  0.00  0.00    +0.000 N 
BRANCH   7   8
ATOM      8  C   UNL     1       7.408   7.006  17.323  0.00  0.00    +0.000 C 
ATOM      9  N   UNL     1       8.073   7.950  17.213  0.00  0.00    +0.000 NA
ENDBRANCH   7   8
ENDBRANCH   2   7
ENDBRANCH   1   4
BRANCH   1  10
ATOM     10  N   UNL     1       2.392   8.138  17.882  0.00  0.00    +0.000 N 
ATOM     11  C   UNL     1       1.439   8.888  18.482  0.00  0.00    +0.000 C 
ATOM     12  O   UNL     1       1.024   9.919  17.970  0.00  0.00    +0.000 OA
ATOM     13  H   UNL     1       2.662   8.517  16.981  0.00  0.00    +0.000 HD
BRANCH  11  14
ATOM     14  O   UNL     1       1.072   8.393  19.676  0.00  0.00    +0.000 OA
BRANCH  14  15
ATOM     15  C   UNL     1       1.788   8.899  20.796  0.00  0.00    +0.000 C 
BRANCH  15  16
ATOM     16  C   UNL     1       0.844   9.812  21.529  0.00  0.00    +0.000 A 
ATOM     17  C   UNL     1       0.065   9.318  22.579  0.00  0.00    +0.000 A 
ATOM     18  C   UNL     1      -0.867  10.141  23.206  0.00  0.00    +0.000 A 
ATOM     19  C   UNL     1      -1.035  11.458  22.782  0.00  0.00    +0.000 A 
ATOM     20  C   UNL     1      -0.280  11.954  21.722  0.00  0.00    +0.000 A 
ATOM     21  C   UNL     1       0.657  11.134  21.095  0.00  0.00    +0.000 A 
ENDBRANCH  15  16
ENDBRANCH  14  15
ENDBRANCH  11  14
ENDBRANCH   1  10
BRANCH   1  22
ATOM     22  C   UNL     1       1.972   5.577  17.828  0.00  0.00    +0.000 C 
BRANCH  22  23
ATOM     23  C   UNL     1       1.775   4.421  18.792  0.00  0.00    +0.000 A 
ATOM     24  C   UNL     1       1.734   3.077  18.407  0.00  0.00    +0.000 A 
ATOM     25  C   UNL     1       1.585   2.060  19.354  0.00  0.00    +0.000 A 
ATOM     26  C   UNL     1       1.463   2.371  20.704  0.00  0.00    +0.000 A 
ATOM     27  C   UNL     1       1.469   3.703  21.106  0.00  0.00    +0.000 A 
ATOM     28  C   UNL     1       1.623   4.718  20.160  0.00  0.00    +0.000 A 
ENDBRANCH  22  23
ENDBRANCH   1  22
TORSDOF 9
ENDMDL
MODEL 9
REMARK VINA RESULT:      -6.7      0.497      1.050
REMARK  Name = 
REMARK  11 active torsions:
REMARK  status: ('A' for Active; 'I' for Inactive)
REMARK    1  A    between atoms: C_1  and  N_2
REMARK    2  A    between atoms: N_2  and  C_3
REMARK    3  A    between atoms: N_2  and  N_5
REMARK    4  A    between atoms: N_5  and  C_6
REMARK    5  A    between atoms: C_7  and  C_9
REMARK    6  A    between atoms: C_9  and  C_10
REMARK    7  A    between atoms: C_9  and  N_17
REMARK    8  A    between atoms: C_10  and  C_11
REMARK    9  A    between atoms: C_18  and  O_20
REMARK   10  A    between atoms: O_20  and  C_21
REMARK   11  A    between atoms: C_21  and  C_22
REMARK                            x       y       z     vdW  Elec       q    Type
REMARK                         _______ _______ _______ _____ _____    ______ ____
ROOT
ATOM      1  C   UNL     1       4.831   6.057  17.018  0.00  0.00    +0.000 C 
ENDROOT
BRANCH   1   4
ATOM      2  N   UNL     1       5.801   4.593  15.182  0.00  0.00    +0.000 N 
ATOM      3  C   UNL     1       5.957   3.434  16.063  0.00  0.00    +0.000 C 
ATOM      4  C   UNL     1       5.326   5.847  15.563  0.00  0.00    +0.000 C 
ATOM      5  O   UNL     1       5.300   6.816  14.791  0.00  0.00    +0.000 OA
BRANCH   2   7
ATOM      6  C   UNL     1       7.516   4.914  13.239  0.00  0.00    +0.000 C 
ATOM      7  N   UNL     1       6.232   4.355  13.739  0.00  0.00    +0.000 N 
BRANCH   7   8
ATOM      8  C   UNL     1       5.367   3.760  12.905  0.00  0.00    +0.000 C 
ATOM      9  N   UNL     1       4.626   3.258  12.166  0.00  0.00    +0.000 NA
ENDBRANCH   7   8
ENDBRANCH   2   7
ENDBRANCH   1   4
BRANCH   1  10
ATOM     10  N   UNL     1       6.024   5.808  17.842  0.00  0.00    +0.000 N 
ATOM     11  C   UNL     1       6.142   5.377  19.119  0.00  0.00    +0.000 C 
ATOM     12  O   UNL     1       7.213   5.422  19.710  0.00  0.00    +0.000 OA
ATOM     13  H   UNL     1       6.895   6.187  17.487  0.00  0.00    +0.000 HD
BRANCH  11  14
ATOM     14  O   UNL     1       4.993   4.875  19.600  0.00  0.00    +0.000 OA
BRANCH  14  15
ATOM     15  C   UNL     1       4.856   3.462  19.512  0.00  0.00    +0.000 C 
BRANCH  15  16
ATOM     16  C   UNL     1       3.382   3.171  19.572  0.00  0.00    +0.000 A 
ATOM     17  C   UNL     1       2.633   3.104  18.394  0.00  0.00    +0.000 A 
ATOM     18  C   UNL     1       1.254   2.914  18.450  0.00  0.00    +0.000 A 
ATOM     19  C   UNL     1       0.614   2.802  19.683  0.00  0.00    +0.000 A 
ATOM     20  C   UNL     1       1.347   2.889  20.864  0.00  0.00    +0.000 A 
ATOM     21  C   UNL     1       2.727   3.075  20.810  0.00  0.00    +0.000 A 
ENDBRANCH  15  16
ENDBRANCH  14  15
ENDBRANCH  11  14
ENDBRANCH   1  10
BRANCH   1  22
ATOM     22  C   UNL     1       4.056   7.382  17.220  0.00  0.00    +0.000 C 
BRANCH  22  23
ATOM     23  C   UNL     1       3.033   7.543  18.330  0.00  0.00    +0.000 A 
ATOM     24  C   UNL     1       2.788   6.580  19.315  0.00  0.00    +0.000 A 
ATOM     25  C   UNL     1       1.855   6.809  20.330  0.00  0.00    +0.000 A 
ATOM     26  C   UNL     1       1.141   8.002  20.371  0.00  0.00    +0.000 A 
ATOM     27  C   UNL     1       1.345   8.960  19.383  0.00  0.00    +0.000 A 
ATOM     28  C   UNL     1       2.282   8.732  18.372  0.00  0.00    +0.000 A 
ENDBRANCH  22  23
ENDBRANCH   1  22
TORSDOF 9
ENDMDL
