MODEL 1
REMARK VINA RESULT:      -8.0      0.000      0.000
REMARK  Name = 
REMARK  3 active torsions:
REMARK  status: ('A' for Active; 'I' for Inactive)
REMARK    1  A    between atoms: C_2  and  C_15
REMARK    2  A    between atoms: N_3  and  C_4
REMARK    3  A    between atoms: C_4  and  N_5
REMARK                            x       y       z     vdW  Elec       q    Type
REMARK                         _______ _______ _______ _____ _____    ______ ____
ROOT
ATOM      1  C   UNL     1       6.220   6.783  17.370  0.00  0.00    +0.000 C 
ENDROOT
BRANCH   1   2
ATOM      2  N   UNL     1       5.156   6.272  18.227  0.00  0.00    +0.000 NA
ATOM      3  C   UNL     1       5.645   5.268  19.199  0.00  0.00    +0.000 C 
ATOM      4  C   UNL     1       5.383   3.797  18.853  0.00  0.00    +0.000 C 
ATOM      5  C   UNL     1       3.908   3.618  18.634  0.00  0.00    +0.000 A 
ATOM      6  C   UNL     1       3.210   2.497  19.089  0.00  0.00    +0.000 A 
ATOM      7  C   UNL     1       1.838   2.401  18.864  0.00  0.00    +0.000 A 
ATOM      8  C   UNL     1       1.168   3.413  18.176  0.00  0.00    +0.000 A 
ATOM      9  C   UNL     1       1.867   4.527  17.705  0.00  0.00    +0.000 A 
ATOM     10  C   UNL     1       3.241   4.640  17.939  0.00  0.00    +0.000 A 
ATOM     11  C   UNL     1       4.067   5.765  17.357  0.00  0.00    +0.000 C 
ENDBRANCH   1   2
BRANCH   1  14
ATOM     12  O   UNL     1       7.834   4.695  16.419  0.00  0.00    +0.000 OA
ATOM     13  C   UNL     1       6.944   5.145  15.708  0.00  0.00    +0.000 C 
ATOM     14  N   UNL     1       6.089   6.150  16.095  0.00  0.00    +0.000 N 
ATOM     15  H   UNL     1       5.247   6.347  15.575  0.00  0.00    +0.000 HD
BRANCH  13  16
ATOM     16  C   UNL     1       6.735   4.604  14.340  0.00  0.00    +0.000 A 
ATOM     17  C   UNL     1       7.615   4.994  13.324  0.00  0.00    +0.000 A 
ATOM     18  C   UNL     1       7.428   4.520  12.024  0.00  0.00    +0.000 A 
ATOM     19  C   UNL     1       6.360   3.674  11.735  0.00  0.00    +0.000 A 
ATOM     20  C   UNL     1       5.470   3.300  12.741  0.00  0.00    +0.000 A 
ATOM     21  C   UNL     1       5.654   3.764  14.045  0.00  0.00    +0.000 A 
ENDBRANCH  13  16
ENDBRANCH   1  14
TORSDOF 3
ENDMDL
MODEL 2
REMARK VINA RESULT:      -8.0      0.118      1.086
REMARK  Name = 
REMARK  3 active torsions:
REMARK  status: ('A' for Active; 'I' for Inactive)
REMARK    1  A    between atoms: C_2  and  C_15
REMARK    2  A    between atoms: N_3  and  C_4
REMARK    3  A    between atoms: C_4  and  N_5
REMARK                            x       y       z     vdW  Elec       q    Type
REMARK                         _______ _______ _______ _____ _____    ______ ____
ROOT
ATOM      1  C   UNL     1       6.107   6.839  17.357  0.00  0.00    +0.000 C 
ENDROOT
BRANCH   1   2
ATOM      2  N   UNL     1       5.066   6.295  18.223  0.00  0.00    +0.000 NA
ATOM      3  C   UNL     1       5.594   5.307  19.191  0.00  0.00    +0.000 C 
ATOM      4  C   UNL     1       5.375   3.829  18.848  0.00  0.00    +0.000 C 
ATOM      5  C   UNL     1       3.904   3.604  18.641  0.00  0.00    +0.000 A 
ATOM      6  C   UNL     1       3.245   2.462  19.101  0.00  0.00    +0.000 A 
ATOM      7  C   UNL     1       1.875   2.323  18.887  0.00  0.00    +0.000 A 
ATOM      8  C   UNL     1       1.168   3.314  18.204  0.00  0.00    +0.000 A 
ATOM      9  C   UNL     1       1.829   4.449  17.727  0.00  0.00    +0.000 A 
ATOM     10  C   UNL     1       3.200   4.604  17.951  0.00  0.00    +0.000 A 
ATOM     11  C   UNL     1       3.986   5.754  17.362  0.00  0.00    +0.000 C 
ENDBRANCH   1   2
BRANCH   1  14
ATOM     12  O   UNL     1       7.768   4.806  16.369  0.00  0.00    +0.000 OA
ATOM     13  C   UNL     1       6.855   5.235  15.673  0.00  0.00    +0.000 C 
ATOM     14  N   UNL     1       5.977   6.211  16.080  0.00  0.00    +0.000 N 
ATOM     15  H   UNL     1       5.122   6.387  15.573  0.00  0.00    +0.000 HD
BRANCH  13  16
ATOM     16  C   UNL     1       6.644   4.698  14.304  0.00  0.00    +0.000 A 
ATOM     17  C   UNL     1       5.513   3.910  14.061  0.00  0.00    +0.000 A 
ATOM     18  C   UNL     1       5.302   3.373  12.789  0.00  0.00    +0.000 A 
ATOM     19  C   UNL     1       6.223   3.607  11.770  0.00  0.00    +0.000 A 
ATOM     20  C   UNL     1       7.360   4.374  12.015  0.00  0.00    +0.000 A 
ATOM     21  C   UNL     1       7.575   4.921  13.283  0.00  0.00    +0.000 A 
ENDBRANCH  13  16
ENDBRANCH   1  14
TORSDOF 3
ENDMDL
MODEL 3
REMARK VINA RESULT:      -7.8      1.315      2.062
REMARK  Name = 
REMARK  3 active torsions:
REMARK  status: ('A' for Active; 'I' for Inactive)
REMARK    1  A    between atoms: C_2  and  C_15
REMARK    2  A    between atoms: N_3  and  C_4
REMARK    3  A    between atoms: C_4  and  N_5
REMARK                            x       y       z     vdW  Elec       q    Type
REMARK                         _______ _______ _______ _____ _____    ______ ____
ROOT
ATOM      1  C   UNL     1       5.761   5.692  17.791  0.00  0.00    +0.000 C 
ENDROOT
BRANCH   1   2
ATOM      2  N   UNL     1       5.105   4.560  18.437  0.00  0.00    +0.000 NA
ATOM      3  C   UNL     1       4.459   3.650  17.465  0.00  0.00    +0.000 C 
ATOM      4  C   UNL     1       2.940   3.789  17.303  0.00  0.00    +0.000 C 
ATOM      5  C   UNL     1       2.303   3.627  18.653  0.00  0.00    +0.000 A 
ATOM      6  C   UNL     1       1.116   2.918  18.845  0.00  0.00    +0.000 A 
ATOM      7  C   UNL     1       0.586   2.795  20.129  0.00  0.00    +0.000 A 
ATOM      8  C   UNL     1       1.233   3.388  21.215  0.00  0.00    +0.000 A 
ATOM      9  C   UNL     1       2.412   4.113  21.022  0.00  0.00    +0.000 A 
ATOM     10  C   UNL     1       2.959   4.228  19.741  0.00  0.00    +0.000 A 
ATOM     11  C   UNL     1       4.168   5.092  19.456  0.00  0.00    +0.000 C 
ENDBRANCH   1   2
BRANCH   1  14
ATOM     12  O   UNL     1       7.962   4.529  16.499  0.00  0.00    +0.000 OA
ATOM     13  C   UNL     1       6.976   4.849  15.846  0.00  0.00    +0.000 C 
ATOM     14  N   UNL     1       5.843   5.403  16.394  0.00  0.00    +0.000 N 
ATOM     15  H   UNL     1       4.983   5.458  15.868  0.00  0.00    +0.000 HD
BRANCH  13  16
ATOM     16  C   UNL     1       6.955   4.645  14.375  0.00  0.00    +0.000 A 
ATOM     17  C   UNL     1       6.110   3.662  13.847  0.00  0.00    +0.000 A 
ATOM     18  C   UNL     1       6.089   3.432  12.469  0.00  0.00    +0.000 A 
ATOM     19  C   UNL     1       6.917   4.169  11.625  0.00  0.00    +0.000 A 
ATOM     20  C   UNL     1       7.774   5.134  12.151  0.00  0.00    +0.000 A 
ATOM     21  C   UNL     1       7.797   5.374  13.526  0.00  0.00    +0.000 A 
ENDBRANCH  13  16
ENDBRANCH   1  14
TORSDOF 3
ENDMDL
MODEL 4
REMARK VINA RESULT:      -7.8      1.310      1.743
REMARK  Name = 
REMARK  3 active torsions:
REMARK  status: ('A' for Active; 'I' for Inactive)
REMARK    1  A    between atoms: C_2  and  C_15
REMARK    2  A    between atoms: N_3  and  C_4
REMARK    3  A    between atoms: C_4  and  N_5
REMARK                            x       y       z     vdW  Elec       q    Type
REMARK                         _______ _______ _______ _____ _____    ______ ____
ROOT
ATOM      1  C   UNL     1       5.761   5.828  17.752  0.00  0.00    +0.000 C 
ENDROOT
BRANCH   1   2
ATOM      2  N   UNL     1       5.122   4.697  18.416  0.00  0.00    +0.000 NA
ATOM      3  C   UNL     1       4.501   3.755  17.456  0.00  0.00    +0.000 C 
ATOM      4  C   UNL     1       2.981   3.862  17.281  0.00  0.00    +0.000 C 
ATOM      5  C   UNL     1       2.337   3.714  18.630  0.00  0.00    +0.000 A 
ATOM      6  C   UNL     1       1.162   2.986  18.827  0.00  0.00    +0.000 A 
ATOM      7  C   UNL     1       0.625   2.877  20.109  0.00  0.00    +0.000 A 
ATOM      8  C   UNL     1       1.252   3.503  21.187  0.00  0.00    +0.000 A 
ATOM      9  C   UNL     1       2.418   4.247  20.989  0.00  0.00    +0.000 A 
ATOM     10  C   UNL     1       2.972   4.348  19.710  0.00  0.00    +0.000 A 
ATOM     11  C   UNL     1       4.167   5.229  19.418  0.00  0.00    +0.000 C 
ENDBRANCH   1   2
BRANCH   1  14
ATOM     12  O   UNL     1       7.926   4.503  16.560  0.00  0.00    +0.000 OA
ATOM     13  C   UNL     1       6.986   4.872  15.867  0.00  0.00    +0.000 C 
ATOM     14  N   UNL     1       5.872   5.508  16.364  0.00  0.00    +0.000 N 
ATOM     15  H   UNL     1       5.037   5.607  15.807  0.00  0.00    +0.000 HD
BRANCH  13  16
ATOM     16  C   UNL     1       7.003   4.642  14.399  0.00  0.00    +0.000 A 
ATOM     17  C   UNL     1       7.825   5.448  13.604  0.00  0.00    +0.000 A 
ATOM     18  C   UNL     1       7.843   5.269  12.219  0.00  0.00    +0.000 A 
ATOM     19  C   UNL     1       7.033   4.302  11.629  0.00  0.00    +0.000 A 
ATOM     20  C   UNL     1       6.198   3.511  12.417  0.00  0.00    +0.000 A 
ATOM     21  C   UNL     1       6.179   3.679  13.804  0.00  0.00    +0.000 A 
ENDBRANCH  13  16
ENDBRANCH   1  14
TORSDOF 3
ENDMDL
MODEL 5
REMARK VINA RESULT:      -7.6      1.324      1.953
REMARK  Name = 
REMARK  3 active torsions:
REMARK  status: ('A' for Active; 'I' for Inactive)
REMARK    1  A    between atoms: C_2  and  C_15
REMARK    2  A    between atoms: N_3  and  C_4
REMARK    3  A    between atoms: C_4  and  N_5
REMARK                            x       y       z     vdW  Elec       q    Type
REMARK                         _______ _______ _______ _____ _____    ______ ____
ROOT
ATOM      1  C   UNL     1       4.974   6.473  17.200  0.00  0.00    +0.000 C 
ENDROOT
BRANCH   1   2
ATOM      2  N   UNL     1       3.589   6.130  17.505  0.00  0.00    +0.000 NA
ATOM      3  C   UNL     1       3.101   6.792  18.737  0.00  0.00    +0.000 C 
ATOM      4  C   UNL     1       3.064   5.932  20.007  0.00  0.00    +0.000 C 
ATOM      5  C   UNL     1       2.240   4.708  19.725  0.00  0.00    +0.000 A 
ATOM      6  C   UNL     1       1.347   4.172  20.655  0.00  0.00    +0.000 A 
ATOM      7  C   UNL     1       0.603   3.040  20.323  0.00  0.00    +0.000 A 
ATOM      8  C   UNL     1       0.760   2.439  19.073  0.00  0.00    +0.000 A 
ATOM      9  C   UNL     1       1.666   2.964  18.149  0.00  0.00    +0.000 A 
ATOM     10  C   UNL     1       2.405   4.107  18.466  0.00  0.00    +0.000 A 
ATOM     11  C   UNL     1       3.479   4.652  17.551  0.00  0.00    +0.000 C 
ENDBRANCH   1   2
BRANCH   1  14
ATOM     12  O   UNL     1       7.268   5.010  16.520  0.00  0.00    +0.000 OA
ATOM     13  C   UNL     1       6.435   5.264  15.659  0.00  0.00    +0.000 C 
ATOM     14  N   UNL     1       5.270   5.953  15.902  0.00  0.00    +0.000 N 
ATOM     15  H   UNL     1       4.519   5.961  15.227  0.00  0.00    +0.000 HD
BRANCH  13  16
ATOM     16  C   UNL     1       6.649   4.821  14.258  0.00  0.00    +0.000 A 
ATOM     17  C   UNL     1       5.837   3.803  13.745  0.00  0.00    +0.000 A 
ATOM     18  C   UNL     1       6.033   3.350  12.439  0.00  0.00    +0.000 A 
ATOM     19  C   UNL     1       7.044   3.899  11.653  0.00  0.00    +0.000 A 
ATOM     20  C   UNL     1       7.867   4.899  12.168  0.00  0.00    +0.000 A 
ATOM     21  C   UNL     1       7.674   5.362  13.471  0.00  0.00    +0.000 A 
ENDBRANCH  13  16
ENDBRANCH   1  14
TORSDOF 3
ENDMDL
MODEL 6
REMARK VINA RESULT:      -7.6      1.375      1.681
REMARK  Name = 
REMARK  3 active torsions:
REMARK  status: ('A' for Active; 'I' for Inactive)
REMARK    1  A    between atoms: C_2  and  C_15
REMARK    2  A    between atoms: N_3  and  C_4
REMARK    3  A    between atoms: C_4  and  N_5
REMARK                            x       y       z     vdW  Elec       q    Type
REMARK                         _______ _______ _______ _____ _____    ______ ____
ROOT
ATOM      1  C   UNL     1       4.763   6.629  17.131  0.00  0.00    +0.000 C 
ENDROOT
BRANCH   1   2
ATOM      2  N   UNL     1       3.411   6.250  17.526  0.00  0.00    +0.000 NA
ATOM      3  C   UNL     1       3.010   6.849  18.820  0.00  0.00    +0.000 C 
ATOM      4  C   UNL     1       3.082   5.936  20.049  0.00  0.00    +0.000 C 
ATOM      5  C   UNL     1       2.257   4.711  19.778  0.00  0.00    +0.000 A 
ATOM      6  C   UNL     1       1.445   4.120  20.748  0.00  0.00    +0.000 A 
ATOM      7  C   UNL     1       0.693   2.991  20.424  0.00  0.00    +0.000 A 
ATOM      8  C   UNL     1       0.762   2.447  19.141  0.00  0.00    +0.000 A 
ATOM      9  C   UNL     1       1.587   3.026  18.174  0.00  0.00    +0.000 A 
ATOM     10  C   UNL     1       2.333   4.167  18.484  0.00  0.00    +0.000 A 
ATOM     11  C   UNL     1       3.325   4.769  17.514  0.00  0.00    +0.000 C 
ENDBRANCH   1   2
BRANCH   1  14
ATOM     12  O   UNL     1       7.339   5.909  16.289  0.00  0.00    +0.000 OA
ATOM     13  C   UNL     1       6.374   5.634  15.587  0.00  0.00    +0.000 C 
ATOM     14  N   UNL     1       5.074   5.925  15.927  0.00  0.00    +0.000 N 
ATOM     15  H   UNL     1       4.300   5.504  15.435  0.00  0.00    +0.000 HD
BRANCH  13  16
ATOM     16  C   UNL     1       6.568   4.945  14.285  0.00  0.00    +0.000 A 
ATOM     17  C   UNL     1       7.610   5.368  13.452  0.00  0.00    +0.000 A 
ATOM     18  C   UNL     1       7.801   4.754  12.212  0.00  0.00    +0.000 A 
ATOM     19  C   UNL     1       6.946   3.735  11.799  0.00  0.00    +0.000 A 
ATOM     20  C   UNL     1       5.895   3.326  12.618  0.00  0.00    +0.000 A 
ATOM     21  C   UNL     1       5.702   3.930  13.862  0.00  0.00    +0.000 A 
ENDBRANCH  13  16
ENDBRANCH   1  14
TORSDOF 3
ENDMDL
MODEL 7
REMARK VINA RESULT:      -7.3      1.610      2.226
REMARK  Name = 
REMARK  3 active torsions:
REMARK  status: ('A' for Active; 'I' for Inactive)
REMARK    1  A    between atoms: C_2  and  C_15
REMARK    2  A    between atoms: N_3  and  C_4
REMARK    3  A    between atoms: C_4  and  N_5
REMARK                            x       y       z     vdW  Elec       q    Type
REMARK                         _______ _______ _______ _____ _____    ______ ____
ROOT
ATOM      1  C   UNL     1       5.454   5.893  16.110  0.00  0.00    +0.000 C 
ENDROOT
BRANCH   1   2
ATOM      2  N   UNL     1       5.039   5.168  17.306  0.00  0.00    +0.000 NA
ATOM      3  C   UNL     1       4.578   3.793  17.004  0.00  0.00    +0.000 C 
ATOM      4  C   UNL     1       3.061   3.575  16.958  0.00  0.00    +0.000 C 
ATOM      5  C   UNL     1       2.477   4.032  18.264  0.00  0.00    +0.000 A 
ATOM      6  C   UNL     1       1.454   3.339  18.914  0.00  0.00    +0.000 A 
ATOM      7  C   UNL     1       0.967   3.811  20.132  0.00  0.00    +0.000 A 
ATOM      8  C   UNL     1       1.491   4.978  20.692  0.00  0.00    +0.000 A 
ATOM      9  C   UNL     1       2.503   5.682  20.034  0.00  0.00    +0.000 A 
ATOM     10  C   UNL     1       3.008   5.207  18.820  0.00  0.00    +0.000 A 
ATOM     11  C   UNL     1       4.021   5.986  18.011  0.00  0.00    +0.000 C 
ENDBRANCH   1   2
BRANCH   1  14
ATOM     12  O   UNL     1       7.526   5.432  14.278  0.00  0.00    +0.000 OA
ATOM     13  C   UNL     1       6.463   4.837  14.152  0.00  0.00    +0.000 C 
ATOM     14  N   UNL     1       5.400   4.980  15.012  0.00  0.00    +0.000 N 
ATOM     15  H   UNL     1       4.630   4.328  15.001  0.00  0.00    +0.000 HD
BRANCH  13  16
ATOM     16  C   UNL     1       6.263   3.895  13.020  0.00  0.00    +0.000 A 
ATOM     17  C   UNL     1       4.955   3.577  12.637  0.00  0.00    +0.000 A 
ATOM     18  C   UNL     1       4.738   2.676  11.593  0.00  0.00    +0.000 A 
ATOM     19  C   UNL     1       5.820   2.083  10.944  0.00  0.00    +0.000 A 
ATOM     20  C   UNL     1       7.123   2.383  11.338  0.00  0.00    +0.000 A 
ATOM     21  C   UNL     1       7.349   3.288  12.377  0.00  0.00    +0.000 A 
ENDBRANCH  13  16
ENDBRANCH   1  14
TORSDOF 3
ENDMDL
MODEL 8
REMARK VINA RESULT:      -7.3      5.261      8.195
REMARK  Name = 
REMARK  3 active torsions:
REMARK  status: ('A' for Active; 'I' for Inactive)
REMARK    1  A    between atoms: C_2  and  C_15
REMARK    2  A    between atoms: N_3  and  C_4
REMARK    3  A    between atoms: C_4  and  N_5
REMARK                            x       y       z     vdW  Elec       q    Type
REMARK                         _______ _______ _______ _____ _____    ______ ____
ROOT
ATOM      1  C   UNL     1       2.376   8.028  18.524  0.00  0.00    +0.000 C 
ENDROOT
BRANCH   1   2
ATOM      2  N   UNL     1       2.915   6.722  18.886  0.00  0.00    +0.000 NA
ATOM      3  C   UNL     1       2.902   5.770  17.752  0.00  0.00    +0.000 C 
ATOM      4  C   UNL     1       1.768   4.737  17.738  0.00  0.00    +0.000 C 
ATOM      5  C   UNL     1       1.801   3.982  19.036  0.00  0.00    +0.000 A 
ATOM      6  C   UNL     1       1.577   2.606  19.112  0.00  0.00    +0.000 A 
ATOM      7  C   UNL     1       1.636   1.965  20.349  0.00  0.00    +0.000 A 
ATOM      8  C   UNL     1       1.904   2.697  21.507  0.00  0.00    +0.000 A 
ATOM      9  C   UNL     1       2.111   4.077  21.435  0.00  0.00    +0.000 A 
ATOM     10  C   UNL     1       2.069   4.726  20.197  0.00  0.00    +0.000 A 
ATOM     11  C   UNL     1       2.174   6.230  20.073  0.00  0.00    +0.000 C 
ENDBRANCH   1   2
BRANCH   1  14
ATOM     12  O   UNL     1       0.943  10.438  18.599  0.00  0.00    +0.000 OA
ATOM     13  C   UNL     1       0.937   9.699  19.576  0.00  0.00    +0.000 C 
ATOM     14  N   UNL     1       1.589   8.489  19.624  0.00  0.00    +0.000 N 
ATOM     15  H   UNL     1       1.392   7.820  20.354  0.00  0.00    +0.000 HD
BRANCH  13  16
ATOM     16  C   UNL     1       0.195  10.088  20.803  0.00  0.00    +0.000 A 
ATOM     17  C   UNL     1      -0.559  11.267  20.784  0.00  0.00    +0.000 A 
ATOM     18  C   UNL     1      -1.247  11.670  21.930  0.00  0.00    +0.000 A 
ATOM     19  C   UNL     1      -1.172  10.908  23.094  0.00  0.00    +0.000 A 
ATOM     20  C   UNL     1      -0.405   9.744  23.122  0.00  0.00    +0.000 A 
ATOM     21  C   UNL     1       0.281   9.331  21.977  0.00  0.00    +0.000 A 
ENDBRANCH  13  16
ENDBRANCH   1  14
TORSDOF 3
ENDMDL
MODEL 9
REMARK VINA RESULT:      -7.3      1.617      2.032
REMARK  Name = 
REMARK  3 active torsions:
REMARK  status: ('A' for Active; 'I' for Inactive)
REMARK    1  A    between atoms: C_2  and  C_15
REMARK    2  A    between atoms: N_3  and  C_4
REMARK    3  A    between atoms: C_4  and  N_5
REMARK                            x       y       z     vdW  Elec       q    Type
REMARK                         _______ _______ _______ _____ _____    ______ ____
ROOT
ATOM      1  C   UNL     1       5.407   5.885  16.094  0.00  0.00    +0.000 C 
ENDROOT
BRANCH   1   2
ATOM      2  N   UNL     1       4.993   5.176  17.300  0.00  0.00    +0.000 NA
ATOM      3  C   UNL     1       4.532   3.798  17.016  0.00  0.00    +0.000 C 
ATOM      4  C   UNL     1       3.014   3.579  16.975  0.00  0.00    +0.000 C 
ATOM      5  C   UNL     1       2.432   4.054  18.276  0.00  0.00    +0.000 A 
ATOM      6  C   UNL     1       1.410   3.370  18.936  0.00  0.00    +0.000 A 
ATOM      7  C   UNL     1       0.925   3.859  20.149  0.00  0.00    +0.000 A 
ATOM      8  C   UNL     1       1.450   5.032  20.693  0.00  0.00    +0.000 A 
ATOM      9  C   UNL     1       2.461   5.727  20.024  0.00  0.00    +0.000 A 
ATOM     10  C   UNL     1       2.965   5.236  18.816  0.00  0.00    +0.000 A 
ATOM     11  C   UNL     1       3.977   6.004  17.995  0.00  0.00    +0.000 C 
ENDBRANCH   1   2
BRANCH   1  14
ATOM     12  O   UNL     1       7.505   5.324  14.319  0.00  0.00    +0.000 OA
ATOM     13  C   UNL     1       6.424   4.766  14.175  0.00  0.00    +0.000 C 
ATOM     14  N   UNL     1       5.347   4.959  15.007  0.00  0.00    +0.000 N 
ATOM     15  H   UNL     1       4.553   4.336  14.986  0.00  0.00    +0.000 HD
BRANCH  13  16
ATOM     16  C   UNL     1       6.217   3.816  13.051  0.00  0.00    +0.000 A 
ATOM     17  C   UNL     1       7.340   3.263  12.426  0.00  0.00    +0.000 A 
ATOM     18  C   UNL     1       7.175   2.386  11.352  0.00  0.00    +0.000 A 
ATOM     19  C   UNL     1       5.897   2.074  10.894  0.00  0.00    +0.000 A 
ATOM     20  C   UNL     1       4.777   2.640  11.502  0.00  0.00    +0.000 A 
ATOM     21  C   UNL     1       4.933   3.513  12.581  0.00  0.00    +0.000 A 
ENDBRANCH  13  16
ENDBRANCH   1  14
TORSDOF 3
ENDMDL
