MODEL 1
REMARK VINA RESULT:      -7.3      0.000      0.000
REMARK  Name = 
REMARK  4 active torsions:
REMARK  status: ('A' for Active; 'I' for Inactive)
REMARK    1  A    between atoms: C_4  and  O_5
REMARK    2  A    between atoms: O_5  and  C_6
REMARK    3  A    between atoms: C_8  and  N_9
REMARK    4  A    between atoms: C_20  and  C_21
REMARK                            x       y       z     vdW  Elec       q    Type
REMARK                         _______ _______ _______ _____ _____    ______ ____
ROOT
ATOM      1  C   UNL     1       3.590   4.937  17.845  0.00  0.00    +0.000 C 
ATOM      2  C   UNL     1       3.865   5.361  19.306  0.00  0.00    +0.000 C 
ATOM      3  C   UNL     1       2.452   5.967  19.365  0.00  0.00    +0.000 C 
ATOM      4  C   UNL     1       2.080   5.100  18.145  0.00  0.00    +0.000 C 
ENDROOT
BRANCH   3   5
ATOM      5  N   UNL     1       2.429   7.371  19.051  0.00  0.00    +0.000 N 
ATOM      6  C   UNL     1       1.702   8.235  19.803  0.00  0.00    +0.000 A 
ATOM      7  N   UNL     1       1.402   8.051  21.067  0.00  0.00    +0.000 NA
ATOM      8  C   UNL     1       0.600   9.077  21.528  0.00  0.00    +0.000 A 
ATOM      9  C   UNL     1       0.090   9.199  22.837  0.00  0.00    +0.000 A 
ATOM     10  C   UNL     1      -0.745  10.273  23.160  0.00  0.00    +0.000 A 
ATOM     11  C   UNL     1      -1.072  11.224  22.198  0.00  0.00    +0.000 A 
ATOM     12  C   UNL     1      -0.565  11.133  20.897  0.00  0.00    +0.000 A 
ATOM     13  C   UNL     1       0.276  10.051  20.585  0.00  0.00    +0.000 A 
ATOM     14  S   UNL     1       1.062   9.669  19.102  0.00  0.00    +0.000 S 
ATOM     15  H   UNL     1       2.447   7.569  18.054  0.00  0.00    +0.000 HD
ENDBRANCH   3   5
BRANCH   1  16
ATOM     16  O   UNL     1       4.088   5.808  16.801  0.00  0.00    +0.000 OA
BRANCH  16  20
ATOM     17  C   UNL     1       6.882   4.147  14.287  0.00  0.00    +0.000 A 
ATOM     18  C   UNL     1       5.520   4.007  14.088  0.00  0.00    +0.000 A 
ATOM     19  N   UNL     1       4.586   4.540  14.902  0.00  0.00    +0.000 NA
ATOM     20  C   UNL     1       5.033   5.253  15.958  0.00  0.00    +0.000 A 
ATOM     21  C   UNL     1       6.383   5.464  16.257  0.00  0.00    +0.000 A 
ATOM     22  C   UNL     1       7.313   4.879  15.389  0.00  0.00    +0.000 A 
BRANCH  21  23
ATOM     23  C   UNL     1       6.819   6.325  17.426  0.00  0.00    +0.000 C 
ATOM     24  C   UNL     1       7.548   7.595  16.956  0.00  0.00    +0.000 C 
ATOM     25  C   UNL     1       8.010   8.412  18.155  0.00  0.00    +0.000 C 
ATOM     26  O   UNL     1       8.837   7.622  19.010  0.00  0.00    +0.000 OA
ATOM     27  C   UNL     1       8.141   6.497  19.547  0.00  0.00    +0.000 C 
ATOM     28  C   UNL     1       7.689   5.560  18.433  0.00  0.00    +0.000 C 
ENDBRANCH  21  23
ENDBRANCH  16  20
ENDBRANCH   1  16
TORSDOF 4
ENDMDL
MODEL 2
REMARK VINA RESULT:      -7.2      2.064      3.578
REMARK  Name = 
REMARK  4 active torsions:
REMARK  status: ('A' for Active; 'I' for Inactive)
REMARK    1  A    between atoms: C_4  and  O_5
REMARK    2  A    between atoms: O_5  and  C_6
REMARK    3  A    between atoms: C_8  and  N_9
REMARK    4  A    between atoms: C_20  and  C_21
REMARK                            x       y       z     vdW  Elec       q    Type
REMARK                         _______ _______ _______ _____ _____    ______ ____
ROOT
ATOM      1  C   UNL     1       2.928   7.032  17.784  0.00  0.00    +0.000 C 
ATOM      2  C   UNL     1       1.483   7.518  17.523  0.00  0.00    +0.000 C 
ATOM      3  C   UNL     1       1.789   8.777  18.353  0.00  0.00    +0.000 C 
ATOM      4  C   UNL     1       3.290   8.493  18.144  0.00  0.00    +0.000 C 
ENDROOT
BRANCH   3   5
ATOM      5  N   UNL     1       1.406   8.647  19.734  0.00  0.00    +0.000 N 
ATOM      6  C   UNL     1       0.576   9.552  20.309  0.00  0.00    +0.000 A 
ATOM      7  N   UNL     1      -0.315  10.262  19.659  0.00  0.00    +0.000 NA
ATOM      8  C   UNL     1      -0.955  11.137  20.516  0.00  0.00    +0.000 A 
ATOM      9  C   UNL     1      -1.968  12.049  20.157  0.00  0.00    +0.000 A 
ATOM     10  C   UNL     1      -2.505  12.907  21.121  0.00  0.00    +0.000 A 
ATOM     11  C   UNL     1      -2.048  12.862  22.435  0.00  0.00    +0.000 A 
ATOM     12  C   UNL     1      -1.055  11.955  22.819  0.00  0.00    +0.000 A 
ATOM     13  C   UNL     1      -0.526  11.095  21.842  0.00  0.00    +0.000 A 
ATOM     14  S   UNL     1       0.678   9.874  21.995  0.00  0.00    +0.000 S 
ATOM     15  H   UNL     1       2.146   8.290  20.333  0.00  0.00    +0.000 HD
ENDBRANCH   3   5
BRANCH   1  16
ATOM     16  O   UNL     1       3.120   6.085  18.862  0.00  0.00    +0.000 OA
BRANCH  16  20
ATOM     17  C   UNL     1       2.222   2.172  17.990  0.00  0.00    +0.000 A 
ATOM     18  C   UNL     1       1.347   3.007  18.662  0.00  0.00    +0.000 A 
ATOM     19  N   UNL     1       1.623   4.293  18.961  0.00  0.00    +0.000 NA
ATOM     20  C   UNL     1       2.823   4.768  18.564  0.00  0.00    +0.000 A 
ATOM     21  C   UNL     1       3.783   4.019  17.877  0.00  0.00    +0.000 A 
ATOM     22  C   UNL     1       3.454   2.686  17.602  0.00  0.00    +0.000 A 
BRANCH  21  23
ATOM     23  C   UNL     1       5.089   4.629  17.407  0.00  0.00    +0.000 C 
ATOM     24  C   UNL     1       5.565   4.004  16.085  0.00  0.00    +0.000 C 
ATOM     25  C   UNL     1       6.898   4.608  15.666  0.00  0.00    +0.000 C 
ATOM     26  O   UNL     1       7.869   4.443  16.700  0.00  0.00    +0.000 OA
ATOM     27  C   UNL     1       7.496   5.114  17.904  0.00  0.00    +0.000 C 
ATOM     28  C   UNL     1       6.199   4.539  18.463  0.00  0.00    +0.000 C 
ENDBRANCH  21  23
ENDBRANCH  16  20
ENDBRANCH   1  16
TORSDOF 4
ENDMDL
MODEL 3
REMARK VINA RESULT:      -7.1      4.179      9.294
REMARK  Name = 
REMARK  4 active torsions:
REMARK  status: ('A' for Active; 'I' for Inactive)
REMARK    1  A    between atoms: C_4  and  O_5
REMARK    2  A    between atoms: O_5  and  C_6
REMARK    3  A    between atoms: C_8  and  N_9
REMARK    4  A    between atoms: C_20  and  C_21
REMARK                            x       y       z     vdW  Elec       q    Type
REMARK                         _______ _______ _______ _____ _____    ______ ____
ROOT
ATOM      1  C   UNL     1       0.288   9.996  21.672  0.00  0.00    +0.000 C 
ATOM      2  C   UNL     1      -0.306   8.578  21.501  0.00  0.00    +0.000 C 
ATOM      3  C   UNL     1       1.102   7.995  21.707  0.00  0.00    +0.000 C 
ATOM      4  C   UNL     1       1.512   9.335  22.352  0.00  0.00    +0.000 C 
ENDROOT
BRANCH   3   5
ATOM      5  N   UNL     1       1.800   7.760  20.471  0.00  0.00    +0.000 N 
ATOM      6  C   UNL     1       2.007   6.496  20.024  0.00  0.00    +0.000 A 
ATOM      7  N   UNL     1       1.240   5.471  20.311  0.00  0.00    +0.000 NA
ATOM      8  C   UNL     1       1.753   4.314  19.757  0.00  0.00    +0.000 A 
ATOM      9  C   UNL     1       1.186   3.028  19.866  0.00  0.00    +0.000 A 
ATOM     10  C   UNL     1       1.832   1.932  19.285  0.00  0.00    +0.000 A 
ATOM     11  C   UNL     1       3.030   2.105  18.598  0.00  0.00    +0.000 A 
ATOM     12  C   UNL     1       3.604   3.374  18.463  0.00  0.00    +0.000 A 
ATOM     13  C   UNL     1       2.943   4.468  19.047  0.00  0.00    +0.000 A 
ATOM     14  S   UNL     1       3.375   6.134  19.047  0.00  0.00    +0.000 S 
ATOM     15  H   UNL     1       2.559   8.414  20.297  0.00  0.00    +0.000 HD
ENDBRANCH   3   5
BRANCH   1  16
ATOM     16  O   UNL     1       0.600  10.730  20.464  0.00  0.00    +0.000 OA
BRANCH  16  20
ATOM     17  C   UNL     1       0.348  14.820  20.760  0.00  0.00    +0.000 A 
ATOM     18  C   UNL     1       1.427  14.101  21.243  0.00  0.00    +0.000 A 
ATOM     19  N   UNL     1       1.529  12.759  21.160  0.00  0.00    +0.000 NA
ATOM     20  C   UNL     1       0.510  12.106  20.559  0.00  0.00    +0.000 A 
ATOM     21  C   UNL     1      -0.627  12.726  20.032  0.00  0.00    +0.000 A 
ATOM     22  C   UNL     1      -0.691  14.120  20.155  0.00  0.00    +0.000 A 
BRANCH  21  23
ATOM     23  C   UNL     1      -1.708  11.942  19.316  0.00  0.00    +0.000 C 
ATOM     24  C   UNL     1      -1.490  11.929  17.794  0.00  0.00    +0.000 C 
ATOM     25  C   UNL     1      -2.617  11.171  17.106  0.00  0.00    +0.000 C 
ATOM     26  O   UNL     1      -3.882  11.738  17.447  0.00  0.00    +0.000 OA
ATOM     27  C   UNL     1      -4.153  11.655  18.847  0.00  0.00    +0.000 C 
ATOM     28  C   UNL     1      -3.121  12.446  19.643  0.00  0.00    +0.000 C 
ENDBRANCH  21  23
ENDBRANCH  16  20
ENDBRANCH   1  16
TORSDOF 4
ENDMDL
MODEL 4
REMARK VINA RESULT:      -7.0      3.455      9.635
REMARK  Name = 
REMARK  4 active torsions:
REMARK  status: ('A' for Active; 'I' for Inactive)
REMARK    1  A    between atoms: C_4  and  O_5
REMARK    2  A    between atoms: O_5  and  C_6
REMARK    3  A    between atoms: C_8  and  N_9
REMARK    4  A    between atoms: C_20  and  C_21
REMARK                            x       y       z     vdW  Elec       q    Type
REMARK                         _______ _______ _______ _____ _____    ______ ____
ROOT
ATOM      1  C   UNL     1      -0.042   9.656  21.667  0.00  0.00    +0.000 C 
ATOM      2  C   UNL     1      -0.231   8.158  21.336  0.00  0.00    +0.000 C 
ATOM      3  C   UNL     1       1.291   8.037  21.151  0.00  0.00    +0.000 C 
ATOM      4  C   UNL     1       1.446   9.342  21.958  0.00  0.00    +0.000 C 
ENDROOT
BRANCH   3   5
ATOM      5  N   UNL     1       1.707   8.200  19.784  0.00  0.00    +0.000 N 
ATOM      6  C   UNL     1       2.302   7.180  19.116  0.00  0.00    +0.000 A 
ATOM      7  N   UNL     1       2.119   5.909  19.383  0.00  0.00    +0.000 NA
ATOM      8  C   UNL     1       2.915   5.124  18.570  0.00  0.00    +0.000 A 
ATOM      9  C   UNL     1       2.972   3.716  18.586  0.00  0.00    +0.000 A 
ATOM     10  C   UNL     1       3.853   3.047  17.731  0.00  0.00    +0.000 A 
ATOM     11  C   UNL     1       4.671   3.764  16.863  0.00  0.00    +0.000 A 
ATOM     12  C   UNL     1       4.621   5.161  16.818  0.00  0.00    +0.000 A 
ATOM     13  C   UNL     1       3.728   5.822  17.678  0.00  0.00    +0.000 A 
ATOM     14  S   UNL     1       3.421   7.507  17.852  0.00  0.00    +0.000 S 
ATOM     15  H   UNL     1       2.064   9.128  19.571  0.00  0.00    +0.000 HD
ENDBRANCH   3   5
BRANCH   1  16
ATOM     16  O   UNL     1      -0.253  10.601  20.591  0.00  0.00    +0.000 OA
BRANCH  16  20
ATOM     17  C   UNL     1      -1.643  14.295  21.732  0.00  0.00    +0.000 A 
ATOM     18  C   UNL     1      -0.540  13.699  22.316  0.00  0.00    +0.000 A 
ATOM     19  N   UNL     1      -0.069  12.487  21.960  0.00  0.00    +0.000 NA
ATOM     20  C   UNL     1      -0.725  11.844  20.969  0.00  0.00    +0.000 A 
ATOM     21  C   UNL     1      -1.846  12.349  20.305  0.00  0.00    +0.000 A 
ATOM     22  C   UNL     1      -2.304  13.606  20.720  0.00  0.00    +0.000 A 
BRANCH  21  23
ATOM     23  C   UNL     1      -2.502  11.604  19.159  0.00  0.00    +0.000 C 
ATOM     24  C   UNL     1      -1.765  11.840  17.830  0.00  0.00    +0.000 C 
ATOM     25  C   UNL     1      -2.475  11.114  16.697  0.00  0.00    +0.000 C 
ATOM     26  O   UNL     1      -3.839  11.526  16.616  0.00  0.00    +0.000 OA
ATOM     27  C   UNL     1      -4.571  11.211  17.802  0.00  0.00    +0.000 C 
ATOM     28  C   UNL     1      -3.991  11.946  19.005  0.00  0.00    +0.000 C 
ENDBRANCH  21  23
ENDBRANCH  16  20
ENDBRANCH   1  16
TORSDOF 4
ENDMDL
MODEL 5
REMARK VINA RESULT:      -6.9      3.541      9.339
REMARK  Name = 
REMARK  4 active torsions:
REMARK  status: ('A' for Active; 'I' for Inactive)
REMARK    1  A    between atoms: C_4  and  O_5
REMARK    2  A    between atoms: O_5  and  C_6
REMARK    3  A    between atoms: C_8  and  N_9
REMARK    4  A    between atoms: C_20  and  C_21
REMARK                            x       y       z     vdW  Elec       q    Type
REMARK                         _______ _______ _______ _____ _____    ______ ____
ROOT
ATOM      1  C   UNL     1       0.432   9.890  22.022  0.00  0.00    +0.000 C 
ATOM      2  C   UNL     1      -0.252   8.630  21.443  0.00  0.00    +0.000 C 
ATOM      3  C   UNL     1       1.141   8.030  21.184  0.00  0.00    +0.000 C 
ATOM      4  C   UNL     1       1.713   9.039  22.199  0.00  0.00    +0.000 C 
ENDROOT
BRANCH   3   5
ATOM      5  N   UNL     1       1.622   8.278  19.851  0.00  0.00    +0.000 N 
ATOM      6  C   UNL     1       2.226   7.295  19.140  0.00  0.00    +0.000 A 
ATOM      7  N   UNL     1       2.006   6.012  19.307  0.00  0.00    +0.000 NA
ATOM      8  C   UNL     1       2.822   5.268  18.477  0.00  0.00    +0.000 A 
ATOM      9  C   UNL     1       2.851   3.861  18.395  0.00  0.00    +0.000 A 
ATOM     10  C   UNL     1       3.757   3.233  17.535  0.00  0.00    +0.000 A 
ATOM     11  C   UNL     1       4.627   3.990  16.757  0.00  0.00    +0.000 A 
ATOM     12  C   UNL     1       4.607   5.388  16.808  0.00  0.00    +0.000 A 
ATOM     13  C   UNL     1       3.689   6.008  17.673  0.00  0.00    +0.000 A 
ATOM     14  S   UNL     1       3.408   7.683  17.952  0.00  0.00    +0.000 S 
ATOM     15  H   UNL     1       2.006   9.211  19.720  0.00  0.00    +0.000 HD
ENDBRANCH   3   5
BRANCH   1  16
ATOM     16  O   UNL     1       0.585  11.024  21.135  0.00  0.00    +0.000 OA
BRANCH  16  20
ATOM     17  C   UNL     1      -2.446  11.594  18.420  0.00  0.00    +0.000 A 
ATOM     18  C   UNL     1      -1.294  10.890  18.117  0.00  0.00    +0.000 A 
ATOM     19  N   UNL     1      -0.285  10.694  18.992  0.00  0.00    +0.000 NA
ATOM     20  C   UNL     1      -0.439  11.217  20.227  0.00  0.00    +0.000 A 
ATOM     21  C   UNL     1      -1.558  11.942  20.646  0.00  0.00    +0.000 A 
ATOM     22  C   UNL     1      -2.572  12.129  19.698  0.00  0.00    +0.000 A 
BRANCH  21  23
ATOM     23  C   UNL     1      -1.696  12.453  22.067  0.00  0.00    +0.000 C 
ATOM     24  C   UNL     1      -3.167  12.521  22.508  0.00  0.00    +0.000 C 
ATOM     25  C   UNL     1      -3.270  13.079  23.920  0.00  0.00    +0.000 C 
ATOM     26  O   UNL     1      -2.643  14.359  23.999  0.00  0.00    +0.000 OA
ATOM     27  C   UNL     1      -1.247  14.297  23.703  0.00  0.00    +0.000 C 
ATOM     28  C   UNL     1      -1.020  13.816  22.274  0.00  0.00    +0.000 C 
ENDBRANCH  21  23
ENDBRANCH  16  20
ENDBRANCH   1  16
TORSDOF 4
ENDMDL
MODEL 6
REMARK VINA RESULT:      -6.9      2.552      4.841
REMARK  Name = 
REMARK  4 active torsions:
REMARK  status: ('A' for Active; 'I' for Inactive)
REMARK    1  A    between atoms: C_4  and  O_5
REMARK    2  A    between atoms: O_5  and  C_6
REMARK    3  A    between atoms: C_8  and  N_9
REMARK    4  A    between atoms: C_20  and  C_21
REMARK                            x       y       z     vdW  Elec       q    Type
REMARK                         _______ _______ _______ _____ _____    ______ ____
ROOT
ATOM      1  C   UNL     1       2.202   8.544  17.493  0.00  0.00    +0.000 C 
ATOM      2  C   UNL     1       0.701   8.892  17.363  0.00  0.00    +0.000 C 
ATOM      3  C   UNL     1       0.903  10.016  18.393  0.00  0.00    +0.000 C 
ATOM      4  C   UNL     1       2.415   9.954  18.095  0.00  0.00    +0.000 C 
ENDROOT
BRANCH   3   5
ATOM      5  N   UNL     1       0.604   9.606  19.739  0.00  0.00    +0.000 N 
ATOM      6  C   UNL     1      -0.222  10.346  20.520  0.00  0.00    +0.000 A 
ATOM      7  N   UNL     1      -1.173  11.127  20.065  0.00  0.00    +0.000 NA
ATOM      8  C   UNL     1      -1.793  11.791  21.106  0.00  0.00    +0.000 A 
ATOM      9  C   UNL     1      -2.856  12.708  20.982  0.00  0.00    +0.000 A 
ATOM     10  C   UNL     1      -3.367  13.339  22.120  0.00  0.00    +0.000 A 
ATOM     11  C   UNL     1      -2.834  13.064  23.375  0.00  0.00    +0.000 A 
ATOM     12  C   UNL     1      -1.790  12.145  23.527  0.00  0.00    +0.000 A 
ATOM     13  C   UNL     1      -1.288  11.514  22.376  0.00  0.00    +0.000 A 
ATOM     14  S   UNL     1      -0.036  10.342  22.229  0.00  0.00    +0.000 S 
ATOM     15  H   UNL     1       1.389   9.175  20.221  0.00  0.00    +0.000 HD
ENDBRANCH   3   5
BRANCH   1  16
ATOM     16  O   UNL     1       2.552   7.456  18.381  0.00  0.00    +0.000 OA
BRANCH  16  20
ATOM     17  C   UNL     1       5.607   5.033  17.085  0.00  0.00    +0.000 A 
ATOM     18  C   UNL     1       5.615   6.405  16.908  0.00  0.00    +0.000 A 
ATOM     19  N   UNL     1       4.622   7.219  17.322  0.00  0.00    +0.000 NA
ATOM     20  C   UNL     1       3.577   6.636  17.950  0.00  0.00    +0.000 A 
ATOM     21  C   UNL     1       3.462   5.263  18.187  0.00  0.00    +0.000 A 
ATOM     22  C   UNL     1       4.513   4.460  17.726  0.00  0.00    +0.000 A 
BRANCH  21  23
ATOM     23  C   UNL     1       2.291   4.677  18.949  0.00  0.00    +0.000 C 
ATOM     24  C   UNL     1       2.645   4.412  20.422  0.00  0.00    +0.000 C 
ATOM     25  C   UNL     1       1.461   3.784  21.145  0.00  0.00    +0.000 C 
ATOM     26  O   UNL     1       1.049   2.588  20.484  0.00  0.00    +0.000 OA
ATOM     27  C   UNL     1       0.608   2.832  19.148  0.00  0.00    +0.000 C 
ATOM     28  C   UNL     1       1.741   3.399  18.301  0.00  0.00    +0.000 C 
ENDBRANCH  21  23
ENDBRANCH  16  20
ENDBRANCH   1  16
TORSDOF 4
ENDMDL
MODEL 7
REMARK VINA RESULT:      -6.9      2.822      7.973
REMARK  Name = 
REMARK  4 active torsions:
REMARK  status: ('A' for Active; 'I' for Inactive)
REMARK    1  A    between atoms: C_4  and  O_5
REMARK    2  A    between atoms: O_5  and  C_6
REMARK    3  A    between atoms: C_8  and  N_9
REMARK    4  A    between atoms: C_20  and  C_21
REMARK                            x       y       z     vdW  Elec       q    Type
REMARK                         _______ _______ _______ _____ _____    ______ ____
ROOT
ATOM      1  C   UNL     1       1.347   5.551  20.641  0.00  0.00    +0.000 C 
ATOM      2  C   UNL     1       1.621   4.947  19.245  0.00  0.00    +0.000 C 
ATOM      3  C   UNL     1       2.819   4.187  19.841  0.00  0.00    +0.000 C 
ATOM      4  C   UNL     1       2.203   4.408  21.238  0.00  0.00    +0.000 C 
ENDROOT
BRANCH   3   5
ATOM      5  N   UNL     1       4.064   4.891  19.688  0.00  0.00    +0.000 N 
ATOM      6  C   UNL     1       4.731   4.866  18.507  0.00  0.00    +0.000 A 
ATOM      7  N   UNL     1       4.165   4.692  17.336  0.00  0.00    +0.000 NA
ATOM      8  C   UNL     1       5.120   4.652  16.338  0.00  0.00    +0.000 A 
ATOM      9  C   UNL     1       4.866   4.478  14.962  0.00  0.00    +0.000 A 
ATOM     10  C   UNL     1       5.933   4.419  14.061  0.00  0.00    +0.000 A 
ATOM     11  C   UNL     1       7.244   4.535  14.514  0.00  0.00    +0.000 A 
ATOM     12  C   UNL     1       7.520   4.725  15.872  0.00  0.00    +0.000 A 
ATOM     13  C   UNL     1       6.439   4.787  16.768  0.00  0.00    +0.000 A 
ATOM     14  S   UNL     1       6.443   5.023  18.473  0.00  0.00    +0.000 S 
ATOM     15  H   UNL     1       4.649   4.877  20.519  0.00  0.00    +0.000 HD
ENDBRANCH   3   5
BRANCH   1  16
ATOM     16  O   UNL     1       1.864   6.879  20.898  0.00  0.00    +0.000 OA
BRANCH  16  20
ATOM     17  C   UNL     1       1.925   9.417  17.666  0.00  0.00    +0.000 A 
ATOM     18  C   UNL     1       2.629   8.226  17.695  0.00  0.00    +0.000 A 
ATOM     19  N   UNL     1       2.626   7.380  18.746  0.00  0.00    +0.000 NA
ATOM     20  C   UNL     1       1.878   7.736  19.813  0.00  0.00    +0.000 A 
ATOM     21  C   UNL     1       1.125   8.911  19.896  0.00  0.00    +0.000 A 
ATOM     22  C   UNL     1       1.171   9.761  18.784  0.00  0.00    +0.000 A 
BRANCH  21  23
ATOM     23  C   UNL     1       0.259   9.224  21.100  0.00  0.00    +0.000 C 
ATOM     24  C   UNL     1      -0.397  10.610  20.984  0.00  0.00    +0.000 C 
ATOM     25  C   UNL     1      -1.222  10.908  22.228  0.00  0.00    +0.000 C 
ATOM     26  O   UNL     1      -0.412  10.811  23.400  0.00  0.00    +0.000 OA
ATOM     27  C   UNL     1       0.115   9.497  23.586  0.00  0.00    +0.000 C 
ATOM     28  C   UNL     1       1.025   9.112  22.425  0.00  0.00    +0.000 C 
ENDBRANCH  21  23
ENDBRANCH  16  20
ENDBRANCH   1  16
TORSDOF 4
ENDMDL
MODEL 8
REMARK VINA RESULT:      -6.9      4.148      9.014
REMARK  Name = 
REMARK  4 active torsions:
REMARK  status: ('A' for Active; 'I' for Inactive)
REMARK    1  A    between atoms: C_4  and  O_5
REMARK    2  A    between atoms: O_5  and  C_6
REMARK    3  A    between atoms: C_8  and  N_9
REMARK    4  A    between atoms: C_20  and  C_21
REMARK                            x       y       z     vdW  Elec       q    Type
REMARK                         _______ _______ _______ _____ _____    ______ ____
ROOT
ATOM      1  C   UNL     1       0.456  10.054  21.782  0.00  0.00    +0.000 C 
ATOM      2  C   UNL     1      -0.239   8.690  21.565  0.00  0.00    +0.000 C 
ATOM      3  C   UNL     1       1.130   8.003  21.704  0.00  0.00    +0.000 C 
ATOM      4  C   UNL     1       1.648   9.281  22.397  0.00  0.00    +0.000 C 
ENDROOT
BRANCH   3   5
ATOM      5  N   UNL     1       1.779   7.779  20.440  0.00  0.00    +0.000 N 
ATOM      6  C   UNL     1       1.988   6.519  19.984  0.00  0.00    +0.000 A 
ATOM      7  N   UNL     1       1.252   5.481  20.304  0.00  0.00    +0.000 NA
ATOM      8  C   UNL     1       1.761   4.332  19.728  0.00  0.00    +0.000 A 
ATOM      9  C   UNL     1       1.222   3.036  19.861  0.00  0.00    +0.000 A 
ATOM     10  C   UNL     1       1.861   1.952  19.254  0.00  0.00    +0.000 A 
ATOM     11  C   UNL     1       3.026   2.145  18.516  0.00  0.00    +0.000 A 
ATOM     12  C   UNL     1       3.571   3.423  18.357  0.00  0.00    +0.000 A 
ATOM     13  C   UNL     1       2.916   4.507  18.968  0.00  0.00    +0.000 A 
ATOM     14  S   UNL     1       3.319   6.180  18.949  0.00  0.00    +0.000 S 
ATOM     15  H   UNL     1       2.518   8.446  20.234  0.00  0.00    +0.000 HD
ENDBRANCH   3   5
BRANCH   1  16
ATOM     16  O   UNL     1       0.787  10.821  20.600  0.00  0.00    +0.000 OA
BRANCH  16  20
ATOM     17  C   UNL     1      -2.093  10.930  17.672  0.00  0.00    +0.000 A 
ATOM     18  C   UNL     1      -1.059  10.010  17.669  0.00  0.00    +0.000 A 
ATOM     19  N   UNL     1      -0.102   9.959  18.618  0.00  0.00    +0.000 NA
ATOM     20  C   UNL     1      -0.186  10.862  19.620  0.00  0.00    +0.000 A 
ATOM     21  C   UNL     1      -1.186  11.833  19.728  0.00  0.00    +0.000 A 
ATOM     22  C   UNL     1      -2.149  11.853  18.712  0.00  0.00    +0.000 A 
BRANCH  21  23
ATOM     23  C   UNL     1      -1.258  12.779  20.909  0.00  0.00    +0.000 C 
ATOM     24  C   UNL     1      -2.394  12.401  21.874  0.00  0.00    +0.000 C 
ATOM     25  C   UNL     1      -2.465  13.397  23.022  0.00  0.00    +0.000 C 
ATOM     26  O   UNL     1      -2.624  14.725  22.524  0.00  0.00    +0.000 OA
ATOM     27  C   UNL     1      -1.521  15.137  21.717  0.00  0.00    +0.000 C 
ATOM     28  C   UNL     1      -1.394  14.248  20.484  0.00  0.00    +0.000 C 
ENDBRANCH  21  23
ENDBRANCH  16  20
ENDBRANCH   1  16
TORSDOF 4
ENDMDL
MODEL 9
REMARK VINA RESULT:      -6.9      5.401     11.908
REMARK  Name = 
REMARK  4 active torsions:
REMARK  status: ('A' for Active; 'I' for Inactive)
REMARK    1  A    between atoms: C_4  and  O_5
REMARK    2  A    between atoms: O_5  and  C_6
REMARK    3  A    between atoms: C_8  and  N_9
REMARK    4  A    between atoms: C_20  and  C_21
REMARK                            x       y       z     vdW  Elec       q    Type
REMARK                         _______ _______ _______ _____ _____    ______ ____
ROOT
ATOM      1  C   UNL     1      -2.691  12.935  23.105  0.00  0.00    +0.000 C 
ATOM      2  C   UNL     1      -2.048  11.533  23.215  0.00  0.00    +0.000 C 
ATOM      3  C   UNL     1      -0.845  12.053  22.410  0.00  0.00    +0.000 C 
ATOM      4  C   UNL     1      -1.284  13.487  22.770  0.00  0.00    +0.000 C 
ENDROOT
BRANCH   3   5
ATOM      5  N   UNL     1      -0.959  11.797  20.999  0.00  0.00    +0.000 N 
ATOM      6  C   UNL     1      -0.216  10.826  20.411  0.00  0.00    +0.000 A 
ATOM      7  N   UNL     1       0.240   9.762  21.028  0.00  0.00    +0.000 NA
ATOM      8  C   UNL     1       1.014   9.001  20.172  0.00  0.00    +0.000 A 
ATOM      9  C   UNL     1       1.660   7.792  20.501  0.00  0.00    +0.000 A 
ATOM     10  C   UNL     1       2.446   7.142  19.545  0.00  0.00    +0.000 A 
ATOM     11  C   UNL     1       2.592   7.681  18.270  0.00  0.00    +0.000 A 
ATOM     12  C   UNL     1       1.948   8.870  17.915  0.00  0.00    +0.000 A 
ATOM     13  C   UNL     1       1.156   9.512  18.883  0.00  0.00    +0.000 A 
ATOM     14  S   UNL     1       0.236  10.961  18.757  0.00  0.00    +0.000 S 
ATOM     15  H   UNL     1      -1.106  12.633  20.440  0.00  0.00    +0.000 HD
ENDBRANCH   3   5
BRANCH   1  16
ATOM     16  O   UNL     1      -3.672  13.129  22.058  0.00  0.00    +0.000 OA
BRANCH  16  20
ATOM     17  C   UNL     1      -7.393  14.321  23.330  0.00  0.00    +0.000 A 
ATOM     18  C   UNL     1      -6.223  14.786  23.903  0.00  0.00    +0.000 A 
ATOM     19  N   UNL     1      -4.992  14.406  23.504  0.00  0.00    +0.000 NA
ATOM     20  C   UNL     1      -4.927  13.528  22.480  0.00  0.00    +0.000 A 
ATOM     21  C   UNL     1      -6.039  12.993  21.823  0.00  0.00    +0.000 A 
ATOM     22  C   UNL     1      -7.295  13.409  22.283  0.00  0.00    +0.000 A 
BRANCH  21  23
ATOM     23  C   UNL     1      -5.898  12.056  20.641  0.00  0.00    +0.000 C 
ATOM     24  C   UNL     1      -5.595  12.820  19.341  0.00  0.00    +0.000 C 
ATOM     25  C   UNL     1      -5.503  11.853  18.170  0.00  0.00    +0.000 C 
ATOM     26  O   UNL     1      -6.703  11.088  18.057  0.00  0.00    +0.000 OA
ATOM     27  C   UNL     1      -6.942  10.283  19.211  0.00  0.00    +0.000 C 
ATOM     28  C   UNL     1      -7.126  11.155  20.449  0.00  0.00    +0.000 C 
ENDBRANCH  21  23
ENDBRANCH  16  20
ENDBRANCH   1  16
TORSDOF 4
ENDMDL
