MODEL 1
REMARK VINA RESULT:      -7.8      0.000      0.000
REMARK  Name = 
REMARK  4 active torsions:
REMARK  status: ('A' for Active; 'I' for Inactive)
REMARK    1  A    between atoms: C_1  and  C_2
REMARK    2  A    between atoms: N_4  and  C_5
REMARK    3  A    between atoms: C_13  and  C_14
REMARK    4  A    between atoms: C_17  and  O_18
REMARK                            x       y       z     vdW  Elec       q    Type
REMARK                         _______ _______ _______ _____ _____    ______ ____
ROOT
ATOM      1  C   UNL     1       4.831   5.304  18.430  0.00  0.00    +0.000 A 
ATOM      2  N   UNL     1       5.030   3.969  18.272  0.00  0.00    +0.000 NA
ATOM      3  C   UNL     1       3.844   3.421  18.323  0.00  0.00    +0.000 A 
ATOM      4  C   UNL     1       3.456   2.061  18.167  0.00  0.00    +0.000 A 
ATOM      5  C   UNL     1       2.161   1.717  18.278  0.00  0.00    +0.000 A 
ATOM      6  C   UNL     1       1.148   2.711  18.590  0.00  0.00    +0.000 A 
ATOM      7  C   UNL     1       1.507   3.995  18.735  0.00  0.00    +0.000 A 
ATOM      8  N   UNL     1       2.852   4.361  18.574  0.00  0.00    +0.000 N 
ATOM      9  C   UNL     1       3.479   5.614  18.607  0.00  0.00    +0.000 A 
ENDROOT
BRANCH   9  10
ATOM     10  C   UNL     1       2.797   6.911  18.768  0.00  0.00    +0.000 A 
ATOM     11  C   UNL     1       2.729   7.830  17.707  0.00  0.00    +0.000 A 
ATOM     12  C   UNL     1       2.023   9.033  17.834  0.00  0.00    +0.000 A 
ATOM     13  C   UNL     1       1.415   9.346  19.042  0.00  0.00    +0.000 A 
ATOM     14  C   UNL     1       1.490   8.472  20.115  0.00  0.00    +0.000 A 
ATOM     15  C   UNL     1       2.155   7.250  19.969  0.00  0.00    +0.000 A 
BRANCH  13  16
ATOM     16  O   UNL     1       0.724  10.507  19.218  0.00  0.00    +0.000 OA
ATOM     17  H   UNL     1      -0.010  10.348  19.834  0.00  0.00    +0.000 HD
ENDBRANCH  13  16
ENDBRANCH   9  10
BRANCH   1  21
ATOM     18  C   UNL     1       7.548   7.663  17.479  0.00  0.00    +0.000 C 
ATOM     19  C   UNL     1       6.328   6.811  17.229  0.00  0.00    +0.000 C 
ATOM     20  O   UNL     1       5.870   6.717  16.095  0.00  0.00    +0.000 OA
ATOM     21  N   UNL     1       5.880   6.199  18.385  0.00  0.00    +0.000 N 
ATOM     22  H   UNL     1       6.320   6.431  19.262  0.00  0.00    +0.000 HD
ENDBRANCH   1  21
TORSDOF 3
ENDMDL
MODEL 2
REMARK VINA RESULT:      -7.7      0.072      1.079
REMARK  Name = 
REMARK  4 active torsions:
REMARK  status: ('A' for Active; 'I' for Inactive)
REMARK    1  A    between atoms: C_1  and  C_2
REMARK    2  A    between atoms: N_4  and  C_5
REMARK    3  A    between atoms: C_13  and  C_14
REMARK    4  A    between atoms: C_17  and  O_18
REMARK                            x       y       z     vdW  Elec       q    Type
REMARK                         _______ _______ _______ _____ _____    ______ ____
ROOT
ATOM      1  C   UNL     1       4.792   5.303  18.448  0.00  0.00    +0.000 A 
ATOM      2  N   UNL     1       5.007   3.969  18.309  0.00  0.00    +0.000 NA
ATOM      3  C   UNL     1       3.826   3.409  18.353  0.00  0.00    +0.000 A 
ATOM      4  C   UNL     1       3.455   2.042  18.210  0.00  0.00    +0.000 A 
ATOM      5  C   UNL     1       2.161   1.686  18.311  0.00  0.00    +0.000 A 
ATOM      6  C   UNL     1       1.135   2.673  18.600  0.00  0.00    +0.000 A 
ATOM      7  C   UNL     1       1.479   3.962  18.733  0.00  0.00    +0.000 A 
ATOM      8  N   UNL     1       2.821   4.341  18.582  0.00  0.00    +0.000 N 
ATOM      9  C   UNL     1       3.435   5.601  18.607  0.00  0.00    +0.000 A 
ENDROOT
BRANCH   9  10
ATOM     10  C   UNL     1       2.737   6.892  18.744  0.00  0.00    +0.000 A 
ATOM     11  C   UNL     1       2.117   7.256  19.951  0.00  0.00    +0.000 A 
ATOM     12  C   UNL     1       1.513   8.511  20.107  0.00  0.00    +0.000 A 
ATOM     13  C   UNL     1       1.486   9.394  19.037  0.00  0.00    +0.000 A 
ATOM     14  C   UNL     1       2.063   9.051  17.824  0.00  0.00    +0.000 A 
ATOM     15  C   UNL     1       2.708   7.817  17.688  0.00  0.00    +0.000 A 
BRANCH  13  16
ATOM     16  O   UNL     1       0.903  10.623  19.135  0.00  0.00    +0.000 OA
ATOM     17  H   UNL     1       1.475  11.279  18.704  0.00  0.00    +0.000 HD
ENDBRANCH  13  16
ENDBRANCH   9  10
BRANCH   1  21
ATOM     18  C   UNL     1       7.517   7.653  17.497  0.00  0.00    +0.000 C 
ATOM     19  C   UNL     1       6.318   6.776  17.239  0.00  0.00    +0.000 C 
ATOM     20  O   UNL     1       5.904   6.626  16.093  0.00  0.00    +0.000 OA
ATOM     21  N   UNL     1       5.832   6.209  18.403  0.00  0.00    +0.000 N 
ATOM     22  H   UNL     1       6.235   6.485  19.285  0.00  0.00    +0.000 HD
ENDBRANCH   1  21
TORSDOF 3
ENDMDL
MODEL 3
REMARK VINA RESULT:      -7.7      2.670      6.022
REMARK  Name = 
REMARK  4 active torsions:
REMARK  status: ('A' for Active; 'I' for Inactive)
REMARK    1  A    between atoms: C_1  and  C_2
REMARK    2  A    between atoms: N_4  and  C_5
REMARK    3  A    between atoms: C_13  and  C_14
REMARK    4  A    between atoms: C_17  and  O_18
REMARK                            x       y       z     vdW  Elec       q    Type
REMARK                         _______ _______ _______ _____ _____    ______ ____
ROOT
ATOM      1  C   UNL     1       2.200   6.131  20.432  0.00  0.00    +0.000 A 
ATOM      2  N   UNL     1       1.439   7.145  20.920  0.00  0.00    +0.000 NA
ATOM      3  C   UNL     1       1.479   8.090  20.017  0.00  0.00    +0.000 A 
ATOM      4  C   UNL     1       0.825   9.354  19.984  0.00  0.00    +0.000 A 
ATOM      5  C   UNL     1       1.029  10.186  18.947  0.00  0.00    +0.000 A 
ATOM      6  C   UNL     1       1.937   9.830  17.871  0.00  0.00    +0.000 A 
ATOM      7  C   UNL     1       2.554   8.639  17.895  0.00  0.00    +0.000 A 
ATOM      8  N   UNL     1       2.306   7.751  18.953  0.00  0.00    +0.000 N 
ATOM      9  C   UNL     1       2.758   6.446  19.191  0.00  0.00    +0.000 A 
ENDROOT
BRANCH   9  10
ATOM     10  C   UNL     1       3.600   5.651  18.278  0.00  0.00    +0.000 A 
ATOM     11  C   UNL     1       4.956   5.965  18.085  0.00  0.00    +0.000 A 
ATOM     12  C   UNL     1       5.776   5.172  17.273  0.00  0.00    +0.000 A 
ATOM     13  C   UNL     1       5.232   4.080  16.610  0.00  0.00    +0.000 A 
ATOM     14  C   UNL     1       3.890   3.763  16.759  0.00  0.00    +0.000 A 
ATOM     15  C   UNL     1       3.087   4.529  17.608  0.00  0.00    +0.000 A 
BRANCH  13  16
ATOM     16  O   UNL     1       5.985   3.281  15.803  0.00  0.00    +0.000 OA
ATOM     17  H   UNL     1       6.702   3.810  15.414  0.00  0.00    +0.000 HD
ENDBRANCH  13  16
ENDBRANCH   9  10
BRANCH   1  21
ATOM     18  C   UNL     1       1.890   2.711  21.869  0.00  0.00    +0.000 C 
ATOM     19  C   UNL     1       1.562   3.822  20.903  0.00  0.00    +0.000 C 
ATOM     20  O   UNL     1       0.677   3.664  20.068  0.00  0.00    +0.000 OA
ATOM     21  N   UNL     1       2.343   4.943  21.120  0.00  0.00    +0.000 N 
ATOM     22  H   UNL     1       3.084   4.897  21.802  0.00  0.00    +0.000 HD
ENDBRANCH   1  21
TORSDOF 3
ENDMDL
MODEL 4
REMARK VINA RESULT:      -7.6      2.671      6.034
REMARK  Name = 
REMARK  4 active torsions:
REMARK  status: ('A' for Active; 'I' for Inactive)
REMARK    1  A    between atoms: C_1  and  C_2
REMARK    2  A    between atoms: N_4  and  C_5
REMARK    3  A    between atoms: C_13  and  C_14
REMARK    4  A    between atoms: C_17  and  O_18
REMARK                            x       y       z     vdW  Elec       q    Type
REMARK                         _______ _______ _______ _____ _____    ______ ____
ROOT
ATOM      1  C   UNL     1       2.176   6.094  20.463  0.00  0.00    +0.000 A 
ATOM      2  N   UNL     1       1.416   7.122  20.924  0.00  0.00    +0.000 NA
ATOM      3  C   UNL     1       1.484   8.056  20.011  0.00  0.00    +0.000 A 
ATOM      4  C   UNL     1       0.845   9.326  19.950  0.00  0.00    +0.000 A 
ATOM      5  C   UNL     1       1.079  10.144  18.908  0.00  0.00    +0.000 A 
ATOM      6  C   UNL     1       2.006   9.766  17.855  0.00  0.00    +0.000 A 
ATOM      7  C   UNL     1       2.609   8.569  17.906  0.00  0.00    +0.000 A 
ATOM      8  N   UNL     1       2.330   7.696  18.968  0.00  0.00    +0.000 N 
ATOM      9  C   UNL     1       2.763   6.390  19.230  0.00  0.00    +0.000 A 
ENDROOT
BRANCH   9  10
ATOM     10  C   UNL     1       3.616   5.576  18.344  0.00  0.00    +0.000 A 
ATOM     11  C   UNL     1       3.086   4.493  17.623  0.00  0.00    +0.000 A 
ATOM     12  C   UNL     1       3.876   3.760  16.729  0.00  0.00    +0.000 A 
ATOM     13  C   UNL     1       5.219   4.079  16.583  0.00  0.00    +0.000 A 
ATOM     14  C   UNL     1       5.777   5.124  17.304  0.00  0.00    +0.000 A 
ATOM     15  C   UNL     1       4.973   5.883  18.159  0.00  0.00    +0.000 A 
BRANCH  13  16
ATOM     16  O   UNL     1       6.033   3.391  15.733  0.00  0.00    +0.000 OA
ATOM     17  H   UNL     1       6.089   3.872  14.891  0.00  0.00    +0.000 HD
ENDBRANCH  13  16
ENDBRANCH   9  10
BRANCH   1  21
ATOM     18  C   UNL     1       1.811   2.688  21.919  0.00  0.00    +0.000 C 
ATOM     19  C   UNL     1       1.522   3.789  20.930  0.00  0.00    +0.000 C 
ATOM     20  O   UNL     1       0.670   3.623  20.062  0.00  0.00    +0.000 OA
ATOM     21  N   UNL     1       2.292   4.913  21.167  0.00  0.00    +0.000 N 
ATOM     22  H   UNL     1       3.006   4.874  21.878  0.00  0.00    +0.000 HD
ENDBRANCH   1  21
TORSDOF 3
ENDMDL
MODEL 5
REMARK VINA RESULT:      -7.5      1.015      1.015
REMARK  Name = 
REMARK  4 active torsions:
REMARK  status: ('A' for Active; 'I' for Inactive)
REMARK    1  A    between atoms: C_1  and  C_2
REMARK    2  A    between atoms: N_4  and  C_5
REMARK    3  A    between atoms: C_13  and  C_14
REMARK    4  A    between atoms: C_17  and  O_18
REMARK                            x       y       z     vdW  Elec       q    Type
REMARK                         _______ _______ _______ _____ _____    ______ ____
ROOT
ATOM      1  C   UNL     1       4.619   5.163  18.180  0.00  0.00    +0.000 A 
ATOM      2  N   UNL     1       4.758   3.815  18.075  0.00  0.00    +0.000 NA
ATOM      3  C   UNL     1       3.586   3.311  18.361  0.00  0.00    +0.000 A 
ATOM      4  C   UNL     1       3.147   1.957  18.360  0.00  0.00    +0.000 A 
ATOM      5  C   UNL     1       1.882   1.663  18.711  0.00  0.00    +0.000 A 
ATOM      6  C   UNL     1       0.961   2.707  19.126  0.00  0.00    +0.000 A 
ATOM      7  C   UNL     1       1.368   3.985  19.127  0.00  0.00    +0.000 A 
ATOM      8  N   UNL     1       2.673   4.296  18.717  0.00  0.00    +0.000 N 
ATOM      9  C   UNL     1       3.325   5.527  18.564  0.00  0.00    +0.000 A 
ENDROOT
BRANCH   9  10
ATOM     10  C   UNL     1       2.710   6.854  18.755  0.00  0.00    +0.000 A 
ATOM     11  C   UNL     1       2.635   7.776  17.698  0.00  0.00    +0.000 A 
ATOM     12  C   UNL     1       1.990   9.010  17.857  0.00  0.00    +0.000 A 
ATOM     13  C   UNL     1       1.454   9.348  19.091  0.00  0.00    +0.000 A 
ATOM     14  C   UNL     1       1.539   8.469  20.161  0.00  0.00    +0.000 A 
ATOM     15  C   UNL     1       2.140   7.219  19.985  0.00  0.00    +0.000 A 
BRANCH  13  16
ATOM     16  O   UNL     1       0.824  10.538  19.299  0.00  0.00    +0.000 OA
ATOM     17  H   UNL     1       1.131  11.179  18.637  0.00  0.00    +0.000 HD
ENDBRANCH  13  16
ENDBRANCH   9  10
BRANCH   1  21
ATOM     18  C   UNL     1       7.779   7.129  18.114  0.00  0.00    +0.000 C 
ATOM     19  C   UNL     1       6.870   6.020  18.580  0.00  0.00    +0.000 C 
ATOM     20  O   UNL     1       7.234   5.267  19.478  0.00  0.00    +0.000 OA
ATOM     21  N   UNL     1       5.665   6.019  17.900  0.00  0.00    +0.000 N 
ATOM     22  H   UNL     1       5.538   6.660  17.133  0.00  0.00    +0.000 HD
ENDBRANCH   1  21
TORSDOF 3
ENDMDL
MODEL 6
REMARK VINA RESULT:      -7.4      2.037      4.879
REMARK  Name = 
REMARK  4 active torsions:
REMARK  status: ('A' for Active; 'I' for Inactive)
REMARK    1  A    between atoms: C_1  and  C_2
REMARK    2  A    between atoms: N_4  and  C_5
REMARK    3  A    between atoms: C_13  and  C_14
REMARK    4  A    between atoms: C_17  and  O_18
REMARK                            x       y       z     vdW  Elec       q    Type
REMARK                         _______ _______ _______ _____ _____    ______ ____
ROOT
ATOM      1  C   UNL     1       2.742   6.161  18.853  0.00  0.00    +0.000 A 
ATOM      2  N   UNL     1       1.961   5.780  19.898  0.00  0.00    +0.000 NA
ATOM      3  C   UNL     1       2.429   4.624  20.292  0.00  0.00    +0.000 A 
ATOM      4  C   UNL     1       2.025   3.793  21.375  0.00  0.00    +0.000 A 
ATOM      5  C   UNL     1       2.647   2.619  21.585  0.00  0.00    +0.000 A 
ATOM      6  C   UNL     1       3.706   2.165  20.701  0.00  0.00    +0.000 A 
ATOM      7  C   UNL     1       4.093   2.945  19.680  0.00  0.00    +0.000 A 
ATOM      8  N   UNL     1       3.476   4.190  19.488  0.00  0.00    +0.000 N 
ATOM      9  C   UNL     1       3.723   5.210  18.559  0.00  0.00    +0.000 A 
ENDROOT
BRANCH   9  10
ATOM     10  C   UNL     1       4.804   5.214  17.556  0.00  0.00    +0.000 A 
ATOM     11  C   UNL     1       4.703   4.454  16.379  0.00  0.00    +0.000 A 
ATOM     12  C   UNL     1       5.696   4.508  15.393  0.00  0.00    +0.000 A 
ATOM     13  C   UNL     1       6.823   5.292  15.599  0.00  0.00    +0.000 A 
ATOM     14  C   UNL     1       6.964   6.030  16.764  0.00  0.00    +0.000 A 
ATOM     15  C   UNL     1       5.948   6.010  17.724  0.00  0.00    +0.000 A 
BRANCH  13  16
ATOM     16  O   UNL     1       7.821   5.372  14.674  0.00  0.00    +0.000 OA
ATOM     17  H   UNL     1       7.443   5.246  13.789  0.00  0.00    +0.000 HD
ENDBRANCH  13  16
ENDBRANCH   9  10
BRANCH   1  21
ATOM     18  C   UNL     1       1.799   9.613  17.830  0.00  0.00    +0.000 C 
ATOM     19  C   UNL     1       1.950   8.470  18.802  0.00  0.00    +0.000 C 
ATOM     20  O   UNL     1       1.540   8.586  19.952  0.00  0.00    +0.000 OA
ATOM     21  N   UNL     1       2.552   7.371  18.216  0.00  0.00    +0.000 N 
ATOM     22  H   UNL     1       2.903   7.451  17.275  0.00  0.00    +0.000 HD
ENDBRANCH   1  21
TORSDOF 3
ENDMDL
MODEL 7
REMARK VINA RESULT:      -7.4      2.013      4.911
REMARK  Name = 
REMARK  4 active torsions:
REMARK  status: ('A' for Active; 'I' for Inactive)
REMARK    1  A    between atoms: C_1  and  C_2
REMARK    2  A    between atoms: N_4  and  C_5
REMARK    3  A    between atoms: C_13  and  C_14
REMARK    4  A    between atoms: C_17  and  O_18
REMARK                            x       y       z     vdW  Elec       q    Type
REMARK                         _______ _______ _______ _____ _____    ______ ____
ROOT
ATOM      1  C   UNL     1       2.642   6.180  18.852  0.00  0.00    +0.000 A 
ATOM      2  N   UNL     1       1.874   5.760  19.892  0.00  0.00    +0.000 NA
ATOM      3  C   UNL     1       2.382   4.617  20.275  0.00  0.00    +0.000 A 
ATOM      4  C   UNL     1       2.007   3.762  21.348  0.00  0.00    +0.000 A 
ATOM      5  C   UNL     1       2.670   2.609  21.548  0.00  0.00    +0.000 A 
ATOM      6  C   UNL     1       3.746   2.203  20.662  0.00  0.00    +0.000 A 
ATOM      7  C   UNL     1       4.107   3.006  19.650  0.00  0.00    +0.000 A 
ATOM      8  N   UNL     1       3.446   4.230  19.468  0.00  0.00    +0.000 N 
ATOM      9  C   UNL     1       3.657   5.268  18.550  0.00  0.00    +0.000 A 
ENDROOT
BRANCH   9  10
ATOM     10  C   UNL     1       4.739   5.321  17.550  0.00  0.00    +0.000 A 
ATOM     11  C   UNL     1       5.884   6.107  17.763  0.00  0.00    +0.000 A 
ATOM     12  C   UNL     1       6.945   6.106  16.848  0.00  0.00    +0.000 A 
ATOM     13  C   UNL     1       6.847   5.351  15.687  0.00  0.00    +0.000 A 
ATOM     14  C   UNL     1       5.716   4.589  15.436  0.00  0.00    +0.000 A 
ATOM     15  C   UNL     1       4.681   4.554  16.376  0.00  0.00    +0.000 A 
BRANCH  13  16
ATOM     16  O   UNL     1       7.847   5.323  14.762  0.00  0.00    +0.000 OA
ATOM     17  H   UNL     1       7.466   5.127  13.890  0.00  0.00    +0.000 HD
ENDBRANCH  13  16
ENDBRANCH   9  10
BRANCH   1  21
ATOM     18  C   UNL     1       1.648   9.636  17.895  0.00  0.00    +0.000 C 
ATOM     19  C   UNL     1       1.872   8.496  18.857  0.00  0.00    +0.000 C 
ATOM     20  O   UNL     1       1.564   8.622  20.037  0.00  0.00    +0.000 OA
ATOM     21  N   UNL     1       2.410   7.388  18.227  0.00  0.00    +0.000 N 
ATOM     22  H   UNL     1       2.678   7.459  17.258  0.00  0.00    +0.000 HD
ENDBRANCH   1  21
TORSDOF 3
ENDMDL
MODEL 8
REMARK VINA RESULT:      -7.2      3.694      5.155
REMARK  Name = 
REMARK  4 active torsions:
REMARK  status: ('A' for Active; 'I' for Inactive)
REMARK    1  A    between atoms: C_1  and  C_2
REMARK    2  A    between atoms: N_4  and  C_5
REMARK    3  A    between atoms: C_13  and  C_14
REMARK    4  A    between atoms: C_17  and  O_18
REMARK                            x       y       z     vdW  Elec       q    Type
REMARK                         _______ _______ _______ _____ _____    ______ ____
ROOT
ATOM      1  C   UNL     1       7.057   5.520  15.729  0.00  0.00    +0.000 A 
ATOM      2  N   UNL     1       7.835   5.470  14.616  0.00  0.00    +0.000 NA
ATOM      3  C   UNL     1       7.148   4.801  13.728  0.00  0.00    +0.000 A 
ATOM      4  C   UNL     1       7.459   4.490  12.374  0.00  0.00    +0.000 A 
ATOM      5  C   UNL     1       6.598   3.763  11.640  0.00  0.00    +0.000 A 
ATOM      6  C   UNL     1       5.366   3.256  12.218  0.00  0.00    +0.000 A 
ATOM      7  C   UNL     1       5.067   3.547  13.492  0.00  0.00    +0.000 A 
ATOM      8  N   UNL     1       5.942   4.345  14.245  0.00  0.00    +0.000 N 
ATOM      9  C   UNL     1       5.846   4.844  15.551  0.00  0.00    +0.000 A 
ENDROOT
BRANCH   9  10
ATOM     10  C   UNL     1       4.691   4.675  16.451  0.00  0.00    +0.000 A 
ATOM     11  C   UNL     1       4.192   3.398  16.757  0.00  0.00    +0.000 A 
ATOM     12  C   UNL     1       3.139   3.229  17.665  0.00  0.00    +0.000 A 
ATOM     13  C   UNL     1       2.546   4.345  18.241  0.00  0.00    +0.000 A 
ATOM     14  C   UNL     1       2.999   5.619  17.936  0.00  0.00    +0.000 A 
ATOM     15  C   UNL     1       4.082   5.780  17.066  0.00  0.00    +0.000 A 
BRANCH  13  16
ATOM     16  O   UNL     1       1.514   4.234  19.124  0.00  0.00    +0.000 OA
ATOM     17  H   UNL     1       0.848   3.630  18.759  0.00  0.00    +0.000 HD
ENDBRANCH  13  16
ENDBRANCH   9  10
BRANCH   1  21
ATOM     18  C   UNL     1       8.102   6.587  19.138  0.00  0.00    +0.000 C 
ATOM     19  C   UNL     1       7.790   5.583  18.056  0.00  0.00    +0.000 C 
ATOM     20  O   UNL     1       7.831   4.383  18.306  0.00  0.00    +0.000 OA
ATOM     21  N   UNL     1       7.461   6.197  16.861  0.00  0.00    +0.000 N 
ATOM     22  H   UNL     1       7.542   7.199  16.789  0.00  0.00    +0.000 HD
ENDBRANCH   1  21
TORSDOF 3
ENDMDL
MODEL 9
REMARK VINA RESULT:      -7.2      3.697      5.139
REMARK  Name = 
REMARK  4 active torsions:
REMARK  status: ('A' for Active; 'I' for Inactive)
REMARK    1  A    between atoms: C_1  and  C_2
REMARK    2  A    between atoms: N_4  and  C_5
REMARK    3  A    between atoms: C_13  and  C_14
REMARK    4  A    between atoms: C_17  and  O_18
REMARK                            x       y       z     vdW  Elec       q    Type
REMARK                         _______ _______ _______ _____ _____    ______ ____
ROOT
ATOM      1  C   UNL     1       7.032   5.511  15.731  0.00  0.00    +0.000 A 
ATOM      2  N   UNL     1       7.803   5.469  14.613  0.00  0.00    +0.000 NA
ATOM      3  C   UNL     1       7.112   4.800  13.727  0.00  0.00    +0.000 A 
ATOM      4  C   UNL     1       7.413   4.496  12.370  0.00  0.00    +0.000 A 
ATOM      5  C   UNL     1       6.550   3.767  11.639  0.00  0.00    +0.000 A 
ATOM      6  C   UNL     1       5.325   3.253  12.225  0.00  0.00    +0.000 A 
ATOM      7  C   UNL     1       5.034   3.538  13.503  0.00  0.00    +0.000 A 
ATOM      8  N   UNL     1       5.911   4.337  14.252  0.00  0.00    +0.000 N 
ATOM      9  C   UNL     1       5.823   4.831  15.560  0.00  0.00    +0.000 A 
ENDROOT
BRANCH   9  10
ATOM     10  C   UNL     1       4.676   4.654  16.469  0.00  0.00    +0.000 A 
ATOM     11  C   UNL     1       4.063   5.757  17.085  0.00  0.00    +0.000 A 
ATOM     12  C   UNL     1       2.930   5.600  17.894  0.00  0.00    +0.000 A 
ATOM     13  C   UNL     1       2.429   4.327  18.129  0.00  0.00    +0.000 A 
ATOM     14  C   UNL     1       3.030   3.216  17.558  0.00  0.00    +0.000 A 
ATOM     15  C   UNL     1       4.131   3.383  16.712  0.00  0.00    +0.000 A 
BRANCH  13  16
ATOM     16  O   UNL     1       1.334   4.120  18.915  0.00  0.00    +0.000 OA
ATOM     17  H   UNL     1       1.627   3.937  19.823  0.00  0.00    +0.000 HD
ENDBRANCH  13  16
ENDBRANCH   9  10
BRANCH   1  21
ATOM     18  C   UNL     1       8.066   6.577  19.145  0.00  0.00    +0.000 C 
ATOM     19  C   UNL     1       7.738   5.573  18.067  0.00  0.00    +0.000 C 
ATOM     20  O   UNL     1       7.740   4.374  18.328  0.00  0.00    +0.000 OA
ATOM     21  N   UNL     1       7.443   6.186  16.863  0.00  0.00    +0.000 N 
ATOM     22  H   UNL     1       7.554   7.185  16.784  0.00  0.00    +0.000 HD
ENDBRANCH   1  21
TORSDOF 3
ENDMDL
