MODEL 1
REMARK VINA RESULT:      -7.3      0.000      0.000
REMARK  Name = 
REMARK  7 active torsions:
REMARK  status: ('A' for Active; 'I' for Inactive)
REMARK    1  A    between atoms: C_2  and  C_3
REMARK    2  A    between atoms: C_4  and  C_5
REMARK    3  A    between atoms: C_12  and  C_13
REMARK    4  A    between atoms: N_23  and  C_24
REMARK    5  A    between atoms: C_24  and  C_25
REMARK    6  A    between atoms: C_25  and  C_26
REMARK    7  A    between atoms: C_26  and  C_27
REMARK                            x       y       z     vdW  Elec       q    Type
REMARK                         _______ _______ _______ _____ _____    ______ ____
ROOT
ATOM      1  C   UNL     1      -1.933  12.064  21.985  0.00  0.00    +0.000 A 
ATOM      2  C   UNL     1      -2.089  12.909  20.887  0.00  0.00    +0.000 A 
ATOM      3  C   UNL     1      -0.984  12.636  19.984  0.00  0.00    +0.000 A 
ATOM      4  C   UNL     1      -0.227  11.620  20.569  0.00  0.00    +0.000 A 
ATOM      5  N   UNL     1      -0.795  11.322  21.786  0.00  0.00    +0.000 N 
ATOM      6  C   UNL     1      -0.287  10.288  22.679  0.00  0.00    +0.000 C 
ATOM      7  C   UNL     1       1.103   9.793  22.273  0.00  0.00    +0.000 C 
ATOM      8  N   UNL     1       1.216   9.685  20.818  0.00  0.00    +0.000 N 
ATOM      9  C   UNL     1       1.504   8.573  20.055  0.00  0.00    +0.000 C 
ATOM     10  O   UNL     1       1.516   8.601  18.825  0.00  0.00    +0.000 OA
ATOM     11  N   UNL     1       1.764   7.412  20.729  0.00  0.00    +0.000 N 
ATOM     12  C   UNL     1       1.029  10.942  20.108  0.00  0.00    +0.000 C 
ATOM     13  H   UNL     1       2.085   7.474  21.679  0.00  0.00    +0.000 HD
ENDROOT
BRANCH   2  14
ATOM     14  C   UNL     1      -3.261  13.779  20.688  0.00  0.00    +0.000 A 
ATOM     15  C   UNL     1      -3.233  15.149  21.000  0.00  0.00    +0.000 A 
ATOM     16  C   UNL     1      -4.398  15.926  20.955  0.00  0.00    +0.000 A 
ATOM     17  C   UNL     1      -5.600  15.354  20.553  0.00  0.00    +0.000 A 
ATOM     18  C   UNL     1      -5.621  14.017  20.181  0.00  0.00    +0.000 A 
ATOM     19  F   UNL     1      -6.773  13.466  19.776  0.00  0.00    +0.000 F 
ATOM     20  C   UNL     1      -4.474  13.230  20.249  0.00  0.00    +0.000 A 
ENDBRANCH   2  14
BRANCH   3  21
ATOM     21  C   UNL     1      -0.665  13.322  18.729  0.00  0.00    +0.000 C 
ATOM     22  N   UNL     1      -1.125  12.746  17.580  0.00  0.00    +0.000 N 
ATOM     23  O   UNL     1      -0.033  14.370  18.677  0.00  0.00    +0.000 OA
ATOM     24  H   UNL     1      -1.903  12.103  17.587  0.00  0.00    +0.000 HD
ATOM     25  H   UNL     1      -0.951  13.248  16.721  0.00  0.00    +0.000 HD
ENDBRANCH   3  21
BRANCH   1  27
ATOM     26  N   UNL     1      -3.471  11.727  24.041  0.00  0.00    +0.000 NA
ATOM     27  C   UNL     1      -2.767  11.904  23.135  0.00  0.00    +0.000 C 
ENDBRANCH   1  27
BRANCH  11  28
ATOM     28  C   UNL     1       2.108   6.204  19.995  0.00  0.00    +0.000 C 
BRANCH  28  29
ATOM     29  C   UNL     1       1.920   4.931  20.824  0.00  0.00    +0.000 C 
BRANCH  29  30
ATOM     30  C   UNL     1       0.841   4.017  20.241  0.00  0.00    +0.000 C 
BRANCH  30  31
ATOM     31  C   UNL     1       1.281   3.303  18.977  0.00  0.00    +0.000 C 
ATOM     32  F   UNL     1       2.589   2.979  18.983  0.00  0.00    +0.000 F 
ATOM     33  F   UNL     1       0.575   2.162  18.809  0.00  0.00    +0.000 F 
ATOM     34  F   UNL     1       1.055   4.079  17.893  0.00  0.00    +0.000 F 
ENDBRANCH  30  31
ENDBRANCH  29  30
ENDBRANCH  28  29
ENDBRANCH  11  28
TORSDOF 7
ENDMDL
MODEL 2
REMARK VINA RESULT:      -7.1      0.917      1.408
REMARK  Name = 
REMARK  7 active torsions:
REMARK  status: ('A' for Active; 'I' for Inactive)
REMARK    1  A    between atoms: C_2  and  C_3
REMARK    2  A    between atoms: C_4  and  C_5
REMARK    3  A    between atoms: C_12  and  C_13
REMARK    4  A    between atoms: N_23  and  C_24
REMARK    5  A    between atoms: C_24  and  C_25
REMARK    6  A    between atoms: C_25  and  C_26
REMARK    7  A    between atoms: C_26  and  C_27
REMARK                            x       y       z     vdW  Elec       q    Type
REMARK                         _______ _______ _______ _____ _____    ______ ____
ROOT
ATOM      1  C   UNL     1      -2.074  12.146  22.115  0.00  0.00    +0.000 A 
ATOM      2  C   UNL     1      -2.197  13.021  21.038  0.00  0.00    +0.000 A 
ATOM      3  C   UNL     1      -1.071  12.767  20.156  0.00  0.00    +0.000 A 
ATOM      4  C   UNL     1      -0.334  11.731  20.732  0.00  0.00    +0.000 A 
ATOM      5  N   UNL     1      -0.934  11.403  21.925  0.00  0.00    +0.000 N 
ATOM      6  C   UNL     1      -0.454  10.342  22.803  0.00  0.00    +0.000 C 
ATOM      7  C   UNL     1       0.943   9.851  22.419  0.00  0.00    +0.000 C 
ATOM      8  N   UNL     1       1.093   9.782  20.965  0.00  0.00    +0.000 N 
ATOM      9  C   UNL     1       1.395   8.690  20.179  0.00  0.00    +0.000 C 
ATOM     10  O   UNL     1       1.439   8.752  18.951  0.00  0.00    +0.000 OA
ATOM     11  N   UNL     1       1.633   7.509  20.828  0.00  0.00    +0.000 N 
ATOM     12  C   UNL     1       0.930  11.059  20.285  0.00  0.00    +0.000 C 
ATOM     13  H   UNL     1       1.928   7.544  21.787  0.00  0.00    +0.000 HD
ENDROOT
BRANCH   2  14
ATOM     14  C   UNL     1      -3.360  13.902  20.832  0.00  0.00    +0.000 A 
ATOM     15  C   UNL     1      -4.587  13.414  20.353  0.00  0.00    +0.000 A 
ATOM     16  C   UNL     1      -5.631  14.285  20.012  0.00  0.00    +0.000 A 
ATOM     17  C   UNL     1      -5.477  15.656  20.190  0.00  0.00    +0.000 A 
ATOM     18  C   UNL     1      -4.291  16.139  20.725  0.00  0.00    +0.000 A 
ATOM     19  F   UNL     1      -4.145  17.457  20.916  0.00  0.00    +0.000 F 
ATOM     20  C   UNL     1      -3.239  15.283  21.041  0.00  0.00    +0.000 A 
ENDBRANCH   2  14
BRANCH   3  21
ATOM     21  C   UNL     1      -0.716  13.485  18.929  0.00  0.00    +0.000 C 
ATOM     22  N   UNL     1      -1.044  12.883  17.749  0.00  0.00    +0.000 N 
ATOM     23  O   UNL     1      -0.167  14.580  18.925  0.00  0.00    +0.000 OA
ATOM     24  H   UNL     1      -1.766  12.180  17.697  0.00  0.00    +0.000 HD
ATOM     25  H   UNL     1      -0.847  13.403  16.906  0.00  0.00    +0.000 HD
ENDBRANCH   3  21
BRANCH   1  27
ATOM     26  N   UNL     1      -3.640  11.867  24.160  0.00  0.00    +0.000 NA
ATOM     27  C   UNL     1      -2.938  11.959  23.239  0.00  0.00    +0.000 C 
ENDBRANCH   1  27
BRANCH  11  28
ATOM     28  C   UNL     1       1.989   6.320  20.070  0.00  0.00    +0.000 C 
BRANCH  28  29
ATOM     29  C   UNL     1       1.872   5.034  20.891  0.00  0.00    +0.000 C 
BRANCH  29  30
ATOM     30  C   UNL     1       0.875   4.048  20.282  0.00  0.00    +0.000 C 
BRANCH  30  31
ATOM     31  C   UNL     1       1.417   3.327  19.062  0.00  0.00    +0.000 C 
ATOM     32  F   UNL     1       0.975   2.059  18.961  0.00  0.00    +0.000 F 
ATOM     33  F   UNL     1       1.061   3.979  17.931  0.00  0.00    +0.000 F 
ATOM     34  F   UNL     1       2.768   3.291  19.097  0.00  0.00    +0.000 F 
ENDBRANCH  30  31
ENDBRANCH  29  30
ENDBRANCH  28  29
ENDBRANCH  11  28
TORSDOF 7
ENDMDL
MODEL 3
REMARK VINA RESULT:      -7.1      0.720      1.021
REMARK  Name = 
REMARK  7 active torsions:
REMARK  status: ('A' for Active; 'I' for Inactive)
REMARK    1  A    between atoms: C_2  and  C_3
REMARK    2  A    between atoms: C_4  and  C_5
REMARK    3  A    between atoms: C_12  and  C_13
REMARK    4  A    between atoms: N_23  and  C_24
REMARK    5  A    between atoms: C_24  and  C_25
REMARK    6  A    between atoms: C_25  and  C_26
REMARK    7  A    between atoms: C_26  and  C_27
REMARK                            x       y       z     vdW  Elec       q    Type
REMARK                         _______ _______ _______ _____ _____    ______ ____
ROOT
ATOM      1  C   UNL     1      -2.070  12.051  22.009  0.00  0.00    +0.000 A 
ATOM      2  C   UNL     1      -2.228  12.843  20.874  0.00  0.00    +0.000 A 
ATOM      3  C   UNL     1      -1.111  12.546  19.993  0.00  0.00    +0.000 A 
ATOM      4  C   UNL     1      -0.345  11.569  20.629  0.00  0.00    +0.000 A 
ATOM      5  N   UNL     1      -0.919  11.317  21.853  0.00  0.00    +0.000 N 
ATOM      6  C   UNL     1      -0.403  10.332  22.797  0.00  0.00    +0.000 C 
ATOM      7  C   UNL     1       0.997   9.840  22.424  0.00  0.00    +0.000 C 
ATOM      8  N   UNL     1       1.125   9.669  20.977  0.00  0.00    +0.000 N 
ATOM      9  C   UNL     1       1.435   8.528  20.267  0.00  0.00    +0.000 C 
ATOM     10  O   UNL     1       1.458   8.502  19.037  0.00  0.00    +0.000 OA
ATOM     11  N   UNL     1       1.707   7.402  20.994  0.00  0.00    +0.000 N 
ATOM     12  C   UNL     1       0.925  10.890  20.209  0.00  0.00    +0.000 C 
ATOM     13  H   UNL     1       2.018   7.512  21.943  0.00  0.00    +0.000 HD
ENDROOT
BRANCH   2  14
ATOM     14  C   UNL     1      -3.411  13.685  20.626  0.00  0.00    +0.000 A 
ATOM     15  C   UNL     1      -3.427  15.055  20.937  0.00  0.00    +0.000 A 
ATOM     16  C   UNL     1      -4.607  15.806  20.845  0.00  0.00    +0.000 A 
ATOM     17  C   UNL     1      -5.778  15.205  20.395  0.00  0.00    +0.000 A 
ATOM     18  C   UNL     1      -5.753  13.869  20.023  0.00  0.00    +0.000 A 
ATOM     19  F   UNL     1      -6.874  13.291  19.571  0.00  0.00    +0.000 F 
ATOM     20  C   UNL     1      -4.591  13.108  20.138  0.00  0.00    +0.000 A 
ENDBRANCH   2  14
BRANCH   3  21
ATOM     21  C   UNL     1      -0.791  13.181  18.711  0.00  0.00    +0.000 C 
ATOM     22  N   UNL     1      -1.247  12.556  17.586  0.00  0.00    +0.000 N 
ATOM     23  O   UNL     1      -0.161  14.227  18.617  0.00  0.00    +0.000 OA
ATOM     24  H   UNL     1      -2.024  11.912  17.619  0.00  0.00    +0.000 HD
ATOM     25  H   UNL     1      -1.072  13.022  16.708  0.00  0.00    +0.000 HD
ENDBRANCH   3  21
BRANCH   1  27
ATOM     26  N   UNL     1      -3.582  11.771  24.093  0.00  0.00    +0.000 NA
ATOM     27  C   UNL     1      -2.911  11.929  23.159  0.00  0.00    +0.000 C 
ENDBRANCH   1  27
BRANCH  11  28
ATOM     28  C   UNL     1       2.075   6.168  20.318  0.00  0.00    +0.000 C 
BRANCH  28  29
ATOM     29  C   UNL     1       1.089   5.029  20.583  0.00  0.00    +0.000 C 
BRANCH  29  30
ATOM     30  C   UNL     1       1.230   3.895  19.567  0.00  0.00    +0.000 C 
BRANCH  30  31
ATOM     31  C   UNL     1       1.780   2.616  20.171  0.00  0.00    +0.000 C 
ATOM     32  F   UNL     1       1.509   1.525  19.430  0.00  0.00    +0.000 F 
ATOM     33  F   UNL     1       3.123   2.698  20.309  0.00  0.00    +0.000 F 
ATOM     34  F   UNL     1       1.262   2.415  21.404  0.00  0.00    +0.000 F 
ENDBRANCH  30  31
ENDBRANCH  29  30
ENDBRANCH  28  29
ENDBRANCH  11  28
TORSDOF 7
ENDMDL
MODEL 4
REMARK VINA RESULT:      -6.8      1.030      1.096
REMARK  Name = 
REMARK  7 active torsions:
REMARK  status: ('A' for Active; 'I' for Inactive)
REMARK    1  A    between atoms: C_2  and  C_3
REMARK    2  A    between atoms: C_4  and  C_5
REMARK    3  A    between atoms: C_12  and  C_13
REMARK    4  A    between atoms: N_23  and  C_24
REMARK    5  A    between atoms: C_24  and  C_25
REMARK    6  A    between atoms: C_25  and  C_26
REMARK    7  A    between atoms: C_26  and  C_27
REMARK                            x       y       z     vdW  Elec       q    Type
REMARK                         _______ _______ _______ _____ _____    ______ ____
ROOT
ATOM      1  C   UNL     1      -2.120  12.226  22.263  0.00  0.00    +0.000 A 
ATOM      2  C   UNL     1      -2.129  13.145  21.216  0.00  0.00    +0.000 A 
ATOM      3  C   UNL     1      -0.957  12.869  20.403  0.00  0.00    +0.000 A 
ATOM      4  C   UNL     1      -0.310  11.779  20.985  0.00  0.00    +0.000 A 
ATOM      5  N   UNL     1      -1.005  11.436  22.121  0.00  0.00    +0.000 N 
ATOM      6  C   UNL     1      -0.635  10.321  22.985  0.00  0.00    +0.000 C 
ATOM      7  C   UNL     1       0.761   9.778  22.676  0.00  0.00    +0.000 C 
ATOM      8  N   UNL     1       1.008   9.757  21.234  0.00  0.00    +0.000 N 
ATOM      9  C   UNL     1       1.313   8.681  20.427  0.00  0.00    +0.000 C 
ATOM     10  O   UNL     1       1.444   8.786  19.208  0.00  0.00    +0.000 OA
ATOM     11  N   UNL     1       1.452   7.467  21.042  0.00  0.00    +0.000 N 
ATOM     12  C   UNL     1       0.950  11.064  20.596  0.00  0.00    +0.000 C 
ATOM     13  H   UNL     1       1.682   7.451  22.020  0.00  0.00    +0.000 HD
ENDROOT
BRANCH   2  14
ATOM     14  C   UNL     1      -3.233  14.088  20.969  0.00  0.00    +0.000 A 
ATOM     15  C   UNL     1      -3.126  15.456  21.274  0.00  0.00    +0.000 A 
ATOM     16  C   UNL     1      -4.235  16.308  21.182  0.00  0.00    +0.000 A 
ATOM     17  C   UNL     1      -5.457  15.812  20.739  0.00  0.00    +0.000 A 
ATOM     18  C   UNL     1      -5.552  14.477  20.374  0.00  0.00    +0.000 A 
ATOM     19  F   UNL     1      -6.722  13.999  19.929  0.00  0.00    +0.000 F 
ATOM     20  C   UNL     1      -4.462  13.617  20.488  0.00  0.00    +0.000 A 
ENDBRANCH   2  14
BRANCH   3  21
ATOM     21  C   UNL     1      -0.487  13.615  19.232  0.00  0.00    +0.000 C 
ATOM     22  N   UNL     1       0.138  14.805  19.472  0.00  0.00    +0.000 N 
ATOM     23  O   UNL     1      -0.616  13.214  18.082  0.00  0.00    +0.000 OA
ATOM     24  H   UNL     1       0.556  15.010  20.367  0.00  0.00    +0.000 HD
ATOM     25  H   UNL     1       0.508  15.291  18.668  0.00  0.00    +0.000 HD
ENDBRANCH   3  21
BRANCH   1  27
ATOM     26  N   UNL     1      -3.790  11.887  24.214  0.00  0.00    +0.000 NA
ATOM     27  C   UNL     1      -3.067  12.038  23.318  0.00  0.00    +0.000 C 
ENDBRANCH   1  27
BRANCH  11  28
ATOM     28  C   UNL     1       1.805   6.290  20.263  0.00  0.00    +0.000 C 
BRANCH  28  29
ATOM     29  C   UNL     1       2.137   5.078  21.134  0.00  0.00    +0.000 C 
BRANCH  29  30
ATOM     30  C   UNL     1       2.480   3.843  20.300  0.00  0.00    +0.000 C 
BRANCH  30  31
ATOM     31  C   UNL     1       1.396   2.782  20.328  0.00  0.00    +0.000 C 
ATOM     32  F   UNL     1       1.752   1.648  19.695  0.00  0.00    +0.000 F 
ATOM     33  F   UNL     1       1.082   2.461  21.604  0.00  0.00    +0.000 F 
ATOM     34  F   UNL     1       0.269   3.244  19.740  0.00  0.00    +0.000 F 
ENDBRANCH  30  31
ENDBRANCH  29  30
ENDBRANCH  28  29
ENDBRANCH  11  28
TORSDOF 7
ENDMDL
MODEL 5
REMARK VINA RESULT:      -6.6      3.372      4.681
REMARK  Name = 
REMARK  7 active torsions:
REMARK  status: ('A' for Active; 'I' for Inactive)
REMARK    1  A    between atoms: C_2  and  C_3
REMARK    2  A    between atoms: C_4  and  C_5
REMARK    3  A    between atoms: C_12  and  C_13
REMARK    4  A    between atoms: N_23  and  C_24
REMARK    5  A    between atoms: C_24  and  C_25
REMARK    6  A    between atoms: C_25  and  C_26
REMARK    7  A    between atoms: C_26  and  C_27
REMARK                            x       y       z     vdW  Elec       q    Type
REMARK                         _______ _______ _______ _____ _____    ______ ____
ROOT
ATOM      1  C   UNL     1       1.671  13.006  19.454  0.00  0.00    +0.000 A 
ATOM      2  C   UNL     1       0.907  13.266  20.590  0.00  0.00    +0.000 A 
ATOM      3  C   UNL     1       0.293  12.009  20.982  0.00  0.00    +0.000 A 
ATOM      4  C   UNL     1       0.737  11.044  20.078  0.00  0.00    +0.000 A 
ATOM      5  N   UNL     1       1.531  11.674  19.149  0.00  0.00    +0.000 N 
ATOM      6  C   UNL     1       2.194  10.978  18.052  0.00  0.00    +0.000 C 
ATOM      7  C   UNL     1       1.672   9.553  17.862  0.00  0.00    +0.000 C 
ATOM      8  N   UNL     1       1.424   8.909  19.152  0.00  0.00    +0.000 N 
ATOM      9  C   UNL     1       1.979   7.753  19.661  0.00  0.00    +0.000 C 
ATOM     10  O   UNL     1       1.726   7.343  20.792  0.00  0.00    +0.000 OA
ATOM     11  N   UNL     1       2.850   7.078  18.851  0.00  0.00    +0.000 N 
ATOM     12  C   UNL     1       0.428   9.580  19.975  0.00  0.00    +0.000 C 
ATOM     13  H   UNL     1       2.783   7.216  17.858  0.00  0.00    +0.000 HD
ENDROOT
BRANCH   2  14
ATOM     14  C   UNL     1       0.896  14.565  21.286  0.00  0.00    +0.000 A 
ATOM     15  C   UNL     1      -0.184  15.457  21.178  0.00  0.00    +0.000 A 
ATOM     16  C   UNL     1      -0.112  16.750  21.714  0.00  0.00    +0.000 A 
ATOM     17  C   UNL     1       1.026  17.153  22.405  0.00  0.00    +0.000 A 
ATOM     18  C   UNL     1       2.070  16.254  22.571  0.00  0.00    +0.000 A 
ATOM     19  F   UNL     1       3.160  16.631  23.251  0.00  0.00    +0.000 F 
ATOM     20  C   UNL     1       2.018  14.976  22.018  0.00  0.00    +0.000 A 
ENDBRANCH   2  14
BRANCH   3  21
ATOM     21  C   UNL     1      -0.662  11.782  22.072  0.00  0.00    +0.000 C 
ATOM     22  N   UNL     1      -1.924  12.269  21.893  0.00  0.00    +0.000 N 
ATOM     23  O   UNL     1      -0.379  11.177  23.098  0.00  0.00    +0.000 OA
ATOM     24  H   UNL     1      -2.289  12.464  20.973  0.00  0.00    +0.000 HD
ATOM     25  H   UNL     1      -2.594  12.066  22.620  0.00  0.00    +0.000 HD
ENDBRANCH   3  21
BRANCH   1  27
ATOM     26  N   UNL     1       3.141  14.645  18.089  0.00  0.00    +0.000 NA
ATOM     27  C   UNL     1       2.506  13.887  18.697  0.00  0.00    +0.000 C 
ENDBRANCH   1  27
BRANCH  11  28
ATOM     28  C   UNL     1       3.452   5.834  19.304  0.00  0.00    +0.000 C 
BRANCH  28  29
ATOM     29  C   UNL     1       3.088   4.640  18.419  0.00  0.00    +0.000 C 
BRANCH  29  30
ATOM     30  C   UNL     1       1.585   4.362  18.414  0.00  0.00    +0.000 C 
BRANCH  30  31
ATOM     31  C   UNL     1       1.165   3.325  19.440  0.00  0.00    +0.000 C 
ATOM     32  F   UNL     1       0.471   3.853  20.467  0.00  0.00    +0.000 F 
ATOM     33  F   UNL     1       0.392   2.377  18.864  0.00  0.00    +0.000 F 
ATOM     34  F   UNL     1       2.250   2.703  19.953  0.00  0.00    +0.000 F 
ENDBRANCH  30  31
ENDBRANCH  29  30
ENDBRANCH  28  29
ENDBRANCH  11  28
TORSDOF 7
ENDMDL
MODEL 6
REMARK VINA RESULT:      -6.6      0.934      1.398
REMARK  Name = 
REMARK  7 active torsions:
REMARK  status: ('A' for Active; 'I' for Inactive)
REMARK    1  A    between atoms: C_2  and  C_3
REMARK    2  A    between atoms: C_4  and  C_5
REMARK    3  A    between atoms: C_12  and  C_13
REMARK    4  A    between atoms: N_23  and  C_24
REMARK    5  A    between atoms: C_24  and  C_25
REMARK    6  A    between atoms: C_25  and  C_26
REMARK    7  A    between atoms: C_26  and  C_27
REMARK                            x       y       z     vdW  Elec       q    Type
REMARK                         _______ _______ _______ _____ _____    ______ ____
ROOT
ATOM      1  C   UNL     1      -2.031  12.159  22.033  0.00  0.00    +0.000 A 
ATOM      2  C   UNL     1      -2.152  12.991  20.922  0.00  0.00    +0.000 A 
ATOM      3  C   UNL     1      -1.045  12.676  20.036  0.00  0.00    +0.000 A 
ATOM      4  C   UNL     1      -0.321  11.649  20.645  0.00  0.00    +0.000 A 
ATOM      5  N   UNL     1      -0.910  11.384  21.859  0.00  0.00    +0.000 N 
ATOM      6  C   UNL     1      -0.439  10.351  22.773  0.00  0.00    +0.000 C 
ATOM      7  C   UNL     1       0.943   9.815  22.391  0.00  0.00    +0.000 C 
ATOM      8  N   UNL     1       1.070   9.683  20.939  0.00  0.00    +0.000 N 
ATOM      9  C   UNL     1       1.337   8.552  20.196  0.00  0.00    +0.000 C 
ATOM     10  O   UNL     1       1.364   8.562  18.966  0.00  0.00    +0.000 OA
ATOM     11  N   UNL     1       1.560   7.395  20.890  0.00  0.00    +0.000 N 
ATOM     12  C   UNL     1       0.923  10.933  20.208  0.00  0.00    +0.000 C 
ATOM     13  H   UNL     1       1.871   7.463  21.843  0.00  0.00    +0.000 HD
ENDROOT
BRANCH   2  14
ATOM     14  C   UNL     1      -3.300  13.886  20.696  0.00  0.00    +0.000 A 
ATOM     15  C   UNL     1      -3.221  15.270  20.932  0.00  0.00    +0.000 A 
ATOM     16  C   UNL     1      -4.361  16.082  20.866  0.00  0.00    +0.000 A 
ATOM     17  C   UNL     1      -5.589  15.529  20.516  0.00  0.00    +0.000 A 
ATOM     18  C   UNL     1      -5.659  14.176  20.217  0.00  0.00    +0.000 A 
ATOM     19  F   UNL     1      -6.836  13.642  19.862  0.00  0.00    +0.000 F 
ATOM     20  C   UNL     1      -4.537  13.356  20.308  0.00  0.00    +0.000 A 
ENDBRANCH   2  14
BRANCH   3  21
ATOM     21  C   UNL     1      -0.694  13.335  18.775  0.00  0.00    +0.000 C 
ATOM     22  N   UNL     1      -1.127  12.736  17.628  0.00  0.00    +0.000 N 
ATOM     23  O   UNL     1      -0.058  14.380  18.716  0.00  0.00    +0.000 OA
ATOM     24  H   UNL     1      -1.907  12.095  17.629  0.00  0.00    +0.000 HD
ATOM     25  H   UNL     1      -0.931  13.219  16.763  0.00  0.00    +0.000 HD
ENDBRANCH   3  21
BRANCH   1  27
ATOM     26  N   UNL     1      -3.587  11.996  24.098  0.00  0.00    +0.000 NA
ATOM     27  C   UNL     1      -2.882  12.037  23.176  0.00  0.00    +0.000 C 
ENDBRANCH   1  27
BRANCH  11  28
ATOM     28  C   UNL     1       1.881   6.168  20.178  0.00  0.00    +0.000 C 
BRANCH  28  29
ATOM     29  C   UNL     1       3.262   6.205  19.521  0.00  0.00    +0.000 C 
BRANCH  29  30
ATOM     30  C   UNL     1       3.192   5.958  18.014  0.00  0.00    +0.000 C 
BRANCH  30  31
ATOM     31  C   UNL     1       3.230   4.485  17.647  0.00  0.00    +0.000 C 
ATOM     32  F   UNL     1       2.031   4.008  17.261  0.00  0.00    +0.000 F 
ATOM     33  F   UNL     1       4.104   4.272  16.638  0.00  0.00    +0.000 F 
ATOM     34  F   UNL     1       3.645   3.747  18.701  0.00  0.00    +0.000 F 
ENDBRANCH  30  31
ENDBRANCH  29  30
ENDBRANCH  28  29
ENDBRANCH  11  28
TORSDOF 7
ENDMDL
MODEL 7
REMARK VINA RESULT:      -6.6      1.563      1.877
REMARK  Name = 
REMARK  7 active torsions:
REMARK  status: ('A' for Active; 'I' for Inactive)
REMARK    1  A    between atoms: C_2  and  C_3
REMARK    2  A    between atoms: C_4  and  C_5
REMARK    3  A    between atoms: C_12  and  C_13
REMARK    4  A    between atoms: N_23  and  C_24
REMARK    5  A    between atoms: C_24  and  C_25
REMARK    6  A    between atoms: C_25  and  C_26
REMARK    7  A    between atoms: C_26  and  C_27
REMARK                            x       y       z     vdW  Elec       q    Type
REMARK                         _______ _______ _______ _____ _____    ______ ____
ROOT
ATOM      1  C   UNL     1      -2.154  12.333  22.513  0.00  0.00    +0.000 A 
ATOM      2  C   UNL     1      -2.066  13.342  21.556  0.00  0.00    +0.000 A 
ATOM      3  C   UNL     1      -0.859  13.091  20.787  0.00  0.00    +0.000 A 
ATOM      4  C   UNL     1      -0.289  11.925  21.301  0.00  0.00    +0.000 A 
ATOM      5  N   UNL     1      -1.063  11.512  22.360  0.00  0.00    +0.000 N 
ATOM      6  C   UNL     1      -0.788  10.309  23.138  0.00  0.00    +0.000 C 
ATOM      7  C   UNL     1       0.603   9.737  22.858  0.00  0.00    +0.000 C 
ATOM      8  N   UNL     1       0.934   9.834  21.436  0.00  0.00    +0.000 N 
ATOM      9  C   UNL     1       1.246   8.823  20.552  0.00  0.00    +0.000 C 
ATOM     10  O   UNL     1       1.453   9.032  19.357  0.00  0.00    +0.000 OA
ATOM     11  N   UNL     1       1.302   7.554  21.058  0.00  0.00    +0.000 N 
ATOM     12  C   UNL     1       0.964  11.195  20.920  0.00  0.00    +0.000 C 
ATOM     13  H   UNL     1       1.473   7.441  22.042  0.00  0.00    +0.000 HD
ENDROOT
BRANCH   2  14
ATOM     14  C   UNL     1      -3.118  14.350  21.336  0.00  0.00    +0.000 A 
ATOM     15  C   UNL     1      -4.350  14.022  20.746  0.00  0.00    +0.000 A 
ATOM     16  C   UNL     1      -5.275  15.016  20.398  0.00  0.00    +0.000 A 
ATOM     17  C   UNL     1      -4.998  16.350  20.677  0.00  0.00    +0.000 A 
ATOM     18  C   UNL     1      -3.811  16.674  21.319  0.00  0.00    +0.000 A 
ATOM     19  F   UNL     1      -3.549  17.956  21.607  0.00  0.00    +0.000 F 
ATOM     20  C   UNL     1      -2.875  15.696  21.644  0.00  0.00    +0.000 A 
ENDBRANCH   2  14
BRANCH   3  21
ATOM     21  C   UNL     1      -0.292  13.918  19.718  0.00  0.00    +0.000 C 
ATOM     22  N   UNL     1      -0.784  13.717  18.461  0.00  0.00    +0.000 N 
ATOM     23  O   UNL     1       0.569  14.767  19.910  0.00  0.00    +0.000 OA
ATOM     24  H   UNL     1      -1.688  13.296  18.308  0.00  0.00    +0.000 HD
ATOM     25  H   UNL     1      -0.431  14.324  17.735  0.00  0.00    +0.000 HD
ENDBRANCH   3  21
BRANCH   1  27
ATOM     26  N   UNL     1      -4.007  11.847  24.257  0.00  0.00    +0.000 NA
ATOM     27  C   UNL     1      -3.169  12.093  23.492  0.00  0.00    +0.000 C 
ENDBRANCH   1  27
BRANCH  11  28
ATOM     28  C   UNL     1       1.656   6.438  20.195  0.00  0.00    +0.000 C 
BRANCH  28  29
ATOM     29  C   UNL     1       2.037   5.179  20.977  0.00  0.00    +0.000 C 
BRANCH  29  30
ATOM     30  C   UNL     1       2.048   3.932  20.093  0.00  0.00    +0.000 C 
BRANCH  30  31
ATOM     31  C   UNL     1       1.942   2.639  20.881  0.00  0.00    +0.000 C 
ATOM     32  F   UNL     1       3.039   2.381  21.618  0.00  0.00    +0.000 F 
ATOM     33  F   UNL     1       0.882   2.684  21.720  0.00  0.00    +0.000 F 
ATOM     34  F   UNL     1       1.751   1.593  20.047  0.00  0.00    +0.000 F 
ENDBRANCH  30  31
ENDBRANCH  29  30
ENDBRANCH  28  29
ENDBRANCH  11  28
TORSDOF 7
ENDMDL
MODEL 8
REMARK VINA RESULT:      -6.5      1.195      1.498
REMARK  Name = 
REMARK  7 active torsions:
REMARK  status: ('A' for Active; 'I' for Inactive)
REMARK    1  A    between atoms: C_2  and  C_3
REMARK    2  A    between atoms: C_4  and  C_5
REMARK    3  A    between atoms: C_12  and  C_13
REMARK    4  A    between atoms: N_23  and  C_24
REMARK    5  A    between atoms: C_24  and  C_25
REMARK    6  A    between atoms: C_25  and  C_26
REMARK    7  A    between atoms: C_26  and  C_27
REMARK                            x       y       z     vdW  Elec       q    Type
REMARK                         _______ _______ _______ _____ _____    ______ ____
ROOT
ATOM      1  C   UNL     1      -1.902  12.026  22.033  0.00  0.00    +0.000 A 
ATOM      2  C   UNL     1      -1.996  12.865  20.924  0.00  0.00    +0.000 A 
ATOM      3  C   UNL     1      -0.886  12.532  20.047  0.00  0.00    +0.000 A 
ATOM      4  C   UNL     1      -0.189  11.488  20.658  0.00  0.00    +0.000 A 
ATOM      5  N   UNL     1      -0.795  11.230  21.865  0.00  0.00    +0.000 N 
ATOM      6  C   UNL     1      -0.353  10.183  22.779  0.00  0.00    +0.000 C 
ATOM      7  C   UNL     1       1.021   9.621  22.407  0.00  0.00    +0.000 C 
ATOM      8  N   UNL     1       1.158   9.493  20.956  0.00  0.00    +0.000 N 
ATOM      9  C   UNL     1       1.410   8.360  20.210  0.00  0.00    +0.000 C 
ATOM     10  O   UNL     1       1.449   8.375  18.981  0.00  0.00    +0.000 OA
ATOM     11  N   UNL     1       1.603   7.195  20.901  0.00  0.00    +0.000 N 
ATOM     12  C   UNL     1       1.043  10.749  20.230  0.00  0.00    +0.000 C 
ATOM     13  H   UNL     1       1.906   7.253  21.857  0.00  0.00    +0.000 HD
ENDROOT
BRANCH   2  14
ATOM     14  C   UNL     1      -3.123  13.785  20.691  0.00  0.00    +0.000 A 
ATOM     15  C   UNL     1      -3.016  15.166  20.928  0.00  0.00    +0.000 A 
ATOM     16  C   UNL     1      -4.138  16.003  20.855  0.00  0.00    +0.000 A 
ATOM     17  C   UNL     1      -5.375  15.476  20.499  0.00  0.00    +0.000 A 
ATOM     18  C   UNL     1      -5.473  14.124  20.201  0.00  0.00    +0.000 A 
ATOM     19  F   UNL     1      -6.659  13.615  19.840  0.00  0.00    +0.000 F 
ATOM     20  C   UNL     1      -4.369  13.280  20.297  0.00  0.00    +0.000 A 
ENDBRANCH   2  14
BRANCH   3  21
ATOM     21  C   UNL     1      -0.511  13.189  18.792  0.00  0.00    +0.000 C 
ATOM     22  N   UNL     1      -1.099  12.720  17.653  0.00  0.00    +0.000 N 
ATOM     23  O   UNL     1       0.277  14.125  18.733  0.00  0.00    +0.000 OA
ATOM     24  H   UNL     1      -1.968  12.207  17.681  0.00  0.00    +0.000 HD
ATOM     25  H   UNL     1      -0.880  13.209  16.797  0.00  0.00    +0.000 HD
ENDBRANCH   3  21
BRANCH   1  27
ATOM     26  N   UNL     1      -3.494  11.878  24.070  0.00  0.00    +0.000 NA
ATOM     27  C   UNL     1      -2.765  11.916  23.167  0.00  0.00    +0.000 C 
ENDBRANCH   1  27
BRANCH  11  28
ATOM     28  C   UNL     1       1.906   5.965  20.187  0.00  0.00    +0.000 C 
BRANCH  28  29
ATOM     29  C   UNL     1       3.366   5.883  19.736  0.00  0.00    +0.000 C 
BRANCH  29  30
ATOM     30  C   UNL     1       3.512   5.209  18.372  0.00  0.00    +0.000 C 
BRANCH  30  31
ATOM     31  C   UNL     1       4.567   4.118  18.354  0.00  0.00    +0.000 C 
ATOM     32  F   UNL     1       5.552   4.323  19.250  0.00  0.00    +0.000 F 
ATOM     33  F   UNL     1       4.008   2.916  18.624  0.00  0.00    +0.000 F 
ATOM     34  F   UNL     1       5.136   4.031  17.131  0.00  0.00    +0.000 F 
ENDBRANCH  30  31
ENDBRANCH  29  30
ENDBRANCH  28  29
ENDBRANCH  11  28
TORSDOF 7
ENDMDL
MODEL 9
REMARK VINA RESULT:      -6.4      2.808      3.593
REMARK  Name = 
REMARK  7 active torsions:
REMARK  status: ('A' for Active; 'I' for Inactive)
REMARK    1  A    between atoms: C_2  and  C_3
REMARK    2  A    between atoms: C_4  and  C_5
REMARK    3  A    between atoms: C_12  and  C_13
REMARK    4  A    between atoms: N_23  and  C_24
REMARK    5  A    between atoms: C_24  and  C_25
REMARK    6  A    between atoms: C_25  and  C_26
REMARK    7  A    between atoms: C_26  and  C_27
REMARK                            x       y       z     vdW  Elec       q    Type
REMARK                         _______ _______ _______ _____ _____    ______ ____
ROOT
ATOM      1  C   UNL     1      -2.165  13.480  21.800  0.00  0.00    +0.000 A 
ATOM      2  C   UNL     1      -3.517  13.337  21.492  0.00  0.00    +0.000 A 
ATOM      3  C   UNL     1      -3.589  12.784  20.151  0.00  0.00    +0.000 A 
ATOM      4  C   UNL     1      -2.274  12.596  19.721  0.00  0.00    +0.000 A 
ATOM      5  N   UNL     1      -1.440  13.057  20.712  0.00  0.00    +0.000 N 
ATOM      6  C   UNL     1       0.015  13.005  20.628  0.00  0.00    +0.000 C 
ATOM      7  C   UNL     1       0.509  12.679  19.217  0.00  0.00    +0.000 C 
ATOM      8  N   UNL     1      -0.341  11.671  18.583  0.00  0.00    +0.000 N 
ATOM      9  C   UNL     1       0.009  10.428  18.100  0.00  0.00    +0.000 C 
ATOM     10  O   UNL     1      -0.818   9.644  17.636  0.00  0.00    +0.000 OA
ATOM     11  N   UNL     1       1.331  10.086  18.172  0.00  0.00    +0.000 N 
ATOM     12  C   UNL     1      -1.731  12.073  18.425  0.00  0.00    +0.000 C 
ATOM     13  H   UNL     1       2.012  10.824  18.221  0.00  0.00    +0.000 HD
ENDROOT
BRANCH   2  14
ATOM     14  C   UNL     1      -4.602  13.583  22.457  0.00  0.00    +0.000 A 
ATOM     15  C   UNL     1      -5.054  12.585  23.338  0.00  0.00    +0.000 A 
ATOM     16  C   UNL     1      -6.189  12.783  24.136  0.00  0.00    +0.000 A 
ATOM     17  C   UNL     1      -6.861  14.000  24.099  0.00  0.00    +0.000 A 
ATOM     18  C   UNL     1      -6.381  15.012  23.280  0.00  0.00    +0.000 A 
ATOM     19  F   UNL     1      -7.014  16.192  23.254  0.00  0.00    +0.000 F 
ATOM     20  C   UNL     1      -5.270  14.815  22.462  0.00  0.00    +0.000 A 
ENDBRANCH   2  14
BRANCH   3  21
ATOM     21  C   UNL     1      -4.792  12.525  19.354  0.00  0.00    +0.000 C 
ATOM     22  N   UNL     1      -5.502  13.616  18.942  0.00  0.00    +0.000 N 
ATOM     23  O   UNL     1      -5.163  11.401  19.042  0.00  0.00    +0.000 OA
ATOM     24  H   UNL     1      -5.077  14.530  18.881  0.00  0.00    +0.000 HD
ATOM     25  H   UNL     1      -6.299  13.438  18.349  0.00  0.00    +0.000 HD
ENDBRANCH   3  21
BRANCH   1  27
ATOM     26  N   UNL     1      -1.081  14.271  24.015  0.00  0.00    +0.000 NA
ATOM     27  C   UNL     1      -1.549  13.940  23.005  0.00  0.00    +0.000 C 
ENDBRANCH   1  27
BRANCH  11  28
ATOM     28  C   UNL     1       1.783   8.805  17.653  0.00  0.00    +0.000 C 
BRANCH  28  29
ATOM     29  C   UNL     1       2.336   7.884  18.742  0.00  0.00    +0.000 C 
BRANCH  29  30
ATOM     30  C   UNL     1       2.383   6.423  18.294  0.00  0.00    +0.000 C 
BRANCH  30  31
ATOM     31  C   UNL     1       3.759   5.984  17.828  0.00  0.00    +0.000 C 
ATOM     32  F   UNL     1       4.654   5.905  18.832  0.00  0.00    +0.000 F 
ATOM     33  F   UNL     1       3.693   4.768  17.239  0.00  0.00    +0.000 F 
ATOM     34  F   UNL     1       4.245   6.850  16.911  0.00  0.00    +0.000 F 
ENDBRANCH  30  31
ENDBRANCH  29  30
ENDBRANCH  28  29
ENDBRANCH  11  28
TORSDOF 7
ENDMDL
