MODEL 1
REMARK VINA RESULT:      -7.2      0.000      0.000
REMARK  Name = 
REMARK  3 active torsions:
REMARK  status: ('A' for Active; 'I' for Inactive)
REMARK    1  A    between atoms: S_2  and  N_4
REMARK    2  A    between atoms: S_2  and  C_11
REMARK    3  A    between atoms: N_4  and  C_5
REMARK                            x       y       z     vdW  Elec       q    Type
REMARK                         _______ _______ _______ _____ _____    ______ ____
ROOT
ATOM      1  O   UNL     1       5.042   2.350  19.968  0.00  0.00    +0.000 OA
ATOM      2  S   UNL     1       4.045   2.847  19.046  0.00  0.00    +0.000 S 
ATOM      3  O   UNL     1       3.069   1.952  18.463  0.00  0.00    +0.000 OA
ENDROOT
BRANCH   2   4
ATOM      4  C   UNL     1       4.889   3.698  17.724  0.00  0.00    +0.000 A 
ATOM      5  C   UNL     1       4.470   3.422  16.411  0.00  0.00    +0.000 A 
ATOM      6  C   UNL     1       5.049   4.099  15.346  0.00  0.00    +0.000 A 
ATOM      7  C   UNL     1       6.033   5.049  15.594  0.00  0.00    +0.000 A 
ATOM      8  F   UNL     1       6.564   5.694  14.544  0.00  0.00    +0.000 F 
ATOM      9  C   UNL     1       6.465   5.348  16.895  0.00  0.00    +0.000 A 
ATOM     10  C   UNL     1       7.442   6.339  17.107  0.00  0.00    +0.000 A 
ATOM     11  C   UNL     1       7.872   6.669  18.390  0.00  0.00    +0.000 A 
ATOM     12  C   UNL     1       7.346   6.001  19.483  0.00  0.00    +0.000 A 
ATOM     13  C   UNL     1       6.392   5.004  19.290  0.00  0.00    +0.000 A 
ATOM     14  C   UNL     1       5.905   4.661  18.000  0.00  0.00    +0.000 A 
ENDBRANCH   2   4
BRANCH   2  15
ATOM     15  N   UNL     1       3.225   4.085  19.838  0.00  0.00    +0.000 NA
ATOM     16  H   UNL     1       3.856   4.775  20.241  0.00  0.00    +0.000 HD
BRANCH  15  17
ATOM     17  C   UNL     1       1.890   4.556  19.413  0.00  0.00    +0.000 C 
ATOM     18  C   UNL     1       1.225   5.445  20.462  0.00  0.00    +0.000 C 
ATOM     19  C   UNL     1       2.014   6.732  20.689  0.00  0.00    +0.000 C 
ATOM     20  C   UNL     1       2.145   7.518  19.388  0.00  0.00    +0.000 C 
ATOM     21  C   UNL     1       2.754   6.677  18.269  0.00  0.00    +0.000 C 
ATOM     22  C   UNL     1       2.040   5.335  18.094  0.00  0.00    +0.000 C 
ENDBRANCH  15  17
ENDBRANCH   2  15
TORSDOF 3
ENDMDL
MODEL 2
REMARK VINA RESULT:      -7.1      1.431      2.650
REMARK  Name = 
REMARK  3 active torsions:
REMARK  status: ('A' for Active; 'I' for Inactive)
REMARK    1  A    between atoms: S_2  and  N_4
REMARK    2  A    between atoms: S_2  and  C_11
REMARK    3  A    between atoms: N_4  and  C_5
REMARK                            x       y       z     vdW  Elec       q    Type
REMARK                         _______ _______ _______ _____ _____    ______ ____
ROOT
ATOM      1  O   UNL     1       4.006   1.332  18.020  0.00  0.00    +0.000 OA
ATOM      2  S   UNL     1       3.468   2.656  17.796  0.00  0.00    +0.000 S 
ATOM      3  O   UNL     1       2.656   2.935  16.632  0.00  0.00    +0.000 OA
ENDROOT
BRANCH   2   4
ATOM      4  C   UNL     1       4.825   3.816  17.828  0.00  0.00    +0.000 A 
ATOM      5  C   UNL     1       5.204   4.326  19.082  0.00  0.00    +0.000 A 
ATOM      6  C   UNL     1       6.291   5.185  19.176  0.00  0.00    +0.000 A 
ATOM      7  C   UNL     1       6.996   5.523  18.027  0.00  0.00    +0.000 A 
ATOM      8  F   UNL     1       8.048   6.346  18.154  0.00  0.00    +0.000 F 
ATOM      9  C   UNL     1       6.644   5.023  16.765  0.00  0.00    +0.000 A 
ATOM     10  C   UNL     1       7.402   5.364  15.629  0.00  0.00    +0.000 A 
ATOM     11  C   UNL     1       7.084   4.862  14.369  0.00  0.00    +0.000 A 
ATOM     12  C   UNL     1       5.992   4.026  14.219  0.00  0.00    +0.000 A 
ATOM     13  C   UNL     1       5.218   3.693  15.330  0.00  0.00    +0.000 A 
ATOM     14  C   UNL     1       5.528   4.158  16.635  0.00  0.00    +0.000 A 
ENDBRANCH   2   4
BRANCH   2  15
ATOM     15  N   UNL     1       2.585   3.060  19.171  0.00  0.00    +0.000 NA
ATOM     16  H   UNL     1       3.179   3.217  19.984  0.00  0.00    +0.000 HD
BRANCH  15  17
ATOM     17  C   UNL     1       1.312   3.807  19.109  0.00  0.00    +0.000 C 
ATOM     18  C   UNL     1       0.884   4.343  20.474  0.00  0.00    +0.000 C 
ATOM     19  C   UNL     1       1.884   5.362  21.016  0.00  0.00    +0.000 C 
ATOM     20  C   UNL     1       2.031   6.534  20.051  0.00  0.00    +0.000 C 
ATOM     21  C   UNL     1       2.406   6.075  18.644  0.00  0.00    +0.000 C 
ATOM     22  C   UNL     1       1.476   4.977  18.122  0.00  0.00    +0.000 C 
ENDBRANCH  15  17
ENDBRANCH   2  15
TORSDOF 3
ENDMDL
MODEL 3
REMARK VINA RESULT:      -7.1      1.001      2.499
REMARK  Name = 
REMARK  3 active torsions:
REMARK  status: ('A' for Active; 'I' for Inactive)
REMARK    1  A    between atoms: S_2  and  N_4
REMARK    2  A    between atoms: S_2  and  C_11
REMARK    3  A    between atoms: N_4  and  C_5
REMARK                            x       y       z     vdW  Elec       q    Type
REMARK                         _______ _______ _______ _____ _____    ______ ____
ROOT
ATOM      1  O   UNL     1       5.189   2.333  19.997  0.00  0.00    +0.000 OA
ATOM      2  S   UNL     1       4.434   3.109  19.038  0.00  0.00    +0.000 S 
ATOM      3  O   UNL     1       3.756   2.462  17.936  0.00  0.00    +0.000 OA
ENDROOT
BRANCH   2   4
ATOM      4  C   UNL     1       5.512   4.368  18.375  0.00  0.00    +0.000 A 
ATOM      5  C   UNL     1       6.119   5.242  19.294  0.00  0.00    +0.000 A 
ATOM      6  C   UNL     1       7.014   6.203  18.843  0.00  0.00    +0.000 A 
ATOM      7  C   UNL     1       7.306   6.282  17.486  0.00  0.00    +0.000 A 
ATOM      8  F   UNL     1       8.184   7.213  17.084  0.00  0.00    +0.000 F 
ATOM      9  C   UNL     1       6.719   5.418  16.549  0.00  0.00    +0.000 A 
ATOM     10  C   UNL     1       7.064   5.509  15.188  0.00  0.00    +0.000 A 
ATOM     11  C   UNL     1       6.511   4.649  14.242  0.00  0.00    +0.000 A 
ATOM     12  C   UNL     1       5.591   3.693  14.637  0.00  0.00    +0.000 A 
ATOM     13  C   UNL     1       5.224   3.601  15.979  0.00  0.00    +0.000 A 
ATOM     14  C   UNL     1       5.788   4.439  16.978  0.00  0.00    +0.000 A 
ENDBRANCH   2   4
BRANCH   2  15
ATOM     15  N   UNL     1       3.302   3.995  19.913  0.00  0.00    +0.000 NA
ATOM     16  H   UNL     1       3.735   4.619  20.592  0.00  0.00    +0.000 HD
BRANCH  15  17
ATOM     17  C   UNL     1       2.002   4.410  19.344  0.00  0.00    +0.000 C 
ATOM     18  C   UNL     1       1.127   5.139  20.362  0.00  0.00    +0.000 C 
ATOM     19  C   UNL     1       1.767   6.449  20.816  0.00  0.00    +0.000 C 
ATOM     20  C   UNL     1       2.007   7.370  19.624  0.00  0.00    +0.000 C 
ATOM     21  C   UNL     1       2.832   6.692  18.533  0.00  0.00    +0.000 C 
ATOM     22  C   UNL     1       2.265   5.327  18.137  0.00  0.00    +0.000 C 
ENDBRANCH  15  17
ENDBRANCH   2  15
TORSDOF 3
ENDMDL
MODEL 4
REMARK VINA RESULT:      -6.8      1.385      2.223
REMARK  Name = 
REMARK  3 active torsions:
REMARK  status: ('A' for Active; 'I' for Inactive)
REMARK    1  A    between atoms: S_2  and  N_4
REMARK    2  A    between atoms: S_2  and  C_11
REMARK    3  A    between atoms: N_4  and  C_5
REMARK                            x       y       z     vdW  Elec       q    Type
REMARK                         _______ _______ _______ _____ _____    ______ ____
ROOT
ATOM      1  O   UNL     1       3.787   1.884  18.114  0.00  0.00    +0.000 OA
ATOM      2  S   UNL     1       3.354   3.102  17.466  0.00  0.00    +0.000 S 
ATOM      3  O   UNL     1       2.249   3.087  16.532  0.00  0.00    +0.000 OA
ENDROOT
BRANCH   2   4
ATOM      4  C   UNL     1       4.768   3.830  16.656  0.00  0.00    +0.000 A 
ATOM      5  C   UNL     1       4.849   3.693  15.260  0.00  0.00    +0.000 A 
ATOM      6  C   UNL     1       5.895   4.291  14.568  0.00  0.00    +0.000 A 
ATOM      7  C   UNL     1       6.846   5.025  15.268  0.00  0.00    +0.000 A 
ATOM      8  F   UNL     1       7.837   5.599  14.569  0.00  0.00    +0.000 F 
ATOM      9  C   UNL     1       6.784   5.183  16.661  0.00  0.00    +0.000 A 
ATOM     10  C   UNL     1       7.749   5.960  17.329  0.00  0.00    +0.000 A 
ATOM     11  C   UNL     1       7.697   6.149  18.708  0.00  0.00    +0.000 A 
ATOM     12  C   UNL     1       6.690   5.550  19.446  0.00  0.00    +0.000 A 
ATOM     13  C   UNL     1       5.738   4.761  18.802  0.00  0.00    +0.000 A 
ATOM     14  C   UNL     1       5.738   4.570  17.395  0.00  0.00    +0.000 A 
ENDBRANCH   2   4
BRANCH   2  15
ATOM     15  N   UNL     1       3.002   4.204  18.689  0.00  0.00    +0.000 NA
ATOM     16  H   UNL     1       3.620   5.014  18.674  0.00  0.00    +0.000 HD
BRANCH  15  17
ATOM     17  C   UNL     1       1.633   4.406  19.208  0.00  0.00    +0.000 C 
ATOM     18  C   UNL     1       0.872   3.091  19.372  0.00  0.00    +0.000 C 
ATOM     19  C   UNL     1       1.532   2.187  20.411  0.00  0.00    +0.000 C 
ATOM     20  C   UNL     1       1.602   2.888  21.764  0.00  0.00    +0.000 C 
ATOM     21  C   UNL     1       2.303   4.241  21.674  0.00  0.00    +0.000 C 
ATOM     22  C   UNL     1       1.724   5.124  20.567  0.00  0.00    +0.000 C 
ENDBRANCH  15  17
ENDBRANCH   2  15
TORSDOF 3
ENDMDL
MODEL 5
REMARK VINA RESULT:      -6.6      2.400      3.841
REMARK  Name = 
REMARK  3 active torsions:
REMARK  status: ('A' for Active; 'I' for Inactive)
REMARK    1  A    between atoms: S_2  and  N_4
REMARK    2  A    between atoms: S_2  and  C_11
REMARK    3  A    between atoms: N_4  and  C_5
REMARK                            x       y       z     vdW  Elec       q    Type
REMARK                         _______ _______ _______ _____ _____    ______ ____
ROOT
ATOM      1  O   UNL     1       2.111   4.077  16.834  0.00  0.00    +0.000 OA
ATOM      2  S   UNL     1       2.457   5.105  17.791  0.00  0.00    +0.000 S 
ATOM      3  O   UNL     1       1.990   6.463  17.615  0.00  0.00    +0.000 OA
ENDROOT
BRANCH   2   4
ATOM      4  C   UNL     1       4.234   5.136  17.950  0.00  0.00    +0.000 A 
ATOM      5  C   UNL     1       4.760   5.336  19.238  0.00  0.00    +0.000 A 
ATOM      6  C   UNL     1       6.135   5.309  19.433  0.00  0.00    +0.000 A 
ATOM      7  C   UNL     1       6.974   5.075  18.349  0.00  0.00    +0.000 A 
ATOM      8  F   UNL     1       8.297   5.044  18.573  0.00  0.00    +0.000 F 
ATOM      9  C   UNL     1       6.475   4.866  17.055  0.00  0.00    +0.000 A 
ATOM     10  C   UNL     1       7.356   4.602  15.990  0.00  0.00    +0.000 A 
ATOM     11  C   UNL     1       6.884   4.370  14.700  0.00  0.00    +0.000 A 
ATOM     12  C   UNL     1       5.523   4.415  14.449  0.00  0.00    +0.000 A 
ATOM     13  C   UNL     1       4.637   4.695  15.489  0.00  0.00    +0.000 A 
ATOM     14  C   UNL     1       5.077   4.905  16.823  0.00  0.00    +0.000 A 
ENDBRANCH   2   4
BRANCH   2  15
ATOM     15  N   UNL     1       1.945   4.557  19.298  0.00  0.00    +0.000 NA
ATOM     16  H   UNL     1       1.551   5.302  19.870  0.00  0.00    +0.000 HD
BRANCH  15  17
ATOM     17  C   UNL     1       1.428   3.190  19.515  0.00  0.00    +0.000 C 
ATOM     18  C   UNL     1       2.460   2.116  19.173  0.00  0.00    +0.000 C 
ATOM     19  C   UNL     1       3.679   2.199  20.087  0.00  0.00    +0.000 C 
ATOM     20  C   UNL     1       3.267   2.039  21.547  0.00  0.00    +0.000 C 
ATOM     21  C   UNL     1       2.193   3.045  21.954  0.00  0.00    +0.000 C 
ATOM     22  C   UNL     1       1.006   3.052  20.988  0.00  0.00    +0.000 C 
ENDBRANCH  15  17
ENDBRANCH   2  15
TORSDOF 3
ENDMDL
MODEL 6
REMARK VINA RESULT:      -6.6      2.828      5.481
REMARK  Name = 
REMARK  3 active torsions:
REMARK  status: ('A' for Active; 'I' for Inactive)
REMARK    1  A    between atoms: S_2  and  N_4
REMARK    2  A    between atoms: S_2  and  C_11
REMARK    3  A    between atoms: N_4  and  C_5
REMARK                            x       y       z     vdW  Elec       q    Type
REMARK                         _______ _______ _______ _____ _____    ______ ____
ROOT
ATOM      1  O   UNL     1       4.302   6.059  16.348  0.00  0.00    +0.000 OA
ATOM      2  S   UNL     1       4.562   4.669  16.653  0.00  0.00    +0.000 S 
ATOM      3  O   UNL     1       4.808   3.716  15.593  0.00  0.00    +0.000 OA
ENDROOT
BRANCH   2   4
ATOM      4  C   UNL     1       3.216   4.063  17.655  0.00  0.00    +0.000 A 
ATOM      5  C   UNL     1       2.812   2.732  17.451  0.00  0.00    +0.000 A 
ATOM      6  C   UNL     1       1.810   2.187  18.243  0.00  0.00    +0.000 A 
ATOM      7  C   UNL     1       1.225   2.964  19.237  0.00  0.00    +0.000 A 
ATOM      8  F   UNL     1       0.269   2.404  19.992  0.00  0.00    +0.000 F 
ATOM      9  C   UNL     1       1.615   4.292  19.466  0.00  0.00    +0.000 A 
ATOM     10  C   UNL     1       1.020   5.036  20.502  0.00  0.00    +0.000 A 
ATOM     11  C   UNL     1       1.405   6.349  20.764  0.00  0.00    +0.000 A 
ATOM     12  C   UNL     1       2.378   6.947  19.982  0.00  0.00    +0.000 A 
ATOM     13  C   UNL     1       2.964   6.231  18.939  0.00  0.00    +0.000 A 
ATOM     14  C   UNL     1       2.622   4.881  18.662  0.00  0.00    +0.000 A 
ENDBRANCH   2   4
BRANCH   2  15
ATOM     15  N   UNL     1       5.872   4.640  17.709  0.00  0.00    +0.000 NA
ATOM     16  H   UNL     1       5.710   4.039  18.515  0.00  0.00    +0.000 HD
BRANCH  15  17
ATOM     17  C   UNL     1       7.268   4.797  17.251  0.00  0.00    +0.000 C 
ATOM     18  C   UNL     1       7.490   6.108  16.498  0.00  0.00    +0.000 C 
ATOM     19  C   UNL     1       7.260   7.318  17.400  0.00  0.00    +0.000 C 
ATOM     20  C   UNL     1       8.196   7.276  18.604  0.00  0.00    +0.000 C 
ATOM     21  C   UNL     1       8.073   5.968  19.381  0.00  0.00    +0.000 C 
ATOM     22  C   UNL     1       8.197   4.740  18.476  0.00  0.00    +0.000 C 
ENDBRANCH  15  17
ENDBRANCH   2  15
TORSDOF 3
ENDMDL
MODEL 7
REMARK VINA RESULT:      -6.6      2.662      4.370
REMARK  Name = 
REMARK  3 active torsions:
REMARK  status: ('A' for Active; 'I' for Inactive)
REMARK    1  A    between atoms: S_2  and  N_4
REMARK    2  A    between atoms: S_2  and  C_11
REMARK    3  A    between atoms: N_4  and  C_5
REMARK                            x       y       z     vdW  Elec       q    Type
REMARK                         _______ _______ _______ _____ _____    ______ ____
ROOT
ATOM      1  O   UNL     1       6.543   4.690  19.244  0.00  0.00    +0.000 OA
ATOM      2  S   UNL     1       5.561   4.478  18.203  0.00  0.00    +0.000 S 
ATOM      3  O   UNL     1       5.974   4.135  16.860  0.00  0.00    +0.000 OA
ENDROOT
BRANCH   2   4
ATOM      4  C   UNL     1       4.522   5.926  18.122  0.00  0.00    +0.000 A 
ATOM      5  C   UNL     1       4.726   6.804  17.043  0.00  0.00    +0.000 A 
ATOM      6  C   UNL     1       3.907   7.915  16.894  0.00  0.00    +0.000 A 
ATOM      7  C   UNL     1       2.888   8.142  17.813  0.00  0.00    +0.000 A 
ATOM      8  F   UNL     1       2.107   9.218  17.634  0.00  0.00    +0.000 F 
ATOM      9  C   UNL     1       2.659   7.279  18.894  0.00  0.00    +0.000 A 
ATOM     10  C   UNL     1       1.597   7.525  19.785  0.00  0.00    +0.000 A 
ATOM     11  C   UNL     1       1.336   6.671  20.854  0.00  0.00    +0.000 A 
ATOM     12  C   UNL     1       2.143   5.566  21.062  0.00  0.00    +0.000 A 
ATOM     13  C   UNL     1       3.210   5.317  20.201  0.00  0.00    +0.000 A 
ATOM     14  C   UNL     1       3.489   6.145  19.082  0.00  0.00    +0.000 A 
ENDBRANCH   2   4
BRANCH   2  15
ATOM     15  N   UNL     1       4.514   3.284  18.759  0.00  0.00    +0.000 NA
ATOM     16  H   UNL     1       4.040   3.551  19.621  0.00  0.00    +0.000 HD
BRANCH  15  17
ATOM     17  C   UNL     1       3.797   2.367  17.849  0.00  0.00    +0.000 C 
ATOM     18  C   UNL     1       3.039   1.274  18.602  0.00  0.00    +0.000 C 
ATOM     19  C   UNL     1       1.936   1.859  19.480  0.00  0.00    +0.000 C 
ATOM     20  C   UNL     1       0.944   2.655  18.637  0.00  0.00    +0.000 C 
ATOM     21  C   UNL     1       1.634   3.736  17.810  0.00  0.00    +0.000 C 
ATOM     22  C   UNL     1       2.811   3.188  17.000  0.00  0.00    +0.000 C 
ENDBRANCH  15  17
ENDBRANCH   2  15
TORSDOF 3
ENDMDL
MODEL 8
REMARK VINA RESULT:      -6.5      3.142      6.219
REMARK  Name = 
REMARK  3 active torsions:
REMARK  status: ('A' for Active; 'I' for Inactive)
REMARK    1  A    between atoms: S_2  and  N_4
REMARK    2  A    between atoms: S_2  and  C_11
REMARK    3  A    between atoms: N_4  and  C_5
REMARK                            x       y       z     vdW  Elec       q    Type
REMARK                         _______ _______ _______ _____ _____    ______ ____
ROOT
ATOM      1  O   UNL     1       1.937   5.224  18.289  0.00  0.00    +0.000 OA
ATOM      2  S   UNL     1       2.503   5.972  19.390  0.00  0.00    +0.000 S 
ATOM      3  O   UNL     1       2.205   5.609  20.758  0.00  0.00    +0.000 OA
ENDROOT
BRANCH   2   4
ATOM      4  C   UNL     1       2.090   7.692  19.159  0.00  0.00    +0.000 A 
ATOM      5  C   UNL     1       2.483   8.290  17.949  0.00  0.00    +0.000 A 
ATOM      6  C   UNL     1       2.136   9.610  17.689  0.00  0.00    +0.000 A 
ATOM      7  C   UNL     1       1.396  10.320  18.626  0.00  0.00    +0.000 A 
ATOM      8  F   UNL     1       1.067  11.589  18.338  0.00  0.00    +0.000 F 
ATOM      9  C   UNL     1       0.985   9.745  19.838  0.00  0.00    +0.000 A 
ATOM     10  C   UNL     1       0.209  10.487  20.748  0.00  0.00    +0.000 A 
ATOM     11  C   UNL     1      -0.229   9.931  21.948  0.00  0.00    +0.000 A 
ATOM     12  C   UNL     1       0.116   8.630  22.267  0.00  0.00    +0.000 A 
ATOM     13  C   UNL     1       0.900   7.886  21.386  0.00  0.00    +0.000 A 
ATOM     14  C   UNL     1       1.339   8.406  20.140  0.00  0.00    +0.000 A 
ENDBRANCH   2   4
BRANCH   2  15
ATOM     15  N   UNL     1       4.174   5.947  19.185  0.00  0.00    +0.000 NA
ATOM     16  H   UNL     1       4.676   6.035  20.067  0.00  0.00    +0.000 HD
BRANCH  15  17
ATOM     17  C   UNL     1       4.832   5.185  18.103  0.00  0.00    +0.000 C 
ATOM     18  C   UNL     1       5.070   6.033  16.855  0.00  0.00    +0.000 C 
ATOM     19  C   UNL     1       6.032   7.185  17.133  0.00  0.00    +0.000 C 
ATOM     20  C   UNL     1       7.373   6.655  17.631  0.00  0.00    +0.000 C 
ATOM     21  C   UNL     1       7.215   5.750  18.850  0.00  0.00    +0.000 C 
ATOM     22  C   UNL     1       6.176   4.649  18.628  0.00  0.00    +0.000 C 
ENDBRANCH  15  17
ENDBRANCH   2  15
TORSDOF 3
ENDMDL
MODEL 9
REMARK VINA RESULT:      -6.4      1.830      3.501
REMARK  Name = 
REMARK  3 active torsions:
REMARK  status: ('A' for Active; 'I' for Inactive)
REMARK    1  A    between atoms: S_2  and  N_4
REMARK    2  A    between atoms: S_2  and  C_11
REMARK    3  A    between atoms: N_4  and  C_5
REMARK                            x       y       z     vdW  Elec       q    Type
REMARK                         _______ _______ _______ _____ _____    ______ ____
ROOT
ATOM      1  O   UNL     1       4.056   2.305  17.719  0.00  0.00    +0.000 OA
ATOM      2  S   UNL     1       3.514   3.612  17.421  0.00  0.00    +0.000 S 
ATOM      3  O   UNL     1       2.506   3.777  16.396  0.00  0.00    +0.000 OA
ENDROOT
BRANCH   2   4
ATOM      4  C   UNL     1       4.876   4.704  17.054  0.00  0.00    +0.000 A 
ATOM      5  C   UNL     1       5.280   5.590  18.068  0.00  0.00    +0.000 A 
ATOM      6  C   UNL     1       6.373   6.422  17.861  0.00  0.00    +0.000 A 
ATOM      7  C   UNL     1       7.060   6.361  16.654  0.00  0.00    +0.000 A 
ATOM      8  F   UNL     1       8.119   7.169  16.491  0.00  0.00    +0.000 F 
ATOM      9  C   UNL     1       6.682   5.481  15.629  0.00  0.00    +0.000 A 
ATOM     10  C   UNL     1       7.422   5.427  14.433  0.00  0.00    +0.000 A 
ATOM     11  C   UNL     1       7.080   4.547  13.409  0.00  0.00    +0.000 A 
ATOM     12  C   UNL     1       5.980   3.718  13.555  0.00  0.00    +0.000 A 
ATOM     13  C   UNL     1       5.225   3.773  14.726  0.00  0.00    +0.000 A 
ATOM     14  C   UNL     1       5.560   4.633  15.805  0.00  0.00    +0.000 A 
ENDBRANCH   2   4
BRANCH   2  15
ATOM     15  N   UNL     1       2.908   4.226  18.867  0.00  0.00    +0.000 NA
ATOM     16  H   UNL     1       3.420   5.046  19.187  0.00  0.00    +0.000 HD
BRANCH  15  17
ATOM     17  C   UNL     1       1.479   4.134  19.234  0.00  0.00    +0.000 C 
ATOM     18  C   UNL     1       0.969   2.693  19.231  0.00  0.00    +0.000 C 
ATOM     19  C   UNL     1       1.677   1.845  20.284  0.00  0.00    +0.000 C 
ATOM     20  C   UNL     1       1.473   2.437  21.676  0.00  0.00    +0.000 C 
ATOM     21  C   UNL     1       1.910   3.897  21.747  0.00  0.00    +0.000 C 
ATOM     22  C   UNL     1       1.291   4.746  20.634  0.00  0.00    +0.000 C 
ENDBRANCH  15  17
ENDBRANCH   2  15
TORSDOF 3
ENDMDL
