MODEL 1
REMARK VINA RESULT:      -9.0      0.000      0.000
REMARK  Name = 
REMARK  9 active torsions:
REMARK  status: ('A' for Active; 'I' for Inactive)
REMARK    1  A    between atoms: C_1  and  C_2
REMARK    2  A    between atoms: C_2  and  N_3
REMARK    3  A    between atoms: C_2  and  C_20
REMARK    4  A    between atoms: C_4  and  C_6
REMARK    5  A    between atoms: C_6  and  N_7
REMARK    6  A    between atoms: N_10  and  C_11
REMARK    7  A    between atoms: C_14  and  C_15
REMARK    8  A    between atoms: C_23  and  C_24
REMARK    9  A    between atoms: C_24  and  C_25
REMARK                            x       y       z     vdW  Elec       q    Type
REMARK                         _______ _______ _______ _____ _____    ______ ____
ROOT
ATOM      1  N   UNL     1       4.816   6.156  17.982  0.00  0.00    +0.000 N 
ATOM      2  C   UNL     1       5.979   5.689  18.567  0.00  0.00    +0.000 C 
ATOM      3  O   UNL     1       6.029   5.081  19.631  0.00  0.00    +0.000 OA
ATOM      4  H   UNL     1       4.919   6.892  17.285  0.00  0.00    +0.000 HD
ENDROOT
BRANCH   1   6
ATOM      5  C   UNL     1       2.696   4.886  17.797  0.00  0.00    +0.000 C 
ATOM      6  C   UNL     1       3.481   5.959  18.563  0.00  0.00    +0.000 C 
BRANCH   6   7
ATOM      7  C   UNL     1       2.734   7.276  18.762  0.00  0.00    +0.000 A 
ATOM      8  C   UNL     1       1.964   7.538  19.906  0.00  0.00    +0.000 A 
ATOM      9  C   UNL     1       1.215   8.710  20.021  0.00  0.00    +0.000 A 
ATOM     10  C   UNL     1       1.211   9.658  18.995  0.00  0.00    +0.000 A 
ATOM     11  C   UNL     1       1.996   9.422  17.859  0.00  0.00    +0.000 A 
ATOM     12  C   UNL     1       2.749   8.247  17.746  0.00  0.00    +0.000 A 
BRANCH  10  13
ATOM     13  C   UNL     1       0.340  10.883  19.119  0.00  0.00    +0.000 C 
BRANCH  13  14
ATOM     14  C   UNL     1      -1.044  10.748  18.532  0.00  0.00    +0.000 A 
ATOM     15  C   UNL     1      -2.091  11.556  18.993  0.00  0.00    +0.000 A 
ATOM     16  C   UNL     1      -3.354  11.490  18.400  0.00  0.00    +0.000 A 
ATOM     17  C   UNL     1      -3.583  10.613  17.341  0.00  0.00    +0.000 A 
ATOM     18  C   UNL     1      -2.556   9.785  16.890  0.00  0.00    +0.000 A 
ATOM     19  C   UNL     1      -1.297   9.844  17.489  0.00  0.00    +0.000 A 
ENDBRANCH  13  14
ENDBRANCH  10  13
ENDBRANCH   6   7
ENDBRANCH   1   6
BRANCH   2  20
ATOM     20  C   UNL     1       7.267   6.040  17.827  0.00  0.00    +0.000 C 
BRANCH  20  21
ATOM     21  N   UNL     1       8.128   6.866  18.662  0.00  0.00    +0.000 N 
ATOM     22  C   UNL     1       8.178   8.213  18.394  0.00  0.00    +0.000 C 
ATOM     23  O   UNL     1       7.515   8.691  17.478  0.00  0.00    +0.000 OA
ATOM     24  N   UNL     1       9.068   8.884  19.206  0.00  0.00    +0.000 N 
ATOM     25  H   UNL     1       8.219   6.575  19.628  0.00  0.00    +0.000 HD
ATOM     26  H   UNL     1       9.699   8.318  19.744  0.00  0.00    +0.000 HD
BRANCH  24  27
ATOM     27  C   UNL     1       9.341  10.275  19.125  0.00  0.00    +0.000 A 
ATOM     28  C   UNL     1       9.645  10.909  17.921  0.00  0.00    +0.000 A 
ATOM     29  C   UNL     1       9.941  12.280  17.870  0.00  0.00    +0.000 A 
ATOM     30  C   UNL     1       9.930  13.038  19.036  0.00  0.00    +0.000 A 
ATOM     31  C   UNL     1       9.616  12.418  20.252  0.00  0.00    +0.000 A 
ATOM     32  C   UNL     1       9.312  11.042  20.293  0.00  0.00    +0.000 A 
BRANCH  30  33
ATOM     33  C   UNL     1      10.243  14.501  18.984  0.00  0.00    +0.000 C 
ATOM     34  N   UNL     1       9.357  15.421  19.223  0.00  0.00    +0.000 NA
ATOM     35  N   UNL     1      11.495  14.941  18.680  0.00  0.00    +0.000 N 
ATOM     36  H   UNL     1       8.437  15.019  19.388  0.00  0.00    +0.000 HD
ATOM     37  H   UNL     1      12.270  14.385  19.014  0.00  0.00    +0.000 HD
ATOM     38  H   UNL     1      11.591  15.928  18.912  0.00  0.00    +0.000 HD
ENDBRANCH  30  33
ENDBRANCH  24  27
ENDBRANCH  20  21
ENDBRANCH   2  20
TORSDOF 8
ENDMDL
MODEL 2
REMARK VINA RESULT:      -8.6      1.028      1.722
REMARK  Name = 
REMARK  9 active torsions:
REMARK  status: ('A' for Active; 'I' for Inactive)
REMARK    1  A    between atoms: C_1  and  C_2
REMARK    2  A    between atoms: C_2  and  N_3
REMARK    3  A    between atoms: C_2  and  C_20
REMARK    4  A    between atoms: C_4  and  C_6
REMARK    5  A    between atoms: C_6  and  N_7
REMARK    6  A    between atoms: N_10  and  C_11
REMARK    7  A    between atoms: C_14  and  C_15
REMARK    8  A    between atoms: C_23  and  C_24
REMARK    9  A    between atoms: C_24  and  C_25
REMARK                            x       y       z     vdW  Elec       q    Type
REMARK                         _______ _______ _______ _____ _____    ______ ____
ROOT
ATOM      1  N   UNL     1       4.645   5.908  18.150  0.00  0.00    +0.000 N 
ATOM      2  C   UNL     1       5.777   5.147  18.381  0.00  0.00    +0.000 C 
ATOM      3  O   UNL     1       5.893   4.328  19.287  0.00  0.00    +0.000 OA
ATOM      4  H   UNL     1       4.767   6.748  17.587  0.00  0.00    +0.000 HD
ENDROOT
BRANCH   1   6
ATOM      5  C   UNL     1       2.642   4.531  18.633  0.00  0.00    +0.000 C 
ATOM      6  C   UNL     1       3.423   5.811  18.961  0.00  0.00    +0.000 C 
BRANCH   6   7
ATOM      7  C   UNL     1       2.595   7.093  18.918  0.00  0.00    +0.000 A 
ATOM      8  C   UNL     1       2.546   7.917  17.782  0.00  0.00    +0.000 A 
ATOM      9  C   UNL     1       1.859   9.132  17.801  0.00  0.00    +0.000 A 
ATOM     10  C   UNL     1       1.198   9.562  18.954  0.00  0.00    +0.000 A 
ATOM     11  C   UNL     1       1.216   8.737  20.085  0.00  0.00    +0.000 A 
ATOM     12  C   UNL     1       1.905   7.518  20.066  0.00  0.00    +0.000 A 
BRANCH  10  13
ATOM     13  C   UNL     1       0.520  10.909  18.964  0.00  0.00    +0.000 C 
BRANCH  13  14
ATOM     14  C   UNL     1      -0.921  10.905  18.515  0.00  0.00    +0.000 A 
ATOM     15  C   UNL     1      -1.369   9.962  17.581  0.00  0.00    +0.000 A 
ATOM     16  C   UNL     1      -2.718   9.903  17.222  0.00  0.00    +0.000 A 
ATOM     17  C   UNL     1      -3.632  10.788  17.791  0.00  0.00    +0.000 A 
ATOM     18  C   UNL     1      -3.194  11.747  18.703  0.00  0.00    +0.000 A 
ATOM     19  C   UNL     1      -1.845  11.813  19.055  0.00  0.00    +0.000 A 
ENDBRANCH  13  14
ENDBRANCH  10  13
ENDBRANCH   6   7
ENDBRANCH   1   6
BRANCH   2  20
ATOM     20  C   UNL     1       6.956   5.434  17.455  0.00  0.00    +0.000 C 
BRANCH  20  21
ATOM     21  N   UNL     1       6.971   6.836  17.065  0.00  0.00    +0.000 N 
ATOM     22  C   UNL     1       7.762   7.694  17.791  0.00  0.00    +0.000 C 
ATOM     23  O   UNL     1       8.429   7.279  18.734  0.00  0.00    +0.000 OA
ATOM     24  N   UNL     1       7.651   9.003  17.371  0.00  0.00    +0.000 N 
ATOM     25  H   UNL     1       6.860   7.022  16.076  0.00  0.00    +0.000 HD
ATOM     26  H   UNL     1       6.895   9.211  16.745  0.00  0.00    +0.000 HD
BRANCH  24  27
ATOM     27  C   UNL     1       8.333  10.098  17.964  0.00  0.00    +0.000 A 
ATOM     28  C   UNL     1       8.171  11.410  17.519  0.00  0.00    +0.000 A 
ATOM     29  C   UNL     1       8.880  12.473  18.101  0.00  0.00    +0.000 A 
ATOM     30  C   UNL     1       9.762  12.231  19.148  0.00  0.00    +0.000 A 
ATOM     31  C   UNL     1       9.929  10.920  19.613  0.00  0.00    +0.000 A 
ATOM     32  C   UNL     1       9.208   9.859  19.028  0.00  0.00    +0.000 A 
BRANCH  30  33
ATOM     33  C   UNL     1      10.517  13.363  19.771  0.00  0.00    +0.000 C 
ATOM     34  N   UNL     1      11.793  13.310  20.015  0.00  0.00    +0.000 NA
ATOM     35  N   UNL     1       9.890  14.521  20.113  0.00  0.00    +0.000 N 
ATOM     36  H   UNL     1      12.179  12.398  19.784  0.00  0.00    +0.000 HD
ATOM     37  H   UNL     1       9.142  14.833  19.510  0.00  0.00    +0.000 HD
ATOM     38  H   UNL     1      10.573  15.253  20.302  0.00  0.00    +0.000 HD
ENDBRANCH  30  33
ENDBRANCH  24  27
ENDBRANCH  20  21
ENDBRANCH   2  20
TORSDOF 8
ENDMDL
MODEL 3
REMARK VINA RESULT:      -8.5      1.567      2.288
REMARK  Name = 
REMARK  9 active torsions:
REMARK  status: ('A' for Active; 'I' for Inactive)
REMARK    1  A    between atoms: C_1  and  C_2
REMARK    2  A    between atoms: C_2  and  N_3
REMARK    3  A    between atoms: C_2  and  C_20
REMARK    4  A    between atoms: C_4  and  C_6
REMARK    5  A    between atoms: C_6  and  N_7
REMARK    6  A    between atoms: N_10  and  C_11
REMARK    7  A    between atoms: C_14  and  C_15
REMARK    8  A    between atoms: C_23  and  C_24
REMARK    9  A    between atoms: C_24  and  C_25
REMARK                            x       y       z     vdW  Elec       q    Type
REMARK                         _______ _______ _______ _____ _____    ______ ____
ROOT
ATOM      1  N   UNL     1       4.884   5.912  18.139  0.00  0.00    +0.000 N 
ATOM      2  C   UNL     1       6.091   5.559  18.714  0.00  0.00    +0.000 C 
ATOM      3  O   UNL     1       6.207   4.919  19.755  0.00  0.00    +0.000 OA
ATOM      4  H   UNL     1       4.905   6.682  17.471  0.00  0.00    +0.000 HD
ENDROOT
BRANCH   1   6
ATOM      5  C   UNL     1       2.834   4.568  17.781  0.00  0.00    +0.000 C 
ATOM      6  C   UNL     1       3.578   5.543  18.703  0.00  0.00    +0.000 C 
BRANCH   6   7
ATOM      7  C   UNL     1       2.766   6.763  19.132  0.00  0.00    +0.000 A 
ATOM      8  C   UNL     1       2.195   6.873  20.410  0.00  0.00    +0.000 A 
ATOM      9  C   UNL     1       1.377   7.953  20.746  0.00  0.00    +0.000 A 
ATOM     10  C   UNL     1       1.104   8.958  19.815  0.00  0.00    +0.000 A 
ATOM     11  C   UNL     1       1.689   8.875  18.545  0.00  0.00    +0.000 A 
ATOM     12  C   UNL     1       2.510   7.792  18.209  0.00  0.00    +0.000 A 
BRANCH  10  13
ATOM     13  C   UNL     1       0.165  10.078  20.186  0.00  0.00    +0.000 C 
BRANCH  13  14
ATOM     14  C   UNL     1       0.560  11.442  19.674  0.00  0.00    +0.000 A 
ATOM     15  C   UNL     1      -0.244  12.110  18.742  0.00  0.00    +0.000 A 
ATOM     16  C   UNL     1       0.076  13.404  18.325  0.00  0.00    +0.000 A 
ATOM     17  C   UNL     1       1.205  14.043  18.835  0.00  0.00    +0.000 A 
ATOM     18  C   UNL     1       2.027  13.380  19.744  0.00  0.00    +0.000 A 
ATOM     19  C   UNL     1       1.713  12.083  20.153  0.00  0.00    +0.000 A 
ENDBRANCH  13  14
ENDBRANCH  10  13
ENDBRANCH   6   7
ENDBRANCH   1   6
BRANCH   2  20
ATOM     20  C   UNL     1       7.333   6.081  17.998  0.00  0.00    +0.000 C 
BRANCH  20  21
ATOM     21  N   UNL     1       7.972   7.130  18.781  0.00  0.00    +0.000 N 
ATOM     22  C   UNL     1       8.232   8.326  18.157  0.00  0.00    +0.000 C 
ATOM     23  O   UNL     1       7.932   8.492  16.978  0.00  0.00    +0.000 OA
ATOM     24  N   UNL     1       8.892   9.220  18.975  0.00  0.00    +0.000 N 
ATOM     25  H   UNL     1       7.735   7.155  19.765  0.00  0.00    +0.000 HD
ATOM     26  H   UNL     1       9.269   8.851  19.829  0.00  0.00    +0.000 HD
BRANCH  24  27
ATOM     27  C   UNL     1       9.309  10.517  18.578  0.00  0.00    +0.000 A 
ATOM     28  C   UNL     1      10.625  10.957  18.723  0.00  0.00    +0.000 A 
ATOM     29  C   UNL     1      11.007  12.256  18.352  0.00  0.00    +0.000 A 
ATOM     30  C   UNL     1      10.067  13.133  17.819  0.00  0.00    +0.000 A 
ATOM     31  C   UNL     1       8.745  12.702  17.658  0.00  0.00    +0.000 A 
ATOM     32  C   UNL     1       8.370  11.394  18.026  0.00  0.00    +0.000 A 
BRANCH  30  33
ATOM     33  C   UNL     1      10.474  14.517  17.421  0.00  0.00    +0.000 C 
ATOM     34  N   UNL     1      11.229  14.760  16.390  0.00  0.00    +0.000 NA
ATOM     35  N   UNL     1      10.063  15.602  18.131  0.00  0.00    +0.000 N 
ATOM     36  H   UNL     1      11.539  13.901  15.944  0.00  0.00    +0.000 HD
ATOM     37  H   UNL     1       9.134  15.565  18.528  0.00  0.00    +0.000 HD
ATOM     38  H   UNL     1      10.230  16.457  17.603  0.00  0.00    +0.000 HD
ENDBRANCH  30  33
ENDBRANCH  24  27
ENDBRANCH  20  21
ENDBRANCH   2  20
TORSDOF 8
ENDMDL
MODEL 4
REMARK VINA RESULT:      -8.5      1.261      1.921
REMARK  Name = 
REMARK  9 active torsions:
REMARK  status: ('A' for Active; 'I' for Inactive)
REMARK    1  A    between atoms: C_1  and  C_2
REMARK    2  A    between atoms: C_2  and  N_3
REMARK    3  A    between atoms: C_2  and  C_20
REMARK    4  A    between atoms: C_4  and  C_6
REMARK    5  A    between atoms: C_6  and  N_7
REMARK    6  A    between atoms: N_10  and  C_11
REMARK    7  A    between atoms: C_14  and  C_15
REMARK    8  A    between atoms: C_23  and  C_24
REMARK    9  A    between atoms: C_24  and  C_25
REMARK                            x       y       z     vdW  Elec       q    Type
REMARK                         _______ _______ _______ _____ _____    ______ ____
ROOT
ATOM      1  N   UNL     1       4.505   5.243  17.710  0.00  0.00    +0.000 N 
ATOM      2  C   UNL     1       5.721   5.468  18.329  0.00  0.00    +0.000 C 
ATOM      3  O   UNL     1       5.889   5.498  19.544  0.00  0.00    +0.000 OA
ATOM      4  H   UNL     1       4.426   5.540  16.738  0.00  0.00    +0.000 HD
ENDROOT
BRANCH   1   6
ATOM      5  C   UNL     1       2.350   4.020  17.672  0.00  0.00    +0.000 C 
ATOM      6  C   UNL     1       3.256   4.990  18.442  0.00  0.00    +0.000 C 
BRANCH   6   7
ATOM      7  C   UNL     1       2.575   6.282  18.889  0.00  0.00    +0.000 A 
ATOM      8  C   UNL     1       2.486   7.410  18.059  0.00  0.00    +0.000 A 
ATOM      9  C   UNL     1       1.944   8.609  18.525  0.00  0.00    +0.000 A 
ATOM     10  C   UNL     1       1.473   8.719  19.835  0.00  0.00    +0.000 A 
ATOM     11  C   UNL     1       1.531   7.592  20.666  0.00  0.00    +0.000 A 
ATOM     12  C   UNL     1       2.074   6.390  20.198  0.00  0.00    +0.000 A 
BRANCH  10  13
ATOM     13  C   UNL     1       0.953  10.045  20.330  0.00  0.00    +0.000 C 
BRANCH  13  14
ATOM     14  C   UNL     1      -0.092  10.691  19.452  0.00  0.00    +0.000 A 
ATOM     15  C   UNL     1       0.077  12.006  19.000  0.00  0.00    +0.000 A 
ATOM     16  C   UNL     1      -0.847  12.581  18.125  0.00  0.00    +0.000 A 
ATOM     17  C   UNL     1      -1.951  11.848  17.695  0.00  0.00    +0.000 A 
ATOM     18  C   UNL     1      -2.144  10.547  18.157  0.00  0.00    +0.000 A 
ATOM     19  C   UNL     1      -1.226   9.975  19.040  0.00  0.00    +0.000 A 
ENDBRANCH  13  14
ENDBRANCH  10  13
ENDBRANCH   6   7
ENDBRANCH   1   6
BRANCH   2  20
ATOM     20  C   UNL     1       6.889   5.757  17.390  0.00  0.00    +0.000 C 
BRANCH  20  21
ATOM     21  N   UNL     1       6.981   7.183  17.113  0.00  0.00    +0.000 N 
ATOM     22  C   UNL     1       7.842   7.930  17.880  0.00  0.00    +0.000 C 
ATOM     23  O   UNL     1       8.505   7.400  18.767  0.00  0.00    +0.000 OA
ATOM     24  N   UNL     1       7.802   9.273  17.570  0.00  0.00    +0.000 N 
ATOM     25  H   UNL     1       6.858   7.455  16.145  0.00  0.00    +0.000 HD
ATOM     26  H   UNL     1       7.044   9.576  16.985  0.00  0.00    +0.000 HD
BRANCH  24  27
ATOM     27  C   UNL     1       8.565  10.273  18.227  0.00  0.00    +0.000 A 
ATOM     28  C   UNL     1       9.236  10.037  19.427  0.00  0.00    +0.000 A 
ATOM     29  C   UNL     1       9.958  11.052  20.073  0.00  0.00    +0.000 A 
ATOM     30  C   UNL     1      10.023  12.325  19.516  0.00  0.00    +0.000 A 
ATOM     31  C   UNL     1       9.363  12.575  18.306  0.00  0.00    +0.000 A 
ATOM     32  C   UNL     1       8.646  11.549  17.659  0.00  0.00    +0.000 A 
BRANCH  30  33
ATOM     33  C   UNL     1      10.795  13.407  20.203  0.00  0.00    +0.000 C 
ATOM     34  N   UNL     1      11.950  13.826  19.780  0.00  0.00    +0.000 NA
ATOM     35  N   UNL     1      10.312  14.012  21.323  0.00  0.00    +0.000 N 
ATOM     36  H   UNL     1      12.269  13.292  18.975  0.00  0.00    +0.000 HD
ATOM     37  H   UNL     1       9.312  14.150  21.374  0.00  0.00    +0.000 HD
ATOM     38  H   UNL     1      10.836  14.863  21.521  0.00  0.00    +0.000 HD
ENDBRANCH  30  33
ENDBRANCH  24  27
ENDBRANCH  20  21
ENDBRANCH   2  20
TORSDOF 8
ENDMDL
MODEL 5
REMARK VINA RESULT:      -8.4      3.735      6.182
REMARK  Name = 
REMARK  9 active torsions:
REMARK  status: ('A' for Active; 'I' for Inactive)
REMARK    1  A    between atoms: C_1  and  C_2
REMARK    2  A    between atoms: C_2  and  N_3
REMARK    3  A    between atoms: C_2  and  C_20
REMARK    4  A    between atoms: C_4  and  C_6
REMARK    5  A    between atoms: C_6  and  N_7
REMARK    6  A    between atoms: N_10  and  C_11
REMARK    7  A    between atoms: C_14  and  C_15
REMARK    8  A    between atoms: C_23  and  C_24
REMARK    9  A    between atoms: C_24  and  C_25
REMARK                            x       y       z     vdW  Elec       q    Type
REMARK                         _______ _______ _______ _____ _____    ______ ____
ROOT
ATOM      1  N   UNL     1       0.467  12.462  18.396  0.00  0.00    +0.000 N 
ATOM      2  C   UNL     1       1.430  13.053  19.194  0.00  0.00    +0.000 C 
ATOM      3  O   UNL     1       1.777  12.634  20.294  0.00  0.00    +0.000 OA
ATOM      4  H   UNL     1       0.052  13.047  17.673  0.00  0.00    +0.000 HD
ENDROOT
BRANCH   1   6
ATOM      5  C   UNL     1      -1.182  11.477  19.961  0.00  0.00    +0.000 C 
ATOM      6  C   UNL     1      -0.251  11.234  18.766  0.00  0.00    +0.000 C 
BRANCH   6   7
ATOM      7  C   UNL     1       0.687  10.038  18.920  0.00  0.00    +0.000 A 
ATOM      8  C   UNL     1       1.418   9.514  17.842  0.00  0.00    +0.000 A 
ATOM      9  C   UNL     1       2.193   8.363  17.987  0.00  0.00    +0.000 A 
ATOM     10  C   UNL     1       2.263   7.698  19.214  0.00  0.00    +0.000 A 
ATOM     11  C   UNL     1       1.560   8.225  20.304  0.00  0.00    +0.000 A 
ATOM     12  C   UNL     1       0.783   9.381  20.159  0.00  0.00    +0.000 A 
BRANCH  10  13
ATOM     13  C   UNL     1       3.056   6.420  19.322  0.00  0.00    +0.000 C 
BRANCH  13  14
ATOM     14  C   UNL     1       2.232   5.156  19.371  0.00  0.00    +0.000 A 
ATOM     15  C   UNL     1       1.921   4.467  18.192  0.00  0.00    +0.000 A 
ATOM     16  C   UNL     1       1.226   3.256  18.239  0.00  0.00    +0.000 A 
ATOM     17  C   UNL     1       0.833   2.723  19.465  0.00  0.00    +0.000 A 
ATOM     18  C   UNL     1       1.114   3.412  20.644  0.00  0.00    +0.000 A 
ATOM     19  C   UNL     1       1.800   4.627  20.597  0.00  0.00    +0.000 A 
ENDBRANCH  13  14
ENDBRANCH  10  13
ENDBRANCH   6   7
ENDBRANCH   1   6
BRANCH   2  20
ATOM     20  C   UNL     1       2.024  14.349  18.649  0.00  0.00    +0.000 C 
BRANCH  20  21
ATOM     21  N   UNL     1       3.211  14.073  17.853  0.00  0.00    +0.000 N 
ATOM     22  C   UNL     1       4.430  14.427  18.379  0.00  0.00    +0.000 C 
ATOM     23  O   UNL     1       4.502  14.959  19.484  0.00  0.00    +0.000 OA
ATOM     24  N   UNL     1       5.475  14.175  17.516  0.00  0.00    +0.000 N 
ATOM     25  H   UNL     1       3.173  13.244  17.273  0.00  0.00    +0.000 HD
ATOM     26  H   UNL     1       5.231  13.956  16.567  0.00  0.00    +0.000 HD
BRANCH  24  27
ATOM     27  C   UNL     1       6.836  14.471  17.791  0.00  0.00    +0.000 A 
ATOM     28  C   UNL     1       7.277  15.761  18.085  0.00  0.00    +0.000 A 
ATOM     29  C   UNL     1       8.633  16.034  18.323  0.00  0.00    +0.000 A 
ATOM     30  C   UNL     1       9.570  15.007  18.274  0.00  0.00    +0.000 A 
ATOM     31  C   UNL     1       9.141  13.704  17.989  0.00  0.00    +0.000 A 
ATOM     32  C   UNL     1       7.777  13.436  17.759  0.00  0.00    +0.000 A 
BRANCH  30  33
ATOM     33  C   UNL     1      11.015  15.297  18.529  0.00  0.00    +0.000 C 
ATOM     34  N   UNL     1      11.964  14.908  17.730  0.00  0.00    +0.000 NA
ATOM     35  N   UNL     1      11.409  15.995  19.630  0.00  0.00    +0.000 N 
ATOM     36  H   UNL     1      11.600  14.349  16.963  0.00  0.00    +0.000 HD
ATOM     37  H   UNL     1      10.798  16.736  19.944  0.00  0.00    +0.000 HD
ATOM     38  H   UNL     1      12.376  16.298  19.532  0.00  0.00    +0.000 HD
ENDBRANCH  30  33
ENDBRANCH  24  27
ENDBRANCH  20  21
ENDBRANCH   2  20
TORSDOF 8
ENDMDL
MODEL 6
REMARK VINA RESULT:      -8.4      1.061      1.599
REMARK  Name = 
REMARK  9 active torsions:
REMARK  status: ('A' for Active; 'I' for Inactive)
REMARK    1  A    between atoms: C_1  and  C_2
REMARK    2  A    between atoms: C_2  and  N_3
REMARK    3  A    between atoms: C_2  and  C_20
REMARK    4  A    between atoms: C_4  and  C_6
REMARK    5  A    between atoms: C_6  and  N_7
REMARK    6  A    between atoms: N_10  and  C_11
REMARK    7  A    between atoms: C_14  and  C_15
REMARK    8  A    between atoms: C_23  and  C_24
REMARK    9  A    between atoms: C_24  and  C_25
REMARK                            x       y       z     vdW  Elec       q    Type
REMARK                         _______ _______ _______ _____ _____    ______ ____
ROOT
ATOM      1  N   UNL     1       4.673   6.092  17.940  0.00  0.00    +0.000 N 
ATOM      2  C   UNL     1       5.930   5.567  18.178  0.00  0.00    +0.000 C 
ATOM      3  O   UNL     1       6.168   4.659  18.969  0.00  0.00    +0.000 OA
ATOM      4  H   UNL     1       4.638   7.017  17.514  0.00  0.00    +0.000 HD
ENDROOT
BRANCH   1   6
ATOM      5  C   UNL     1       2.651   4.686  17.672  0.00  0.00    +0.000 C 
ATOM      6  C   UNL     1       3.453   5.607  18.600  0.00  0.00    +0.000 C 
BRANCH   6   7
ATOM      7  C   UNL     1       2.645   6.740  19.231  0.00  0.00    +0.000 A 
ATOM      8  C   UNL     1       2.071   6.632  20.507  0.00  0.00    +0.000 A 
ATOM      9  C   UNL     1       1.258   7.643  21.021  0.00  0.00    +0.000 A 
ATOM     10  C   UNL     1       0.993   8.795  20.276  0.00  0.00    +0.000 A 
ATOM     11  C   UNL     1       1.582   8.927  19.012  0.00  0.00    +0.000 A 
ATOM     12  C   UNL     1       2.398   7.913  18.497  0.00  0.00    +0.000 A 
BRANCH  10  13
ATOM     13  C   UNL     1       0.058   9.840  20.831  0.00  0.00    +0.000 C 
BRANCH  13  14
ATOM     14  C   UNL     1      -0.179  11.030  19.933  0.00  0.00    +0.000 A 
ATOM     15  C   UNL     1       0.697  12.122  19.958  0.00  0.00    +0.000 A 
ATOM     16  C   UNL     1       0.527  13.190  19.074  0.00  0.00    +0.000 A 
ATOM     17  C   UNL     1      -0.522  13.177  18.157  0.00  0.00    +0.000 A 
ATOM     18  C   UNL     1      -1.416  12.108  18.138  0.00  0.00    +0.000 A 
ATOM     19  C   UNL     1      -1.252  11.045  19.028  0.00  0.00    +0.000 A 
ENDBRANCH  13  14
ENDBRANCH  10  13
ENDBRANCH   6   7
ENDBRANCH   1   6
BRANCH   2  20
ATOM     20  C   UNL     1       7.073   6.242  17.426  0.00  0.00    +0.000 C 
BRANCH  20  21
ATOM     21  N   UNL     1       7.949   6.946  18.352  0.00  0.00    +0.000 N 
ATOM     22  C   UNL     1       8.079   8.306  18.202  0.00  0.00    +0.000 C 
ATOM     23  O   UNL     1       7.472   8.895  17.313  0.00  0.00    +0.000 OA
ATOM     24  N   UNL     1       8.978   8.855  19.093  0.00  0.00    +0.000 N 
ATOM     25  H   UNL     1       7.995   6.570  19.291  0.00  0.00    +0.000 HD
ATOM     26  H   UNL     1       9.560   8.211  19.597  0.00  0.00    +0.000 HD
BRANCH  24  27
ATOM     27  C   UNL     1       9.326  10.231  19.139  0.00  0.00    +0.000 A 
ATOM     28  C   UNL     1       9.684  10.951  18.000  0.00  0.00    +0.000 A 
ATOM     29  C   UNL     1      10.055  12.303  18.076  0.00  0.00    +0.000 A 
ATOM     30  C   UNL     1      10.065  12.955  19.304  0.00  0.00    +0.000 A 
ATOM     31  C   UNL     1       9.698  12.247  20.456  0.00  0.00    +0.000 A 
ATOM     32  C   UNL     1       9.319  10.892  20.371  0.00  0.00    +0.000 A 
BRANCH  30  33
ATOM     33  C   UNL     1      10.457  14.396  19.386  0.00  0.00    +0.000 C 
ATOM     34  N   UNL     1      11.330  14.842  20.240  0.00  0.00    +0.000 NA
ATOM     35  N   UNL     1       9.909  15.323  18.553  0.00  0.00    +0.000 N 
ATOM     36  H   UNL     1      11.654  14.104  20.862  0.00  0.00    +0.000 HD
ATOM     37  H   UNL     1       9.702  15.025  17.610  0.00  0.00    +0.000 HD
ATOM     38  H   UNL     1      10.444  16.189  18.583  0.00  0.00    +0.000 HD
ENDBRANCH  30  33
ENDBRANCH  24  27
ENDBRANCH  20  21
ENDBRANCH   2  20
TORSDOF 8
ENDMDL
MODEL 7
REMARK VINA RESULT:      -8.3      4.042      6.465
REMARK  Name = 
REMARK  9 active torsions:
REMARK  status: ('A' for Active; 'I' for Inactive)
REMARK    1  A    between atoms: C_1  and  C_2
REMARK    2  A    between atoms: C_2  and  N_3
REMARK    3  A    between atoms: C_2  and  C_20
REMARK    4  A    between atoms: C_4  and  C_6
REMARK    5  A    between atoms: C_6  and  N_7
REMARK    6  A    between atoms: N_10  and  C_11
REMARK    7  A    between atoms: C_14  and  C_15
REMARK    8  A    between atoms: C_23  and  C_24
REMARK    9  A    between atoms: C_24  and  C_25
REMARK                            x       y       z     vdW  Elec       q    Type
REMARK                         _______ _______ _______ _____ _____    ______ ____
ROOT
ATOM      1  N   UNL     1       0.496  12.249  18.728  0.00  0.00    +0.000 N 
ATOM      2  C   UNL     1       1.369  12.888  19.589  0.00  0.00    +0.000 C 
ATOM      3  O   UNL     1       1.647  12.497  20.719  0.00  0.00    +0.000 OA
ATOM      4  H   UNL     1       0.114  12.809  17.967  0.00  0.00    +0.000 HD
ENDROOT
BRANCH   1   6
ATOM      5  C   UNL     1      -1.070  11.162  20.311  0.00  0.00    +0.000 C 
ATOM      6  C   UNL     1      -0.198  10.997  19.059  0.00  0.00    +0.000 C 
BRANCH   6   7
ATOM      7  C   UNL     1       0.750   9.800  19.094  0.00  0.00    +0.000 A 
ATOM      8  C   UNL     1       1.474   9.383  17.966  0.00  0.00    +0.000 A 
ATOM      9  C   UNL     1       2.260   8.230  17.997  0.00  0.00    +0.000 A 
ATOM     10  C   UNL     1       2.348   7.456  19.157  0.00  0.00    +0.000 A 
ATOM     11  C   UNL     1       1.651   7.876  20.298  0.00  0.00    +0.000 A 
ATOM     12  C   UNL     1       0.864   9.034  20.266  0.00  0.00    +0.000 A 
BRANCH  10  13
ATOM     13  C   UNL     1       3.152   6.181  19.141  0.00  0.00    +0.000 C 
BRANCH  13  14
ATOM     14  C   UNL     1       2.398   4.943  19.563  0.00  0.00    +0.000 A 
ATOM     15  C   UNL     1       1.735   4.158  18.610  0.00  0.00    +0.000 A 
ATOM     16  C   UNL     1       1.103   2.970  18.984  0.00  0.00    +0.000 A 
ATOM     17  C   UNL     1       1.126   2.555  20.315  0.00  0.00    +0.000 A 
ATOM     18  C   UNL     1       1.761   3.340  21.276  0.00  0.00    +0.000 A 
ATOM     19  C   UNL     1       2.384   4.533  20.905  0.00  0.00    +0.000 A 
ENDBRANCH  13  14
ENDBRANCH  10  13
ENDBRANCH   6   7
ENDBRANCH   1   6
BRANCH   2  20
ATOM     20  C   UNL     1       1.950  14.202  19.074  0.00  0.00    +0.000 C 
BRANCH  20  21
ATOM     21  N   UNL     1       3.246  14.463  19.683  0.00  0.00    +0.000 N 
ATOM     22  C   UNL     1       4.265  14.886  18.865  0.00  0.00    +0.000 C 
ATOM     23  O   UNL     1       4.076  15.035  17.661  0.00  0.00    +0.000 OA
ATOM     24  N   UNL     1       5.459  15.042  19.538  0.00  0.00    +0.000 N 
ATOM     25  H   UNL     1       3.227  14.818  20.631  0.00  0.00    +0.000 HD
ATOM     26  H   UNL     1       5.504  14.659  20.465  0.00  0.00    +0.000 HD
BRANCH  24  27
ATOM     27  C   UNL     1       6.679  15.440  18.932  0.00  0.00    +0.000 A 
ATOM     28  C   UNL     1       7.116  16.764  18.925  0.00  0.00    +0.000 A 
ATOM     29  C   UNL     1       8.311  17.138  18.292  0.00  0.00    +0.000 A 
ATOM     30  C   UNL     1       9.093  16.178  17.657  0.00  0.00    +0.000 A 
ATOM     31  C   UNL     1       8.673  14.841  17.664  0.00  0.00    +0.000 A 
ATOM     32  C   UNL     1       7.475  14.473  18.309  0.00  0.00    +0.000 A 
BRANCH  30  33
ATOM     33  C   UNL     1      10.369  16.574  16.984  0.00  0.00    +0.000 C 
ATOM     34  N   UNL     1      10.819  17.793  16.989  0.00  0.00    +0.000 NA
ATOM     35  N   UNL     1      11.130  15.658  16.325  0.00  0.00    +0.000 N 
ATOM     36  H   UNL     1      10.173  18.428  17.451  0.00  0.00    +0.000 HD
ATOM     37  H   UNL     1      11.164  14.726  16.714  0.00  0.00    +0.000 HD
ATOM     38  H   UNL     1      12.055  16.037  16.131  0.00  0.00    +0.000 HD
ENDBRANCH  30  33
ENDBRANCH  24  27
ENDBRANCH  20  21
ENDBRANCH   2  20
TORSDOF 8
ENDMDL
MODEL 8
REMARK VINA RESULT:      -8.3      1.436      2.590
REMARK  Name = 
REMARK  9 active torsions:
REMARK  status: ('A' for Active; 'I' for Inactive)
REMARK    1  A    between atoms: C_1  and  C_2
REMARK    2  A    between atoms: C_2  and  N_3
REMARK    3  A    between atoms: C_2  and  C_20
REMARK    4  A    between atoms: C_4  and  C_6
REMARK    5  A    between atoms: C_6  and  N_7
REMARK    6  A    between atoms: N_10  and  C_11
REMARK    7  A    between atoms: C_14  and  C_15
REMARK    8  A    between atoms: C_23  and  C_24
REMARK    9  A    between atoms: C_24  and  C_25
REMARK                            x       y       z     vdW  Elec       q    Type
REMARK                         _______ _______ _______ _____ _____    ______ ____
ROOT
ATOM      1  N   UNL     1       4.791   6.142  17.969  0.00  0.00    +0.000 N 
ATOM      2  C   UNL     1       5.932   5.462  18.355  0.00  0.00    +0.000 C 
ATOM      3  O   UNL     1       5.969   4.600  19.227  0.00  0.00    +0.000 OA
ATOM      4  H   UNL     1       4.929   7.023  17.477  0.00  0.00    +0.000 HD
ENDROOT
BRANCH   1   6
ATOM      5  C   UNL     1       2.699   4.831  17.750  0.00  0.00    +0.000 C 
ATOM      6  C   UNL     1       3.464   5.894  18.550  0.00  0.00    +0.000 C 
BRANCH   6   7
ATOM      7  C   UNL     1       2.690   7.186  18.800  0.00  0.00    +0.000 A 
ATOM      8  C   UNL     1       2.136   7.500  20.051  0.00  0.00    +0.000 A 
ATOM      9  C   UNL     1       1.352   8.641  20.229  0.00  0.00    +0.000 A 
ATOM     10  C   UNL     1       1.096   9.505  19.161  0.00  0.00    +0.000 A 
ATOM     11  C   UNL     1       1.665   9.219  17.914  0.00  0.00    +0.000 A 
ATOM     12  C   UNL     1       2.453   8.075  17.736  0.00  0.00    +0.000 A 
BRANCH  10  13
ATOM     13  C   UNL     1       0.192  10.694  19.368  0.00  0.00    +0.000 C 
BRANCH  13  14
ATOM     14  C   UNL     1       0.901  12.003  19.621  0.00  0.00    +0.000 A 
ATOM     15  C   UNL     1       1.900  12.448  18.746  0.00  0.00    +0.000 A 
ATOM     16  C   UNL     1       2.503  13.694  18.932  0.00  0.00    +0.000 A 
ATOM     17  C   UNL     1       2.115  14.506  19.995  0.00  0.00    +0.000 A 
ATOM     18  C   UNL     1       1.140  14.064  20.887  0.00  0.00    +0.000 A 
ATOM     19  C   UNL     1       0.543  12.815  20.708  0.00  0.00    +0.000 A 
ENDBRANCH  13  14
ENDBRANCH  10  13
ENDBRANCH   6   7
ENDBRANCH   1   6
BRANCH   2  20
ATOM     20  C   UNL     1       7.219   5.902  17.662  0.00  0.00    +0.000 C 
BRANCH  20  21
ATOM     21  N   UNL     1       8.030   6.716  18.557  0.00  0.00    +0.000 N 
ATOM     22  C   UNL     1       8.092   8.067  18.312  0.00  0.00    +0.000 C 
ATOM     23  O   UNL     1       7.481   8.558  17.367  0.00  0.00    +0.000 OA
ATOM     24  N   UNL     1       8.934   8.726  19.183  0.00  0.00    +0.000 N 
ATOM     25  H   UNL     1       8.067   6.411  19.522  0.00  0.00    +0.000 HD
ATOM     26  H   UNL     1       9.535   8.153  19.747  0.00  0.00    +0.000 HD
BRANCH  24  27
ATOM     27  C   UNL     1       9.208  10.118  19.138  0.00  0.00    +0.000 A 
ATOM     28  C   UNL     1       9.441  10.873  20.288  0.00  0.00    +0.000 A 
ATOM     29  C   UNL     1       9.679  12.255  20.220  0.00  0.00    +0.000 A 
ATOM     30  C   UNL     1       9.692  12.900  18.988  0.00  0.00    +0.000 A 
ATOM     31  C   UNL     1       9.470  12.154  17.823  0.00  0.00    +0.000 A 
ATOM     32  C   UNL     1       9.239  10.766  17.899  0.00  0.00    +0.000 A 
BRANCH  30  33
ATOM     33  C   UNL     1       9.948  14.372  18.914  0.00  0.00    +0.000 C 
ATOM     34  N   UNL     1       9.200  15.184  18.226  0.00  0.00    +0.000 NA
ATOM     35  N   UNL     1      10.993  14.938  19.577  0.00  0.00    +0.000 N 
ATOM     36  H   UNL     1       8.476  14.683  17.717  0.00  0.00    +0.000 HD
ATOM     37  H   UNL     1      11.234  14.542  20.475  0.00  0.00    +0.000 HD
ATOM     38  H   UNL     1      10.887  15.951  19.610  0.00  0.00    +0.000 HD
ENDBRANCH  30  33
ENDBRANCH  24  27
ENDBRANCH  20  21
ENDBRANCH   2  20
TORSDOF 8
ENDMDL
MODEL 9
REMARK VINA RESULT:      -8.3      1.779      3.025
REMARK  Name = 
REMARK  9 active torsions:
REMARK  status: ('A' for Active; 'I' for Inactive)
REMARK    1  A    between atoms: C_1  and  C_2
REMARK    2  A    between atoms: C_2  and  N_3
REMARK    3  A    between atoms: C_2  and  C_20
REMARK    4  A    between atoms: C_4  and  C_6
REMARK    5  A    between atoms: C_6  and  N_7
REMARK    6  A    between atoms: N_10  and  C_11
REMARK    7  A    between atoms: C_14  and  C_15
REMARK    8  A    between atoms: C_23  and  C_24
REMARK    9  A    between atoms: C_24  and  C_25
REMARK                            x       y       z     vdW  Elec       q    Type
REMARK                         _______ _______ _______ _____ _____    ______ ____
ROOT
ATOM      1  N   UNL     1       4.540   5.856  18.169  0.00  0.00    +0.000 N 
ATOM      2  C   UNL     1       5.723   5.192  18.434  0.00  0.00    +0.000 C 
ATOM      3  O   UNL     1       5.928   4.502  19.428  0.00  0.00    +0.000 OA
ATOM      4  H   UNL     1       4.587   6.623  17.500  0.00  0.00    +0.000 HD
ENDROOT
BRANCH   1   6
ATOM      5  C   UNL     1       2.555   4.517  18.808  0.00  0.00    +0.000 C 
ATOM      6  C   UNL     1       3.364   5.799  19.048  0.00  0.00    +0.000 C 
BRANCH   6   7
ATOM      7  C   UNL     1       2.545   7.088  19.006  0.00  0.00    +0.000 A 
ATOM      8  C   UNL     1       2.472   7.894  17.859  0.00  0.00    +0.000 A 
ATOM      9  C   UNL     1       1.795   9.114  17.875  0.00  0.00    +0.000 A 
ATOM     10  C   UNL     1       1.170   9.569  19.039  0.00  0.00    +0.000 A 
ATOM     11  C   UNL     1       1.212   8.762  20.183  0.00  0.00    +0.000 A 
ATOM     12  C   UNL     1       1.890   7.537  20.166  0.00  0.00    +0.000 A 
BRANCH  10  13
ATOM     13  C   UNL     1       0.504  10.922  19.044  0.00  0.00    +0.000 C 
BRANCH  13  14
ATOM     14  C   UNL     1       1.424  12.089  19.308  0.00  0.00    +0.000 A 
ATOM     15  C   UNL     1       2.133  12.684  18.256  0.00  0.00    +0.000 A 
ATOM     16  C   UNL     1       2.924  13.812  18.481  0.00  0.00    +0.000 A 
ATOM     17  C   UNL     1       3.017  14.356  19.761  0.00  0.00    +0.000 A 
ATOM     18  C   UNL     1       2.337  13.759  20.821  0.00  0.00    +0.000 A 
ATOM     19  C   UNL     1       1.553  12.625  20.598  0.00  0.00    +0.000 A 
ENDBRANCH  13  14
ENDBRANCH  10  13
ENDBRANCH   6   7
ENDBRANCH   1   6
BRANCH   2  20
ATOM     20  C   UNL     1       6.841   5.419  17.419  0.00  0.00    +0.000 C 
BRANCH  20  21
ATOM     21  N   UNL     1       6.915   6.824  17.046  0.00  0.00    +0.000 N 
ATOM     22  C   UNL     1       7.733   7.641  17.788  0.00  0.00    +0.000 C 
ATOM     23  O   UNL     1       8.375   7.189  18.732  0.00  0.00    +0.000 OA
ATOM     24  N   UNL     1       7.678   8.958  17.383  0.00  0.00    +0.000 N 
ATOM     25  H   UNL     1       6.820   7.026  16.058  0.00  0.00    +0.000 HD
ATOM     26  H   UNL     1       6.935   9.203  16.754  0.00  0.00    +0.000 HD
BRANCH  24  27
ATOM     27  C   UNL     1       8.397  10.019  17.994  0.00  0.00    +0.000 A 
ATOM     28  C   UNL     1       9.236   9.821  19.090  0.00  0.00    +0.000 A 
ATOM     29  C   UNL     1       9.913  10.890  19.696  0.00  0.00    +0.000 A 
ATOM     30  C   UNL     1       9.759  12.182  19.203  0.00  0.00    +0.000 A 
ATOM     31  C   UNL     1       8.927  12.396  18.096  0.00  0.00    +0.000 A 
ATOM     32  C   UNL     1       8.257  11.315  17.488  0.00  0.00    +0.000 A 
BRANCH  30  33
ATOM     33  C   UNL     1      10.482  13.323  19.847  0.00  0.00    +0.000 C 
ATOM     34  N   UNL     1       9.868  14.359  20.338  0.00  0.00    +0.000 NA
ATOM     35  N   UNL     1      11.839  13.327  19.951  0.00  0.00    +0.000 N 
ATOM     36  H   UNL     1       8.866  14.310  20.175  0.00  0.00    +0.000 HD
ATOM     37  H   UNL     1      12.288  12.436  20.112  0.00  0.00    +0.000 HD
ATOM     38  H   UNL     1      12.144  14.044  20.605  0.00  0.00    +0.000 HD
ENDBRANCH  30  33
ENDBRANCH  24  27
ENDBRANCH  20  21
ENDBRANCH   2  20
TORSDOF 8
ENDMDL
