MODEL 1
REMARK VINA RESULT:      -9.2      0.000      0.000
REMARK  Name = 
REMARK  5 active torsions:
REMARK  status: ('A' for Active; 'I' for Inactive)
REMARK    1  A    between atoms: C_1  and  C_2
REMARK    2  A    between atoms: C_5  and  O_6
REMARK    3  A    between atoms: C_8  and  N_9
REMARK    4  A    between atoms: N_9  and  C_10
REMARK    5  A    between atoms: C_16  and  C_17
REMARK                            x       y       z     vdW  Elec       q    Type
REMARK                         _______ _______ _______ _____ _____    ______ ____
ROOT
ATOM      1  C   UNL     1       2.808   5.756  19.380  0.00  0.00    +0.000 A 
ATOM      2  C   UNL     1       1.880   4.786  19.772  0.00  0.00    +0.000 A 
ATOM      3  C   UNL     1       1.772   3.626  19.038  0.00  0.00    +0.000 A 
ATOM      4  N   UNL     1       2.509   3.367  17.945  0.00  0.00    +0.000 NA
ATOM      5  C   UNL     1       3.407   4.285  17.558  0.00  0.00    +0.000 A 
ATOM      6  C   UNL     1       4.122   4.027  16.394  0.00  0.00    +0.000 A 
ATOM      7  C   UNL     1       5.097   4.896  15.873  0.00  0.00    +0.000 A 
ATOM      8  C   UNL     1       5.345   6.069  16.600  0.00  0.00    +0.000 A 
ATOM      9  C   UNL     1       4.616   6.374  17.758  0.00  0.00    +0.000 A 
ATOM     10  C   UNL     1       3.629   5.495  18.251  0.00  0.00    +0.000 A 
ENDROOT
BRANCH   7  11
ATOM     11  C   UNL     1       5.807   4.590  14.605  0.00  0.00    +0.000 A 
ATOM     12  C   UNL     1       7.051   5.172  14.296  0.00  0.00    +0.000 A 
ATOM     13  C   UNL     1       7.716   4.896  13.095  0.00  0.00    +0.000 A 
ATOM     14  C   UNL     1       7.144   4.037  12.163  0.00  0.00    +0.000 A 
ATOM     15  C   UNL     1       5.912   3.452  12.434  0.00  0.00    +0.000 A 
ATOM     16  C   UNL     1       5.258   3.720  13.642  0.00  0.00    +0.000 A 
ENDBRANCH   7  11
BRANCH   1  17
ATOM     17  N   UNL     1       2.800   7.015  20.036  0.00  0.00    +0.000 N 
ATOM     18  H   UNL     1       3.683   7.314  20.426  0.00  0.00    +0.000 HD
BRANCH  17  25
ATOM     19  C   UNL     1       2.107   8.886  17.832  0.00  0.00    +0.000 C 
ATOM     20  C   UNL     1       1.417   8.866  19.167  0.00  0.00    +0.000 A 
ATOM     21  C   UNL     1       0.469   9.874  19.438  0.00  0.00    +0.000 A 
ATOM     22  C   UNL     1      -0.232   9.906  20.644  0.00  0.00    +0.000 A 
ATOM     23  C   UNL     1      -0.001   8.914  21.580  0.00  0.00    +0.000 A 
ATOM     24  C   UNL     1       0.952   7.933  21.345  0.00  0.00    +0.000 A 
ATOM     25  C   UNL     1       1.707   7.911  20.158  0.00  0.00    +0.000 A 
BRANCH  23  26
ATOM     26  O   UNL     1      -0.674   8.869  22.763  0.00  0.00    +0.000 OA
ATOM     27  H   UNL     1      -0.410   9.632  23.300  0.00  0.00    +0.000 HD
ENDBRANCH  23  26
ENDBRANCH  17  25
ENDBRANCH   1  17
TORSDOF 4
ENDMDL
MODEL 2
REMARK VINA RESULT:      -9.0      3.034      7.769
REMARK  Name = 
REMARK  5 active torsions:
REMARK  status: ('A' for Active; 'I' for Inactive)
REMARK    1  A    between atoms: C_1  and  C_2
REMARK    2  A    between atoms: C_5  and  O_6
REMARK    3  A    between atoms: C_8  and  N_9
REMARK    4  A    between atoms: N_9  and  C_10
REMARK    5  A    between atoms: C_16  and  C_17
REMARK                            x       y       z     vdW  Elec       q    Type
REMARK                         _______ _______ _______ _____ _____    ______ ____
ROOT
ATOM      1  C   UNL     1       3.203   4.456  18.874  0.00  0.00    +0.000 A 
ATOM      2  C   UNL     1       2.872   3.202  19.397  0.00  0.00    +0.000 A 
ATOM      3  C   UNL     1       1.909   3.116  20.377  0.00  0.00    +0.000 A 
ATOM      4  N   UNL     1       1.263   4.183  20.878  0.00  0.00    +0.000 NA
ATOM      5  C   UNL     1       1.565   5.393  20.385  0.00  0.00    +0.000 A 
ATOM      6  C   UNL     1       0.929   6.490  20.952  0.00  0.00    +0.000 A 
ATOM      7  C   UNL     1       1.144   7.815  20.533  0.00  0.00    +0.000 A 
ATOM      8  C   UNL     1       2.045   7.999  19.475  0.00  0.00    +0.000 A 
ATOM      9  C   UNL     1       2.729   6.917  18.906  0.00  0.00    +0.000 A 
ATOM     10  C   UNL     1       2.510   5.598  19.356  0.00  0.00    +0.000 A 
ENDROOT
BRANCH   7  11
ATOM     11  C   UNL     1       0.464   8.956  21.198  0.00  0.00    +0.000 A 
ATOM     12  C   UNL     1       0.149  10.137  20.499  0.00  0.00    +0.000 A 
ATOM     13  C   UNL     1      -0.479  11.219  21.127  0.00  0.00    +0.000 A 
ATOM     14  C   UNL     1      -0.797  11.153  22.479  0.00  0.00    +0.000 A 
ATOM     15  C   UNL     1      -0.491  10.004  23.200  0.00  0.00    +0.000 A 
ATOM     16  C   UNL     1       0.124   8.919  22.565  0.00  0.00    +0.000 A 
ENDBRANCH   7  11
BRANCH   1  17
ATOM     17  N   UNL     1       4.308   4.558  17.988  0.00  0.00    +0.000 N 
ATOM     18  H   UNL     1       4.226   4.045  17.122  0.00  0.00    +0.000 HD
BRANCH  17  25
ATOM     19  C   UNL     1       5.133   6.561  15.952  0.00  0.00    +0.000 C 
ATOM     20  C   UNL     1       5.939   6.224  17.176  0.00  0.00    +0.000 A 
ATOM     21  C   UNL     1       7.221   6.798  17.305  0.00  0.00    +0.000 A 
ATOM     22  C   UNL     1       8.016   6.554  18.425  0.00  0.00    +0.000 A 
ATOM     23  C   UNL     1       7.522   5.746  19.434  0.00  0.00    +0.000 A 
ATOM     24  C   UNL     1       6.278   5.145  19.309  0.00  0.00    +0.000 A 
ATOM     25  C   UNL     1       5.481   5.336  18.166  0.00  0.00    +0.000 A 
BRANCH  23  26
ATOM     26  O   UNL     1       8.235   5.493  20.566  0.00  0.00    +0.000 OA
ATOM     27  H   UNL     1       8.401   4.539  20.623  0.00  0.00    +0.000 HD
ENDBRANCH  23  26
ENDBRANCH  17  25
ENDBRANCH   1  17
TORSDOF 4
ENDMDL
MODEL 3
REMARK VINA RESULT:      -8.6      2.969      5.355
REMARK  Name = 
REMARK  5 active torsions:
REMARK  status: ('A' for Active; 'I' for Inactive)
REMARK    1  A    between atoms: C_1  and  C_2
REMARK    2  A    between atoms: C_5  and  O_6
REMARK    3  A    between atoms: C_8  and  N_9
REMARK    4  A    between atoms: N_9  and  C_10
REMARK    5  A    between atoms: C_16  and  C_17
REMARK                            x       y       z     vdW  Elec       q    Type
REMARK                         _______ _______ _______ _____ _____    ______ ____
ROOT
ATOM      1  C   UNL     1       0.162  10.457  20.063  0.00  0.00    +0.000 A 
ATOM      2  C   UNL     1      -0.186  10.289  21.407  0.00  0.00    +0.000 A 
ATOM      3  C   UNL     1       0.296   9.197  22.094  0.00  0.00    +0.000 A 
ATOM      4  N   UNL     1       1.086   8.261  21.539  0.00  0.00    +0.000 NA
ATOM      5  C   UNL     1       1.432   8.409  20.252  0.00  0.00    +0.000 A 
ATOM      6  C   UNL     1       2.203   7.405  19.679  0.00  0.00    +0.000 A 
ATOM      7  C   UNL     1       2.643   7.430  18.344  0.00  0.00    +0.000 A 
ATOM      8  C   UNL     1       2.277   8.550  17.584  0.00  0.00    +0.000 A 
ATOM      9  C   UNL     1       1.471   9.562  18.122  0.00  0.00    +0.000 A 
ATOM     10  C   UNL     1       1.026   9.506  19.460  0.00  0.00    +0.000 A 
ENDROOT
BRANCH   7  11
ATOM     11  C   UNL     1       3.435   6.312  17.770  0.00  0.00    +0.000 A 
ATOM     12  C   UNL     1       4.647   6.539  17.090  0.00  0.00    +0.000 A 
ATOM     13  C   UNL     1       5.388   5.488  16.536  0.00  0.00    +0.000 A 
ATOM     14  C   UNL     1       4.927   4.180  16.637  0.00  0.00    +0.000 A 
ATOM     15  C   UNL     1       3.730   3.924  17.295  0.00  0.00    +0.000 A 
ATOM     16  C   UNL     1       2.999   4.975  17.859  0.00  0.00    +0.000 A 
ENDBRANCH   7  11
BRANCH   1  17
ATOM     17  N   UNL     1      -0.468  11.488  19.318  0.00  0.00    +0.000 N 
ATOM     18  H   UNL     1       0.059  12.344  19.218  0.00  0.00    +0.000 HD
BRANCH  17  25
ATOM     19  C   UNL     1      -2.842  12.888  20.434  0.00  0.00    +0.000 C 
ATOM     20  C   UNL     1      -2.880  12.005  19.218  0.00  0.00    +0.000 A 
ATOM     21  C   UNL     1      -4.137  11.722  18.643  0.00  0.00    +0.000 A 
ATOM     22  C   UNL     1      -4.251  10.934  17.498  0.00  0.00    +0.000 A 
ATOM     23  C   UNL     1      -3.101  10.438  16.909  0.00  0.00    +0.000 A 
ATOM     24  C   UNL     1      -1.859  10.678  17.479  0.00  0.00    +0.000 A 
ATOM     25  C   UNL     1      -1.725  11.427  18.662  0.00  0.00    +0.000 A 
BRANCH  23  26
ATOM     26  O   UNL     1      -3.141   9.688  15.773  0.00  0.00    +0.000 OA
ATOM     27  H   UNL     1      -3.862  10.012  15.211  0.00  0.00    +0.000 HD
ENDBRANCH  23  26
ENDBRANCH  17  25
ENDBRANCH   1  17
TORSDOF 4
ENDMDL
MODEL 4
REMARK VINA RESULT:      -8.5      3.569      8.999
REMARK  Name = 
REMARK  5 active torsions:
REMARK  status: ('A' for Active; 'I' for Inactive)
REMARK    1  A    between atoms: C_1  and  C_2
REMARK    2  A    between atoms: C_5  and  O_6
REMARK    3  A    between atoms: C_8  and  N_9
REMARK    4  A    between atoms: N_9  and  C_10
REMARK    5  A    between atoms: C_16  and  C_17
REMARK                            x       y       z     vdW  Elec       q    Type
REMARK                         _______ _______ _______ _____ _____    ______ ____
ROOT
ATOM      1  C   UNL     1       2.315   7.270  19.563  0.00  0.00    +0.000 A 
ATOM      2  C   UNL     1       2.747   7.462  18.246  0.00  0.00    +0.000 A 
ATOM      3  C   UNL     1       2.354   8.595  17.570  0.00  0.00    +0.000 A 
ATOM      4  N   UNL     1       1.559   9.539  18.102  0.00  0.00    +0.000 NA
ATOM      5  C   UNL     1       1.140   9.372  19.365  0.00  0.00    +0.000 A 
ATOM      6  C   UNL     1       0.274  10.328  19.881  0.00  0.00    +0.000 A 
ATOM      7  C   UNL     1      -0.241  10.285  21.189  0.00  0.00    +0.000 A 
ATOM      8  C   UNL     1       0.173   9.212  21.990  0.00  0.00    +0.000 A 
ATOM      9  C   UNL     1       1.017   8.212  21.487  0.00  0.00    +0.000 A 
ATOM     10  C   UNL     1       1.506   8.268  20.165  0.00  0.00    +0.000 A 
ENDROOT
BRANCH   7  11
ATOM     11  C   UNL     1      -1.193  11.314  21.680  0.00  0.00    +0.000 A 
ATOM     12  C   UNL     1      -1.606  11.356  23.025  0.00  0.00    +0.000 A 
ATOM     13  C   UNL     1      -2.513  12.317  23.487  0.00  0.00    +0.000 A 
ATOM     14  C   UNL     1      -3.043  13.256  22.609  0.00  0.00    +0.000 A 
ATOM     15  C   UNL     1      -2.661  13.236  21.272  0.00  0.00    +0.000 A 
ATOM     16  C   UNL     1      -1.743  12.283  20.817  0.00  0.00    +0.000 A 
ENDBRANCH   7  11
BRANCH   1  17
ATOM     17  N   UNL     1       2.585   6.028  20.196  0.00  0.00    +0.000 N 
ATOM     18  H   UNL     1       2.722   6.064  21.196  0.00  0.00    +0.000 HD
BRANCH  17  25
ATOM     19  C   UNL     1       5.160   4.879  19.252  0.00  0.00    +0.000 C 
ATOM     20  C   UNL     1       3.822   4.223  19.053  0.00  0.00    +0.000 A 
ATOM     21  C   UNL     1       3.767   3.055  18.263  0.00  0.00    +0.000 A 
ATOM     22  C   UNL     1       2.567   2.376  18.054  0.00  0.00    +0.000 A 
ATOM     23  C   UNL     1       1.415   2.852  18.653  0.00  0.00    +0.000 A 
ATOM     24  C   UNL     1       1.442   4.017  19.406  0.00  0.00    +0.000 A 
ATOM     25  C   UNL     1       2.632   4.747  19.587  0.00  0.00    +0.000 A 
BRANCH  23  26
ATOM     26  O   UNL     1       0.217   2.218  18.515  0.00  0.00    +0.000 OA
ATOM     27  H   UNL     1       0.222   1.419  19.066  0.00  0.00    +0.000 HD
ENDBRANCH  23  26
ENDBRANCH  17  25
ENDBRANCH   1  17
TORSDOF 4
ENDMDL
MODEL 5
REMARK VINA RESULT:      -8.5      3.868      9.248
REMARK  Name = 
REMARK  5 active torsions:
REMARK  status: ('A' for Active; 'I' for Inactive)
REMARK    1  A    between atoms: C_1  and  C_2
REMARK    2  A    between atoms: C_5  and  O_6
REMARK    3  A    between atoms: C_8  and  N_9
REMARK    4  A    between atoms: N_9  and  C_10
REMARK    5  A    between atoms: C_16  and  C_17
REMARK                            x       y       z     vdW  Elec       q    Type
REMARK                         _______ _______ _______ _____ _____    ______ ____
ROOT
ATOM      1  C   UNL     1       2.216   7.495  19.729  0.00  0.00    +0.000 A 
ATOM      2  C   UNL     1       2.586   7.611  18.385  0.00  0.00    +0.000 A 
ATOM      3  C   UNL     1       2.108   8.670  17.646  0.00  0.00    +0.000 A 
ATOM      4  N   UNL     1       1.287   9.611  18.143  0.00  0.00    +0.000 NA
ATOM      5  C   UNL     1       0.927   9.518  19.432  0.00  0.00    +0.000 A 
ATOM      6  C   UNL     1       0.033  10.467  19.914  0.00  0.00    +0.000 A 
ATOM      7  C   UNL     1      -0.427  10.495  21.243  0.00  0.00    +0.000 A 
ATOM      8  C   UNL     1       0.073   9.505  22.100  0.00  0.00    +0.000 A 
ATOM      9  C   UNL     1       0.947   8.513  21.635  0.00  0.00    +0.000 A 
ATOM     10  C   UNL     1       1.381   8.495  20.293  0.00  0.00    +0.000 A 
ENDROOT
BRANCH   7  11
ATOM     11  C   UNL     1      -1.410  11.510  21.699  0.00  0.00    +0.000 A 
ATOM     12  C   UNL     1      -1.994  12.427  20.804  0.00  0.00    +0.000 A 
ATOM     13  C   UNL     1      -2.911  13.394  21.235  0.00  0.00    +0.000 A 
ATOM     14  C   UNL     1      -3.258  13.477  22.578  0.00  0.00    +0.000 A 
ATOM     15  C   UNL     1      -2.693  12.592  23.489  0.00  0.00    +0.000 A 
ATOM     16  C   UNL     1      -1.788  11.617  23.053  0.00  0.00    +0.000 A 
ENDBRANCH   7  11
BRANCH   1  17
ATOM     17  N   UNL     1       2.574   6.318  20.437  0.00  0.00    +0.000 N 
ATOM     18  H   UNL     1       2.432   6.345  21.437  0.00  0.00    +0.000 HD
BRANCH  17  25
ATOM     19  C   UNL     1       0.835   3.909  20.301  0.00  0.00    +0.000 C 
ATOM     20  C   UNL     1       2.284   3.927  19.897  0.00  0.00    +0.000 A 
ATOM     21  C   UNL     1       2.890   2.701  19.551  0.00  0.00    +0.000 A 
ATOM     22  C   UNL     1       4.221   2.640  19.140  0.00  0.00    +0.000 A 
ATOM     23  C   UNL     1       4.950   3.813  19.055  0.00  0.00    +0.000 A 
ATOM     24  C   UNL     1       4.382   5.024  19.424  0.00  0.00    +0.000 A 
ATOM     25  C   UNL     1       3.056   5.101  19.890  0.00  0.00    +0.000 A 
BRANCH  23  26
ATOM     26  O   UNL     1       6.245   3.826  18.632  0.00  0.00    +0.000 OA
ATOM     27  H   UNL     1       6.816   3.560  19.369  0.00  0.00    +0.000 HD
ENDBRANCH  23  26
ENDBRANCH  17  25
ENDBRANCH   1  17
TORSDOF 4
ENDMDL
MODEL 6
REMARK VINA RESULT:      -8.5      3.854      9.378
REMARK  Name = 
REMARK  5 active torsions:
REMARK  status: ('A' for Active; 'I' for Inactive)
REMARK    1  A    between atoms: C_1  and  C_2
REMARK    2  A    between atoms: C_5  and  O_6
REMARK    3  A    between atoms: C_8  and  N_9
REMARK    4  A    between atoms: N_9  and  C_10
REMARK    5  A    between atoms: C_16  and  C_17
REMARK                            x       y       z     vdW  Elec       q    Type
REMARK                         _______ _______ _______ _____ _____    ______ ____
ROOT
ATOM      1  C   UNL     1       2.089   7.497  19.852  0.00  0.00    +0.000 A 
ATOM      2  C   UNL     1       2.297   7.611  18.474  0.00  0.00    +0.000 A 
ATOM      3  C   UNL     1       1.843   8.732  17.816  0.00  0.00    +0.000 A 
ATOM      4  N   UNL     1       1.191   9.737  18.427  0.00  0.00    +0.000 NA
ATOM      5  C   UNL     1       0.987   9.645  19.749  0.00  0.00    +0.000 A 
ATOM      6  C   UNL     1       0.263  10.666  20.355  0.00  0.00    +0.000 A 
ATOM      7  C   UNL     1      -0.022  10.704  21.731  0.00  0.00    +0.000 A 
ATOM      8  C   UNL     1       0.477   9.646  22.504  0.00  0.00    +0.000 A 
ATOM      9  C   UNL     1       1.179   8.585  21.918  0.00  0.00    +0.000 A 
ATOM     10  C   UNL     1       1.438   8.559  20.531  0.00  0.00    +0.000 A 
ENDROOT
BRANCH   7  11
ATOM     11  C   UNL     1      -0.832  11.800  22.323  0.00  0.00    +0.000 A 
ATOM     12  C   UNL     1      -2.023  11.541  23.027  0.00  0.00    +0.000 A 
ATOM     13  C   UNL     1      -2.794  12.573  23.574  0.00  0.00    +0.000 A 
ATOM     14  C   UNL     1      -2.399  13.898  23.417  0.00  0.00    +0.000 A 
ATOM     15  C   UNL     1      -1.232  14.187  22.720  0.00  0.00    +0.000 A 
ATOM     16  C   UNL     1      -0.456  13.151  22.188  0.00  0.00    +0.000 A 
ENDBRANCH   7  11
BRANCH   1  17
ATOM     17  N   UNL     1       2.409   6.271  20.492  0.00  0.00    +0.000 N 
ATOM     18  H   UNL     1       2.184   6.216  21.475  0.00  0.00    +0.000 HD
BRANCH  17  25
ATOM     19  C   UNL     1       0.787   3.799  20.180  0.00  0.00    +0.000 C 
ATOM     20  C   UNL     1       2.243   3.903  19.817  0.00  0.00    +0.000 A 
ATOM     21  C   UNL     1       2.913   2.726  19.421  0.00  0.00    +0.000 A 
ATOM     22  C   UNL     1       4.255   2.747  19.043  0.00  0.00    +0.000 A 
ATOM     23  C   UNL     1       4.931   3.954  19.041  0.00  0.00    +0.000 A 
ATOM     24  C   UNL     1       4.299   5.116  19.459  0.00  0.00    +0.000 A 
ATOM     25  C   UNL     1       2.961   5.109  19.893  0.00  0.00    +0.000 A 
BRANCH  23  26
ATOM     26  O   UNL     1       6.234   4.049  18.654  0.00  0.00    +0.000 OA
ATOM     27  H   UNL     1       6.308   3.745  17.735  0.00  0.00    +0.000 HD
ENDBRANCH  23  26
ENDBRANCH  17  25
ENDBRANCH   1  17
TORSDOF 4
ENDMDL
MODEL 7
REMARK VINA RESULT:      -8.4      3.545      9.108
REMARK  Name = 
REMARK  5 active torsions:
REMARK  status: ('A' for Active; 'I' for Inactive)
REMARK    1  A    between atoms: C_1  and  C_2
REMARK    2  A    between atoms: C_5  and  O_6
REMARK    3  A    between atoms: C_8  and  N_9
REMARK    4  A    between atoms: N_9  and  C_10
REMARK    5  A    between atoms: C_16  and  C_17
REMARK                            x       y       z     vdW  Elec       q    Type
REMARK                         _______ _______ _______ _____ _____    ______ ____
ROOT
ATOM      1  C   UNL     1       2.180   7.376  19.663  0.00  0.00    +0.000 A 
ATOM      2  C   UNL     1       2.428   7.540  18.297  0.00  0.00    +0.000 A 
ATOM      3  C   UNL     1       2.016   8.698  17.675  0.00  0.00    +0.000 A 
ATOM      4  N   UNL     1       1.369   9.691  18.309  0.00  0.00    +0.000 NA
ATOM      5  C   UNL     1       1.128   9.551  19.620  0.00  0.00    +0.000 A 
ATOM      6  C   UNL     1       0.410  10.562  20.248  0.00  0.00    +0.000 A 
ATOM      7  C   UNL     1       0.088  10.550  21.618  0.00  0.00    +0.000 A 
ATOM      8  C   UNL     1       0.544   9.451  22.359  0.00  0.00    +0.000 A 
ATOM      9  C   UNL     1       1.239   8.399  21.748  0.00  0.00    +0.000 A 
ATOM     10  C   UNL     1       1.534   8.424  20.368  0.00  0.00    +0.000 A 
ENDROOT
BRANCH   7  11
ATOM     11  C   UNL     1      -0.713  11.639  22.232  0.00  0.00    +0.000 A 
ATOM     12  C   UNL     1      -0.362  12.993  22.074  0.00  0.00    +0.000 A 
ATOM     13  C   UNL     1      -1.108  14.021  22.664  0.00  0.00    +0.000 A 
ATOM     14  C   UNL     1      -2.220  13.718  23.442  0.00  0.00    +0.000 A 
ATOM     15  C   UNL     1      -2.588  12.390  23.624  0.00  0.00    +0.000 A 
ATOM     16  C   UNL     1      -1.849  11.367  23.021  0.00  0.00    +0.000 A 
ENDBRANCH   7  11
BRANCH   1  17
ATOM     17  N   UNL     1       2.457   6.118  20.261  0.00  0.00    +0.000 N 
ATOM     18  H   UNL     1       2.562   6.121  21.265  0.00  0.00    +0.000 HD
BRANCH  17  25
ATOM     19  C   UNL     1       5.062   5.125  19.227  0.00  0.00    +0.000 C 
ATOM     20  C   UNL     1       3.752   4.412  19.034  0.00  0.00    +0.000 A 
ATOM     21  C   UNL     1       3.736   3.269  18.207  0.00  0.00    +0.000 A 
ATOM     22  C   UNL     1       2.565   2.539  18.002  0.00  0.00    +0.000 A 
ATOM     23  C   UNL     1       1.405   2.940  18.640  0.00  0.00    +0.000 A 
ATOM     24  C   UNL     1       1.394   4.080  19.430  0.00  0.00    +0.000 A 
ATOM     25  C   UNL     1       2.551   4.861  19.609  0.00  0.00    +0.000 A 
BRANCH  23  26
ATOM     26  O   UNL     1       0.236   2.253  18.506  0.00  0.00    +0.000 OA
ATOM     27  H   UNL     1      -0.500   2.886  18.518  0.00  0.00    +0.000 HD
ENDBRANCH  23  26
ENDBRANCH  17  25
ENDBRANCH   1  17
TORSDOF 4
ENDMDL
MODEL 8
REMARK VINA RESULT:      -8.4      2.579      8.090
REMARK  Name = 
REMARK  5 active torsions:
REMARK  status: ('A' for Active; 'I' for Inactive)
REMARK    1  A    between atoms: C_1  and  C_2
REMARK    2  A    between atoms: C_5  and  O_6
REMARK    3  A    between atoms: C_8  and  N_9
REMARK    4  A    between atoms: N_9  and  C_10
REMARK    5  A    between atoms: C_16  and  C_17
REMARK                            x       y       z     vdW  Elec       q    Type
REMARK                         _______ _______ _______ _____ _____    ______ ____
ROOT
ATOM      1  C   UNL     1       2.929   4.962  18.550  0.00  0.00    +0.000 A 
ATOM      2  C   UNL     1       2.727   3.706  19.132  0.00  0.00    +0.000 A 
ATOM      3  C   UNL     1       1.939   3.607  20.257  0.00  0.00    +0.000 A 
ATOM      4  N   UNL     1       1.351   4.662  20.846  0.00  0.00    +0.000 NA
ATOM      5  C   UNL     1       1.532   5.873  20.298  0.00  0.00    +0.000 A 
ATOM      6  C   UNL     1       0.963   6.960  20.952  0.00  0.00    +0.000 A 
ATOM      7  C   UNL     1       1.066   8.284  20.490  0.00  0.00    +0.000 A 
ATOM      8  C   UNL     1       1.777   8.478  19.298  0.00  0.00    +0.000 A 
ATOM      9  C   UNL     1       2.392   7.408  18.635  0.00  0.00    +0.000 A 
ATOM     10  C   UNL     1       2.290   6.089  19.127  0.00  0.00    +0.000 A 
ENDROOT
BRANCH   7  11
ATOM     11  C   UNL     1       0.470   9.415  21.246  0.00  0.00    +0.000 A 
ATOM     12  C   UNL     1      -0.244   9.209  22.441  0.00  0.00    +0.000 A 
ATOM     13  C   UNL     1      -0.819  10.272  23.149  0.00  0.00    +0.000 A 
ATOM     14  C   UNL     1      -0.705  11.572  22.668  0.00  0.00    +0.000 A 
ATOM     15  C   UNL     1      -0.013  11.808  21.486  0.00  0.00    +0.000 A 
ATOM     16  C   UNL     1       0.573  10.744  20.790  0.00  0.00    +0.000 A 
ENDBRANCH   7  11
BRANCH   1  17
ATOM     17  N   UNL     1       3.871   5.082  17.494  0.00  0.00    +0.000 N 
ATOM     18  H   UNL     1       3.484   5.211  16.571  0.00  0.00    +0.000 HD
BRANCH  17  25
ATOM     19  C   UNL     1       5.587   4.382  15.169  0.00  0.00    +0.000 C 
ATOM     20  C   UNL     1       6.114   4.676  16.546  0.00  0.00    +0.000 A 
ATOM     21  C   UNL     1       7.492   4.487  16.782  0.00  0.00    +0.000 A 
ATOM     22  C   UNL     1       8.059   4.764  18.026  0.00  0.00    +0.000 A 
ATOM     23  C   UNL     1       7.251   5.251  19.038  0.00  0.00    +0.000 A 
ATOM     24  C   UNL     1       5.888   5.411  18.834  0.00  0.00    +0.000 A 
ATOM     25  C   UNL     1       5.286   5.089  17.604  0.00  0.00    +0.000 A 
BRANCH  23  26
ATOM     26  O   UNL     1       7.748   5.570  20.265  0.00  0.00    +0.000 OA
ATOM     27  H   UNL     1       8.586   6.045  20.148  0.00  0.00    +0.000 HD
ENDBRANCH  23  26
ENDBRANCH  17  25
ENDBRANCH   1  17
TORSDOF 4
ENDMDL
MODEL 9
REMARK VINA RESULT:      -8.3      2.893      5.167
REMARK  Name = 
REMARK  5 active torsions:
REMARK  status: ('A' for Active; 'I' for Inactive)
REMARK    1  A    between atoms: C_1  and  C_2
REMARK    2  A    between atoms: C_5  and  O_6
REMARK    3  A    between atoms: C_8  and  N_9
REMARK    4  A    between atoms: N_9  and  C_10
REMARK    5  A    between atoms: C_16  and  C_17
REMARK                            x       y       z     vdW  Elec       q    Type
REMARK                         _______ _______ _______ _____ _____    ______ ____
ROOT
ATOM      1  C   UNL     1       0.105  10.397  20.100  0.00  0.00    +0.000 A 
ATOM      2  C   UNL     1      -0.197  10.208  21.452  0.00  0.00    +0.000 A 
ATOM      3  C   UNL     1       0.352   9.136  22.119  0.00  0.00    +0.000 A 
ATOM      4  N   UNL     1       1.166   8.238  21.538  0.00  0.00    +0.000 NA
ATOM      5  C   UNL     1       1.469   8.407  20.243  0.00  0.00    +0.000 A 
ATOM      6  C   UNL     1       2.267   7.440  19.643  0.00  0.00    +0.000 A 
ATOM      7  C   UNL     1       2.668   7.490  18.296  0.00  0.00    +0.000 A 
ATOM      8  C   UNL     1       2.231   8.596  17.553  0.00  0.00    +0.000 A 
ATOM      9  C   UNL     1       1.396   9.569  18.119  0.00  0.00    +0.000 A 
ATOM     10  C   UNL     1       0.993   9.488  19.468  0.00  0.00    +0.000 A 
ENDROOT
BRANCH   7  11
ATOM     11  C   UNL     1       3.492   6.411  17.694  0.00  0.00    +0.000 A 
ATOM     12  C   UNL     1       4.602   6.699  16.877  0.00  0.00    +0.000 A 
ATOM     13  C   UNL     1       5.372   5.683  16.297  0.00  0.00    +0.000 A 
ATOM     14  C   UNL     1       5.042   4.349  16.510  0.00  0.00    +0.000 A 
ATOM     15  C   UNL     1       3.947   4.033  17.305  0.00  0.00    +0.000 A 
ATOM     16  C   UNL     1       3.188   5.050  17.894  0.00  0.00    +0.000 A 
ENDBRANCH   7  11
BRANCH   1  17
ATOM     17  N   UNL     1      -0.592  11.402  19.378  0.00  0.00    +0.000 N 
ATOM     18  H   UNL     1      -0.016  12.071  18.888  0.00  0.00    +0.000 HD
BRANCH  17  25
ATOM     19  C   UNL     1      -2.041   9.991  17.199  0.00  0.00    +0.000 C 
ATOM     20  C   UNL     1      -2.689  10.951  18.157  0.00  0.00    +0.000 A 
ATOM     21  C   UNL     1      -4.038  11.300  17.935  0.00  0.00    +0.000 A 
ATOM     22  C   UNL     1      -4.715  12.163  18.796  0.00  0.00    +0.000 A 
ATOM     23  C   UNL     1      -4.050  12.667  19.899  0.00  0.00    +0.000 A 
ATOM     24  C   UNL     1      -2.714  12.362  20.116  0.00  0.00    +0.000 A 
ATOM     25  C   UNL     1      -1.997  11.535  19.232  0.00  0.00    +0.000 A 
BRANCH  23  26
ATOM     26  O   UNL     1      -4.663  13.490  20.795  0.00  0.00    +0.000 OA
ATOM     27  H   UNL     1      -4.650  13.065  21.667  0.00  0.00    +0.000 HD
ENDBRANCH  23  26
ENDBRANCH  17  25
ENDBRANCH   1  17
TORSDOF 4
ENDMDL
