MODEL 1
REMARK VINA RESULT:      -8.6      0.000      0.000
REMARK  Name = 
REMARK  7 active torsions:
REMARK  status: ('A' for Active; 'I' for Inactive)
REMARK    1  A    between atoms: C_1  and  C_2
REMARK    2  A    between atoms: C_2  and  N_3
REMARK    3  A    between atoms: C_12  and  S_13
REMARK    4  A    between atoms: S_13  and  N_16
REMARK    5  A    between atoms: N_16  and  C_17
REMARK    6  A    between atoms: C_20  and  O_21
REMARK    7  A    between atoms: O_21  and  C_22
REMARK                            x       y       z     vdW  Elec       q    Type
REMARK                         _______ _______ _______ _____ _____    ______ ____
ROOT
ATOM      1  N   UNL     1       0.366  10.750  19.493  0.00  0.00    +0.000 N 
ATOM      2  C   UNL     1      -0.110  10.754  20.790  0.00  0.00    +0.000 A 
ATOM      3  C   UNL     1      -0.872  11.702  21.494  0.00  0.00    +0.000 A 
ATOM      4  C   UNL     1      -1.231  11.415  22.814  0.00  0.00    +0.000 A 
ATOM      5  C   UNL     1      -0.846  10.221  23.415  0.00  0.00    +0.000 A 
ATOM      6  C   UNL     1      -0.085   9.284  22.708  0.00  0.00    +0.000 A 
ATOM      7  C   UNL     1       0.293   9.552  21.375  0.00  0.00    +0.000 A 
ATOM      8  C   UNL     1       1.047   8.827  20.399  0.00  0.00    +0.000 A 
ATOM      9  C   UNL     1       1.679   7.567  20.401  0.00  0.00    +0.000 A 
ATOM     10  C   UNL     1       2.376   7.152  19.256  0.00  0.00    +0.000 A 
ATOM     11  C   UNL     1       2.443   7.955  18.120  0.00  0.00    +0.000 A 
ATOM     12  C   UNL     1       1.817   9.205  18.100  0.00  0.00    +0.000 A 
ATOM     13  C   UNL     1       1.113   9.613  19.247  0.00  0.00    +0.000 A 
ENDROOT
BRANCH  10  14
ATOM     14  S   UNL     1       3.144   5.547  19.238  0.00  0.00    +0.000 S 
ATOM     15  O   UNL     1       4.524   5.695  19.655  0.00  0.00    +0.000 OA
ATOM     16  O   UNL     1       2.249   4.631  19.914  0.00  0.00    +0.000 OA
BRANCH  14  17
ATOM     17  N   UNL     1       3.102   5.121  17.603  0.00  0.00    +0.000 N 
ATOM     18  H   UNL     1       2.276   5.491  17.135  0.00  0.00    +0.000 HD
BRANCH  17  19
ATOM     19  C   UNL     1       4.326   5.136  16.880  0.00  0.00    +0.000 A 
ATOM     20  C   UNL     1       4.923   3.948  16.471  0.00  0.00    +0.000 A 
ATOM     21  C   UNL     1       6.081   4.000  15.697  0.00  0.00    +0.000 A 
ATOM     22  C   UNL     1       6.610   5.242  15.379  0.00  0.00    +0.000 A 
ATOM     23  N   UNL     1       6.049   6.409  15.752  0.00  0.00    +0.000 NA
ATOM     24  C   UNL     1       4.911   6.334  16.482  0.00  0.00    +0.000 A 
BRANCH  22  25
ATOM     25  O   UNL     1       7.763   5.251  14.620  0.00  0.00    +0.000 OA
ATOM     26  C   UNL     1       7.524   4.901  13.259  0.00  0.00    +0.000 C 
ENDBRANCH  22  25
ENDBRANCH  17  19
ENDBRANCH  14  17
ENDBRANCH  10  14
BRANCH   1  28
ATOM     27  C   UNL     1       0.955  12.987  18.618  0.00  0.00    +0.000 C 
ATOM     28  C   UNL     1       0.062  11.766  18.497  0.00  0.00    +0.000 C 
ENDBRANCH   1  28
TORSDOF 5
ENDMDL
MODEL 2
REMARK VINA RESULT:      -8.4      1.118      1.342
REMARK  Name = 
REMARK  7 active torsions:
REMARK  status: ('A' for Active; 'I' for Inactive)
REMARK    1  A    between atoms: C_1  and  C_2
REMARK    2  A    between atoms: C_2  and  N_3
REMARK    3  A    between atoms: C_12  and  S_13
REMARK    4  A    between atoms: S_13  and  N_16
REMARK    5  A    between atoms: N_16  and  C_17
REMARK    6  A    between atoms: C_20  and  O_21
REMARK    7  A    between atoms: O_21  and  C_22
REMARK                            x       y       z     vdW  Elec       q    Type
REMARK                         _______ _______ _______ _____ _____    ______ ____
ROOT
ATOM      1  N   UNL     1       0.524  10.924  19.459  0.00  0.00    +0.000 N 
ATOM      2  C   UNL     1       0.034  10.870  20.749  0.00  0.00    +0.000 A 
ATOM      3  C   UNL     1      -0.695  11.806  21.503  0.00  0.00    +0.000 A 
ATOM      4  C   UNL     1      -1.082  11.454  22.799  0.00  0.00    +0.000 A 
ATOM      5  C   UNL     1      -0.755  10.210  23.330  0.00  0.00    +0.000 A 
ATOM      6  C   UNL     1      -0.027   9.287  22.574  0.00  0.00    +0.000 A 
ATOM      7  C   UNL     1       0.378   9.618  21.264  0.00  0.00    +0.000 A 
ATOM      8  C   UNL     1       1.112   8.922  20.251  0.00  0.00    +0.000 A 
ATOM      9  C   UNL     1       1.690   7.637  20.182  0.00  0.00    +0.000 A 
ATOM     10  C   UNL     1       2.381   7.263  19.021  0.00  0.00    +0.000 A 
ATOM     11  C   UNL     1       2.496   8.130  17.936  0.00  0.00    +0.000 A 
ATOM     12  C   UNL     1       1.925   9.405  17.987  0.00  0.00    +0.000 A 
ATOM     13  C   UNL     1       1.225   9.773  19.150  0.00  0.00    +0.000 A 
ENDROOT
BRANCH  10  14
ATOM     14  S   UNL     1       3.080   5.630  18.912  0.00  0.00    +0.000 S 
ATOM     15  O   UNL     1       3.097   5.049  20.240  0.00  0.00    +0.000 OA
ATOM     16  O   UNL     1       2.434   4.956  17.805  0.00  0.00    +0.000 OA
BRANCH  14  17
ATOM     17  N   UNL     1       4.669   5.927  18.417  0.00  0.00    +0.000 N 
ATOM     18  H   UNL     1       5.329   5.847  19.190  0.00  0.00    +0.000 HD
BRANCH  17  19
ATOM     19  C   UNL     1       5.078   5.422  17.152  0.00  0.00    +0.000 A 
ATOM     20  C   UNL     1       5.128   6.255  16.039  0.00  0.00    +0.000 A 
ATOM     21  C   UNL     1       5.608   5.749  14.833  0.00  0.00    +0.000 A 
ATOM     22  C   UNL     1       5.999   4.419  14.781  0.00  0.00    +0.000 A 
ATOM     23  N   UNL     1       5.971   3.592  15.844  0.00  0.00    +0.000 NA
ATOM     24  C   UNL     1       5.525   4.113  17.012  0.00  0.00    +0.000 A 
BRANCH  22  25
ATOM     25  O   UNL     1       6.458   3.953  13.565  0.00  0.00    +0.000 OA
ATOM     26  C   UNL     1       5.403   3.505  12.719  0.00  0.00    +0.000 C 
ENDBRANCH  22  25
ENDBRANCH  17  19
ENDBRANCH  14  17
ENDBRANCH  10  14
BRANCH   1  28
ATOM     27  C   UNL     1       1.366  13.066  18.554  0.00  0.00    +0.000 C 
ATOM     28  C   UNL     1       0.276  12.011  18.524  0.00  0.00    +0.000 C 
ENDBRANCH   1  28
TORSDOF 5
ENDMDL
MODEL 3
REMARK VINA RESULT:      -8.4      1.080      1.350
REMARK  Name = 
REMARK  7 active torsions:
REMARK  status: ('A' for Active; 'I' for Inactive)
REMARK    1  A    between atoms: C_1  and  C_2
REMARK    2  A    between atoms: C_2  and  N_3
REMARK    3  A    between atoms: C_12  and  S_13
REMARK    4  A    between atoms: S_13  and  N_16
REMARK    5  A    between atoms: N_16  and  C_17
REMARK    6  A    between atoms: C_20  and  O_21
REMARK    7  A    between atoms: O_21  and  C_22
REMARK                            x       y       z     vdW  Elec       q    Type
REMARK                         _______ _______ _______ _____ _____    ______ ____
ROOT
ATOM      1  N   UNL     1       0.319  10.588  19.468  0.00  0.00    +0.000 N 
ATOM      2  C   UNL     1      -0.106  10.636  20.782  0.00  0.00    +0.000 A 
ATOM      3  C   UNL     1      -0.851  11.602  21.479  0.00  0.00    +0.000 A 
ATOM      4  C   UNL     1      -1.154  11.361  22.822  0.00  0.00    +0.000 A 
ATOM      5  C   UNL     1      -0.731  10.195  23.452  0.00  0.00    +0.000 A 
ATOM      6  C   UNL     1       0.012   9.241  22.751  0.00  0.00    +0.000 A 
ATOM      7  C   UNL     1       0.334   9.462  21.395  0.00  0.00    +0.000 A 
ATOM      8  C   UNL     1       1.059   8.709  20.417  0.00  0.00    +0.000 A 
ATOM      9  C   UNL     1       1.706   7.456  20.442  0.00  0.00    +0.000 A 
ATOM     10  C   UNL     1       2.362   7.005  19.287  0.00  0.00    +0.000 A 
ATOM     11  C   UNL     1       2.375   7.765  18.119  0.00  0.00    +0.000 A 
ATOM     12  C   UNL     1       1.734   9.007  18.077  0.00  0.00    +0.000 A 
ATOM     13  C   UNL     1       1.070   9.451  19.235  0.00  0.00    +0.000 A 
ENDROOT
BRANCH  10  14
ATOM     14  S   UNL     1       3.149   5.409  19.299  0.00  0.00    +0.000 S 
ATOM     15  O   UNL     1       2.885   4.778  20.577  0.00  0.00    +0.000 OA
ATOM     16  O   UNL     1       2.814   4.753  18.053  0.00  0.00    +0.000 OA
BRANCH  14  17
ATOM     17  N   UNL     1       4.792   5.792  19.200  0.00  0.00    +0.000 N 
ATOM     18  H   UNL     1       5.284   5.583  20.067  0.00  0.00    +0.000 HD
BRANCH  17  19
ATOM     19  C   UNL     1       5.468   5.515  17.980  0.00  0.00    +0.000 A 
ATOM     20  C   UNL     1       4.996   6.025  16.775  0.00  0.00    +0.000 A 
ATOM     21  C   UNL     1       5.726   5.799  15.609  0.00  0.00    +0.000 A 
ATOM     22  C   UNL     1       6.890   5.051  15.690  0.00  0.00    +0.000 A 
ATOM     23  N   UNL     1       7.376   4.552  16.844  0.00  0.00    +0.000 NA
ATOM     24  C   UNL     1       6.665   4.805  17.967  0.00  0.00    +0.000 A 
BRANCH  22  25
ATOM     25  O   UNL     1       7.578   4.840  14.512  0.00  0.00    +0.000 OA
ATOM     26  C   UNL     1       6.756   4.279  13.493  0.00  0.00    +0.000 C 
ENDBRANCH  22  25
ENDBRANCH  17  19
ENDBRANCH  14  17
ENDBRANCH  10  14
BRANCH   1  28
ATOM     27  C   UNL     1      -1.435  11.349  17.899  0.00  0.00    +0.000 C 
ATOM     28  C   UNL     1      -0.036  11.562  18.447  0.00  0.00    +0.000 C 
ENDBRANCH   1  28
TORSDOF 5
ENDMDL
MODEL 4
REMARK VINA RESULT:      -8.4      3.342      8.378
REMARK  Name = 
REMARK  7 active torsions:
REMARK  status: ('A' for Active; 'I' for Inactive)
REMARK    1  A    between atoms: C_1  and  C_2
REMARK    2  A    between atoms: C_2  and  N_3
REMARK    3  A    between atoms: C_12  and  S_13
REMARK    4  A    between atoms: S_13  and  N_16
REMARK    5  A    between atoms: N_16  and  C_17
REMARK    6  A    between atoms: C_20  and  O_21
REMARK    7  A    between atoms: O_21  and  C_22
REMARK                            x       y       z     vdW  Elec       q    Type
REMARK                         _______ _______ _______ _____ _____    ______ ____
ROOT
ATOM      1  N   UNL     1       3.245   4.254  18.716  0.00  0.00    +0.000 N 
ATOM      2  C   UNL     1       3.991   4.800  17.689  0.00  0.00    +0.000 A 
ATOM      3  C   UNL     1       4.806   4.197  16.716  0.00  0.00    +0.000 A 
ATOM      4  C   UNL     1       5.430   5.019  15.773  0.00  0.00    +0.000 A 
ATOM      5  C   UNL     1       5.246   6.398  15.796  0.00  0.00    +0.000 A 
ATOM      6  C   UNL     1       4.436   6.990  16.770  0.00  0.00    +0.000 A 
ATOM      7  C   UNL     1       3.798   6.181  17.735  0.00  0.00    +0.000 A 
ATOM      8  C   UNL     1       2.927   6.460  18.836  0.00  0.00    +0.000 A 
ATOM      9  C   UNL     1       2.369   7.646  19.355  0.00  0.00    +0.000 A 
ATOM     10  C   UNL     1       1.552   7.573  20.493  0.00  0.00    +0.000 A 
ATOM     11  C   UNL     1       1.275   6.354  21.108  0.00  0.00    +0.000 A 
ATOM     12  C   UNL     1       1.817   5.169  20.602  0.00  0.00    +0.000 A 
ATOM     13  C   UNL     1       2.629   5.245  19.457  0.00  0.00    +0.000 A 
ENDROOT
BRANCH  10  14
ATOM     14  S   UNL     1       0.813   9.061  21.131  0.00  0.00    +0.000 S 
ATOM     15  O   UNL     1      -0.595   8.809  21.367  0.00  0.00    +0.000 OA
ATOM     16  O   UNL     1       1.675   9.554  22.185  0.00  0.00    +0.000 OA
BRANCH  14  17
ATOM     17  N   UNL     1       0.974  10.149  19.848  0.00  0.00    +0.000 N 
ATOM     18  H   UNL     1       1.837   9.998  19.327  0.00  0.00    +0.000 HD
BRANCH  17  19
ATOM     19  C   UNL     1      -0.192  10.476  19.101  0.00  0.00    +0.000 A 
ATOM     20  C   UNL     1      -0.511   9.777  17.942  0.00  0.00    +0.000 A 
ATOM     21  C   UNL     1      -1.700  10.070  17.277  0.00  0.00    +0.000 A 
ATOM     22  C   UNL     1      -2.516  11.068  17.788  0.00  0.00    +0.000 A 
ATOM     23  N   UNL     1      -2.237  11.755  18.913  0.00  0.00    +0.000 NA
ATOM     24  C   UNL     1      -1.089  11.436  19.556  0.00  0.00    +0.000 A 
BRANCH  22  25
ATOM     25  O   UNL     1      -3.679  11.336  17.095  0.00  0.00    +0.000 OA
ATOM     26  C   UNL     1      -4.743  11.744  17.950  0.00  0.00    +0.000 C 
ENDBRANCH  22  25
ENDBRANCH  17  19
ENDBRANCH  14  17
ENDBRANCH  10  14
BRANCH   1  28
ATOM     27  C   UNL     1       4.158   2.238  19.821  0.00  0.00    +0.000 C 
ATOM     28  C   UNL     1       3.069   2.827  18.944  0.00  0.00    +0.000 C 
ENDBRANCH   1  28
TORSDOF 5
ENDMDL
MODEL 5
REMARK VINA RESULT:      -8.4      3.777      7.756
REMARK  Name = 
REMARK  7 active torsions:
REMARK  status: ('A' for Active; 'I' for Inactive)
REMARK    1  A    between atoms: C_1  and  C_2
REMARK    2  A    between atoms: C_2  and  N_3
REMARK    3  A    between atoms: C_12  and  S_13
REMARK    4  A    between atoms: S_13  and  N_16
REMARK    5  A    between atoms: N_16  and  C_17
REMARK    6  A    between atoms: C_20  and  O_21
REMARK    7  A    between atoms: O_21  and  C_22
REMARK                            x       y       z     vdW  Elec       q    Type
REMARK                         _______ _______ _______ _____ _____    ______ ____
ROOT
ATOM      1  N   UNL     1       3.510   5.685  18.094  0.00  0.00    +0.000 N 
ATOM      2  C   UNL     1       3.211   4.763  19.079  0.00  0.00    +0.000 A 
ATOM      3  C   UNL     1       3.570   3.412  19.220  0.00  0.00    +0.000 A 
ATOM      4  C   UNL     1       3.131   2.726  20.357  0.00  0.00    +0.000 A 
ATOM      5  C   UNL     1       2.360   3.365  21.323  0.00  0.00    +0.000 A 
ATOM      6  C   UNL     1       2.005   4.709  21.172  0.00  0.00    +0.000 A 
ATOM      7  C   UNL     1       2.433   5.422  20.032  0.00  0.00    +0.000 A 
ATOM      8  C   UNL     1       2.251   6.769  19.585  0.00  0.00    +0.000 A 
ATOM      9  C   UNL     1       1.588   7.890  20.126  0.00  0.00    +0.000 A 
ATOM     10  C   UNL     1       1.577   9.091  19.401  0.00  0.00    +0.000 A 
ATOM     11  C   UNL     1       2.216   9.197  18.168  0.00  0.00    +0.000 A 
ATOM     12  C   UNL     1       2.881   8.097  17.620  0.00  0.00    +0.000 A 
ATOM     13  C   UNL     1       2.897   6.898  18.354  0.00  0.00    +0.000 A 
ENDROOT
BRANCH  10  14
ATOM     14  S   UNL     1       0.775  10.520  20.096  0.00  0.00    +0.000 S 
ATOM     15  O   UNL     1       1.153  10.624  21.491  0.00  0.00    +0.000 OA
ATOM     16  O   UNL     1       0.980  11.620  19.177  0.00  0.00    +0.000 OA
BRANCH  14  17
ATOM     17  N   UNL     1      -0.865  10.124  19.995  0.00  0.00    +0.000 N 
ATOM     18  H   UNL     1      -1.355  10.308  20.870  0.00  0.00    +0.000 HD
BRANCH  17  19
ATOM     19  C   UNL     1      -1.550  10.425  18.786  0.00  0.00    +0.000 A 
ATOM     20  C   UNL     1      -1.372   9.636  17.655  0.00  0.00    +0.000 A 
ATOM     21  C   UNL     1      -2.118   9.912  16.510  0.00  0.00    +0.000 A 
ATOM     22  C   UNL     1      -2.998  10.983  16.534  0.00  0.00    +0.000 A 
ATOM     23  N   UNL     1      -3.198  11.759  17.618  0.00  0.00    +0.000 NA
ATOM     24  C   UNL     1      -2.482  11.456  18.727  0.00  0.00    +0.000 A 
BRANCH  22  25
ATOM     25  O   UNL     1      -3.710  11.231  15.378  0.00  0.00    +0.000 OA
ATOM     26  C   UNL     1      -3.522  10.218  14.394  0.00  0.00    +0.000 C 
ENDBRANCH  22  25
ENDBRANCH  17  19
ENDBRANCH  14  17
ENDBRANCH  10  14
BRANCH   1  28
ATOM     27  C   UNL     1       5.867   5.448  17.385  0.00  0.00    +0.000 C 
ATOM     28  C   UNL     1       4.406   5.440  16.974  0.00  0.00    +0.000 C 
ENDBRANCH   1  28
TORSDOF 5
ENDMDL
MODEL 6
REMARK VINA RESULT:      -8.4      3.735      8.255
REMARK  Name = 
REMARK  7 active torsions:
REMARK  status: ('A' for Active; 'I' for Inactive)
REMARK    1  A    between atoms: C_1  and  C_2
REMARK    2  A    between atoms: C_2  and  N_3
REMARK    3  A    between atoms: C_12  and  S_13
REMARK    4  A    between atoms: S_13  and  N_16
REMARK    5  A    between atoms: N_16  and  C_17
REMARK    6  A    between atoms: C_20  and  O_21
REMARK    7  A    between atoms: O_21  and  C_22
REMARK                            x       y       z     vdW  Elec       q    Type
REMARK                         _______ _______ _______ _____ _____    ______ ____
ROOT
ATOM      1  N   UNL     1       3.546   5.726  18.173  0.00  0.00    +0.000 N 
ATOM      2  C   UNL     1       3.349   4.719  19.098  0.00  0.00    +0.000 A 
ATOM      3  C   UNL     1       3.824   3.397  19.142  0.00  0.00    +0.000 A 
ATOM      4  C   UNL     1       3.471   2.603  20.237  0.00  0.00    +0.000 A 
ATOM      5  C   UNL     1       2.672   3.109  21.258  0.00  0.00    +0.000 A 
ATOM      6  C   UNL     1       2.202   4.424  21.204  0.00  0.00    +0.000 A 
ATOM      7  C   UNL     1       2.541   5.245  20.107  0.00  0.00    +0.000 A 
ATOM      8  C   UNL     1       2.235   6.598  19.755  0.00  0.00    +0.000 A 
ATOM      9  C   UNL     1       1.493   7.619  20.383  0.00  0.00    +0.000 A 
ATOM     10  C   UNL     1       1.364   8.860  19.741  0.00  0.00    +0.000 A 
ATOM     11  C   UNL     1       1.962   9.101  18.506  0.00  0.00    +0.000 A 
ATOM     12  C   UNL     1       2.705   8.100  17.873  0.00  0.00    +0.000 A 
ATOM     13  C   UNL     1       2.839   6.861  18.524  0.00  0.00    +0.000 A 
ENDROOT
BRANCH  10  14
ATOM     14  S   UNL     1       0.461  10.166  20.544  0.00  0.00    +0.000 S 
ATOM     15  O   UNL     1      -0.752   9.606  21.107  0.00  0.00    +0.000 OA
ATOM     16  O   UNL     1       1.401  10.900  21.366  0.00  0.00    +0.000 OA
BRANCH  14  17
ATOM     17  N   UNL     1       0.055  11.193  19.265  0.00  0.00    +0.000 N 
ATOM     18  H   UNL     1       0.821  11.294  18.601  0.00  0.00    +0.000 HD
BRANCH  17  19
ATOM     19  C   UNL     1      -1.263  11.111  18.737  0.00  0.00    +0.000 A 
ATOM     20  C   UNL     1      -1.593  10.135  17.802  0.00  0.00    +0.000 A 
ATOM     21  C   UNL     1      -2.912  10.033  17.364  0.00  0.00    +0.000 A 
ATOM     22  C   UNL     1      -3.847  10.927  17.861  0.00  0.00    +0.000 A 
ATOM     23  N   UNL     1      -3.559  11.877  18.773  0.00  0.00    +0.000 NA
ATOM     24  C   UNL     1      -2.277  11.940  19.205  0.00  0.00    +0.000 A 
BRANCH  22  25
ATOM     25  O   UNL     1      -5.140  10.801  17.394  0.00  0.00    +0.000 OA
ATOM     26  C   UNL     1      -6.090  11.457  18.229  0.00  0.00    +0.000 C 
ENDBRANCH  22  25
ENDBRANCH  17  19
ENDBRANCH  14  17
ENDBRANCH  10  14
BRANCH   1  28
ATOM     27  C   UNL     1       5.837   6.121  17.329  0.00  0.00    +0.000 C 
ATOM     28  C   UNL     1       4.433   5.633  17.023  0.00  0.00    +0.000 C 
ENDBRANCH   1  28
TORSDOF 5
ENDMDL
MODEL 7
REMARK VINA RESULT:      -8.3      3.727      8.143
REMARK  Name = 
REMARK  7 active torsions:
REMARK  status: ('A' for Active; 'I' for Inactive)
REMARK    1  A    between atoms: C_1  and  C_2
REMARK    2  A    between atoms: C_2  and  N_3
REMARK    3  A    between atoms: C_12  and  S_13
REMARK    4  A    between atoms: S_13  and  N_16
REMARK    5  A    between atoms: N_16  and  C_17
REMARK    6  A    between atoms: C_20  and  O_21
REMARK    7  A    between atoms: O_21  and  C_22
REMARK                            x       y       z     vdW  Elec       q    Type
REMARK                         _______ _______ _______ _____ _____    ______ ____
ROOT
ATOM      1  N   UNL     1       2.593   5.275  19.854  0.00  0.00    +0.000 N 
ATOM      2  C   UNL     1       3.412   5.263  18.742  0.00  0.00    +0.000 A 
ATOM      3  C   UNL     1       4.162   4.229  18.156  0.00  0.00    +0.000 A 
ATOM      4  C   UNL     1       4.890   4.515  16.997  0.00  0.00    +0.000 A 
ATOM      5  C   UNL     1       4.872   5.789  16.438  0.00  0.00    +0.000 A 
ATOM      6  C   UNL     1       4.125   6.812  17.030  0.00  0.00    +0.000 A 
ATOM      7  C   UNL     1       3.384   6.550  18.202  0.00  0.00    +0.000 A 
ATOM      8  C   UNL     1       2.539   7.350  19.034  0.00  0.00    +0.000 A 
ATOM      9  C   UNL     1       2.119   8.695  18.983  0.00  0.00    +0.000 A 
ATOM     10  C   UNL     1       1.285   9.188  19.998  0.00  0.00    +0.000 A 
ATOM     11  C   UNL     1       0.857   8.371  21.042  0.00  0.00    +0.000 A 
ATOM     12  C   UNL     1       1.261   7.034  21.105  0.00  0.00    +0.000 A 
ATOM     13  C   UNL     1       2.090   6.542  20.082  0.00  0.00    +0.000 A 
ENDROOT
BRANCH  10  14
ATOM     14  S   UNL     1       0.720  10.873  19.919  0.00  0.00    +0.000 S 
ATOM     15  O   UNL     1       1.197  11.571  21.096  0.00  0.00    +0.000 OA
ATOM     16  O   UNL     1       1.006  11.364  18.587  0.00  0.00    +0.000 OA
BRANCH  14  17
ATOM     17  N   UNL     1      -0.960  10.718  20.010  0.00  0.00    +0.000 N 
ATOM     18  H   UNL     1      -1.345  11.220  20.810  0.00  0.00    +0.000 HD
BRANCH  17  19
ATOM     19  C   UNL     1      -1.700  10.755  18.796  0.00  0.00    +0.000 A 
ATOM     20  C   UNL     1      -1.459   9.825  17.790  0.00  0.00    +0.000 A 
ATOM     21  C   UNL     1      -2.254   9.841  16.646  0.00  0.00    +0.000 A 
ATOM     22  C   UNL     1      -3.247  10.803  16.542  0.00  0.00    +0.000 A 
ATOM     23  N   UNL     1      -3.509  11.710  17.503  0.00  0.00    +0.000 NA
ATOM     24  C   UNL     1      -2.741  11.660  18.617  0.00  0.00    +0.000 A 
BRANCH  22  25
ATOM     25  O   UNL     1      -4.006  10.792  15.389  0.00  0.00    +0.000 OA
ATOM     26  C   UNL     1      -3.337  10.161  14.301  0.00  0.00    +0.000 C 
ENDBRANCH  22  25
ENDBRANCH  17  19
ENDBRANCH  14  17
ENDBRANCH  10  14
BRANCH   1  28
ATOM     27  C   UNL     1       0.982   3.421  20.145  0.00  0.00    +0.000 C 
ATOM     28  C   UNL     1       2.246   4.100  20.639  0.00  0.00    +0.000 C 
ENDBRANCH   1  28
TORSDOF 5
ENDMDL
MODEL 8
REMARK VINA RESULT:      -8.2      3.226      8.441
REMARK  Name = 
REMARK  7 active torsions:
REMARK  status: ('A' for Active; 'I' for Inactive)
REMARK    1  A    between atoms: C_1  and  C_2
REMARK    2  A    between atoms: C_2  and  N_3
REMARK    3  A    between atoms: C_12  and  S_13
REMARK    4  A    between atoms: S_13  and  N_16
REMARK    5  A    between atoms: N_16  and  C_17
REMARK    6  A    between atoms: C_20  and  O_21
REMARK    7  A    between atoms: O_21  and  C_22
REMARK                            x       y       z     vdW  Elec       q    Type
REMARK                         _______ _______ _______ _____ _____    ______ ____
ROOT
ATOM      1  N   UNL     1       3.461   4.129  18.537  0.00  0.00    +0.000 N 
ATOM      2  C   UNL     1       4.151   4.741  17.509  0.00  0.00    +0.000 A 
ATOM      3  C   UNL     1       4.963   4.208  16.493  0.00  0.00    +0.000 A 
ATOM      4  C   UNL     1       5.520   5.089  15.561  0.00  0.00    +0.000 A 
ATOM      5  C   UNL     1       5.276   6.457  15.636  0.00  0.00    +0.000 A 
ATOM      6  C   UNL     1       4.469   6.978  16.652  0.00  0.00    +0.000 A 
ATOM      7  C   UNL     1       3.898   6.110  17.607  0.00  0.00    +0.000 A 
ATOM      8  C   UNL     1       3.049   6.313  18.741  0.00  0.00    +0.000 A 
ATOM      9  C   UNL     1       2.454   7.455  19.316  0.00  0.00    +0.000 A 
ATOM     10  C   UNL     1       1.675   7.308  20.474  0.00  0.00    +0.000 A 
ATOM     11  C   UNL     1       1.472   6.057  21.055  0.00  0.00    +0.000 A 
ATOM     12  C   UNL     1       2.051   4.915  20.494  0.00  0.00    +0.000 A 
ATOM     13  C   UNL     1       2.823   5.066  19.329  0.00  0.00    +0.000 A 
ENDROOT
BRANCH  10  14
ATOM     14  S   UNL     1       0.890   8.738  21.183  0.00  0.00    +0.000 S 
ATOM     15  O   UNL     1      -0.506   8.427  21.416  0.00  0.00    +0.000 OA
ATOM     16  O   UNL     1       1.743   9.214  22.253  0.00  0.00    +0.000 OA
BRANCH  14  17
ATOM     17  N   UNL     1       1.002   9.887  19.949  0.00  0.00    +0.000 N 
ATOM     18  H   UNL     1       1.770   9.684  19.309  0.00  0.00    +0.000 HD
BRANCH  17  19
ATOM     19  C   UNL     1      -0.207  10.380  19.385  0.00  0.00    +0.000 A 
ATOM     20  C   UNL     1      -0.932  11.380  20.025  0.00  0.00    +0.000 A 
ATOM     21  C   UNL     1      -2.070  11.895  19.408  0.00  0.00    +0.000 A 
ATOM     22  C   UNL     1      -2.452  11.373  18.181  0.00  0.00    +0.000 A 
ATOM     23  N   UNL     1      -1.765  10.411  17.534  0.00  0.00    +0.000 NA
ATOM     24  C   UNL     1      -0.649   9.944  18.140  0.00  0.00    +0.000 A 
BRANCH  22  25
ATOM     25  O   UNL     1      -3.591  11.902  17.607  0.00  0.00    +0.000 OA
ATOM     26  C   UNL     1      -4.490  10.895  17.149  0.00  0.00    +0.000 C 
ENDBRANCH  22  25
ENDBRANCH  17  19
ENDBRANCH  14  17
ENDBRANCH  10  14
BRANCH   1  28
ATOM     27  C   UNL     1       2.167   2.093  17.991  0.00  0.00    +0.000 C 
ATOM     28  C   UNL     1       3.356   2.689  18.722  0.00  0.00    +0.000 C 
ENDBRANCH   1  28
TORSDOF 5
ENDMDL
MODEL 9
REMARK VINA RESULT:      -8.2      1.150      1.417
REMARK  Name = 
REMARK  7 active torsions:
REMARK  status: ('A' for Active; 'I' for Inactive)
REMARK    1  A    between atoms: C_1  and  C_2
REMARK    2  A    between atoms: C_2  and  N_3
REMARK    3  A    between atoms: C_12  and  S_13
REMARK    4  A    between atoms: S_13  and  N_16
REMARK    5  A    between atoms: N_16  and  C_17
REMARK    6  A    between atoms: C_20  and  O_21
REMARK    7  A    between atoms: O_21  and  C_22
REMARK                            x       y       z     vdW  Elec       q    Type
REMARK                         _______ _______ _______ _____ _____    ______ ____
ROOT
ATOM      1  N   UNL     1       0.906  10.362  19.442  0.00  0.00    +0.000 N 
ATOM      2  C   UNL     1       0.358  10.442  20.708  0.00  0.00    +0.000 A 
ATOM      3  C   UNL     1      -0.327  11.484  21.355  0.00  0.00    +0.000 A 
ATOM      4  C   UNL     1      -0.795  11.262  22.653  0.00  0.00    +0.000 A 
ATOM      5  C   UNL     1      -0.589  10.041  23.288  0.00  0.00    +0.000 A 
ATOM      6  C   UNL     1       0.096   9.011  22.637  0.00  0.00    +0.000 A 
ATOM      7  C   UNL     1       0.582   9.212  21.327  0.00  0.00    +0.000 A 
ATOM      8  C   UNL     1       1.302   8.388  20.405  0.00  0.00    +0.000 A 
ATOM      9  C   UNL     1       1.781   7.062  20.457  0.00  0.00    +0.000 A 
ATOM     10  C   UNL     1       2.491   6.551  19.361  0.00  0.00    +0.000 A 
ATOM     11  C   UNL     1       2.719   7.322  18.223  0.00  0.00    +0.000 A 
ATOM     12  C   UNL     1       2.246   8.636  18.154  0.00  0.00    +0.000 A 
ATOM     13  C   UNL     1       1.528   9.142  19.251  0.00  0.00    +0.000 A 
ENDROOT
BRANCH  10  14
ATOM     14  S   UNL     1       3.065   4.867  19.404  0.00  0.00    +0.000 S 
ATOM     15  O   UNL     1       2.618   4.263  20.644  0.00  0.00    +0.000 OA
ATOM     16  O   UNL     1       2.753   4.271  18.122  0.00  0.00    +0.000 OA
BRANCH  14  17
ATOM     17  N   UNL     1       4.746   5.037  19.445  0.00  0.00    +0.000 N 
ATOM     18  H   UNL     1       5.168   4.463  20.174  0.00  0.00    +0.000 HD
BRANCH  17  19
ATOM     19  C   UNL     1       5.436   5.135  18.206  0.00  0.00    +0.000 A 
ATOM     20  C   UNL     1       6.250   6.230  17.932  0.00  0.00    +0.000 A 
ATOM     21  C   UNL     1       6.973   6.257  16.741  0.00  0.00    +0.000 A 
ATOM     22  C   UNL     1       6.838   5.196  15.858  0.00  0.00    +0.000 A 
ATOM     23  N   UNL     1       6.065   4.119  16.101  0.00  0.00    +0.000 NA
ATOM     24  C   UNL     1       5.391   4.102  17.276  0.00  0.00    +0.000 A 
BRANCH  22  25
ATOM     25  O   UNL     1       7.562   5.266  14.686  0.00  0.00    +0.000 OA
ATOM     26  C   UNL     1       7.043   4.410  13.671  0.00  0.00    +0.000 C 
ENDBRANCH  22  25
ENDBRANCH  17  19
ENDBRANCH  14  17
ENDBRANCH  10  14
BRANCH   1  28
ATOM     27  C   UNL     1       1.937  12.376  18.442  0.00  0.00    +0.000 C 
ATOM     28  C   UNL     1       0.783  11.391  18.420  0.00  0.00    +0.000 C 
ENDBRANCH   1  28
TORSDOF 5
ENDMDL
