MODEL 1
REMARK VINA RESULT:      -7.4      0.000      0.000
REMARK  Name = 
REMARK  11 active torsions:
REMARK  status: ('A' for Active; 'I' for Inactive)
REMARK    1  A    between atoms: C_1  and  O_2
REMARK    2  A    between atoms: O_2  and  C_3
REMARK    3  A    between atoms: C_3  and  C_4
REMARK    4  A    between atoms: C_4  and  N_5
REMARK    5  A    between atoms: C_6  and  C_8
REMARK    6  A    between atoms: C_8  and  C_9
REMARK    7  A    between atoms: C_9  and  N_10
REMARK    8  A    between atoms: C_9  and  C_21
REMARK    9  A    between atoms: N_10  and  S_11
REMARK   10  A    between atoms: S_11  and  C_14
REMARK   11  A    between atoms: C_17  and  C_18
REMARK                            x       y       z     vdW  Elec       q    Type
REMARK                         _______ _______ _______ _____ _____    ______ ____
ROOT
ATOM      1  C   UNL     1       5.836   5.201  17.025  0.00  0.00    +0.000 C 
ENDROOT
BRANCH   1   2
ATOM      2  C   UNL     1       6.812   6.254  17.517  0.00  0.00    +0.000 A 
ATOM      3  C   UNL     1       7.738   6.275  18.546  0.00  0.00    +0.000 A 
ATOM      4  C   UNL     1       8.311   7.567  18.548  0.00  0.00    +0.000 A 
ATOM      5  C   UNL     1       7.696   8.258  17.530  0.00  0.00    +0.000 A 
ATOM      6  O   UNL     1       6.777   7.473  16.905  0.00  0.00    +0.000 OA
ENDBRANCH   1   2
BRANCH   1   7
ATOM      7  N   UNL     1       5.152   4.762  18.259  0.00  0.00    +0.000 NA
ATOM      8  H   UNL     1       5.546   5.131  19.128  0.00  0.00    +0.000 HD
BRANCH   7   9
ATOM      9  S   UNL     1       3.496   4.579  18.438  0.00  0.00    +0.000 S 
ATOM     10  O   UNL     1       2.958   4.063  17.202  0.00  0.00    +0.000 OA
ATOM     11  O   UNL     1       3.342   3.830  19.673  0.00  0.00    +0.000 OA
BRANCH   9  12
ATOM     12  C   UNL     1       2.822   6.185  18.745  0.00  0.00    +0.000 A 
ATOM     13  C   UNL     1       2.255   6.478  19.986  0.00  0.00    +0.000 A 
ATOM     14  C   UNL     1       1.707   7.737  20.217  0.00  0.00    +0.000 A 
ATOM     15  C   UNL     1       1.679   8.698  19.201  0.00  0.00    +0.000 A 
ATOM     16  C   UNL     1       1.041  10.034  19.445  0.00  0.00    +0.000 C 
ATOM     17  C   UNL     1       2.229   8.389  17.948  0.00  0.00    +0.000 A 
ATOM     18  C   UNL     1       2.815   7.139  17.722  0.00  0.00    +0.000 A 
ENDBRANCH   9  12
ENDBRANCH   7   9
ENDBRANCH   1   7
BRANCH   1  19
ATOM     19  C   UNL     1       6.632   4.125  16.295  0.00  0.00    +0.000 C 
BRANCH  19  21
ATOM     20  N   UNL     1       6.356   3.562  13.973  0.00  0.00    +0.000 N 
ATOM     21  C   UNL     1       6.908   4.466  14.852  0.00  0.00    +0.000 C 
ATOM     22  O   UNL     1       7.593   5.432  14.529  0.00  0.00    +0.000 OA
ATOM     23  H   UNL     1       5.530   3.075  14.304  0.00  0.00    +0.000 HD
BRANCH  20  24
ATOM     24  C   UNL     1       6.308   3.823  12.543  0.00  0.00    +0.000 C 
BRANCH  24  25
ATOM     25  C   UNL     1       5.651   2.663  11.802  0.00  0.00    +0.000 C 
BRANCH  25  27
ATOM     26  C   UNL     1       6.195   0.441  11.229  0.00  0.00    +0.000 C 
ATOM     27  O   UNL     1       6.661   1.784  11.290  0.00  0.00    +0.000 OA
ENDBRANCH  25  27
ENDBRANCH  24  25
ENDBRANCH  20  24
ENDBRANCH  19  21
ENDBRANCH   1  19
TORSDOF 9
ENDMDL
MODEL 2
REMARK VINA RESULT:      -7.4      2.994      6.542
REMARK  Name = 
REMARK  11 active torsions:
REMARK  status: ('A' for Active; 'I' for Inactive)
REMARK    1  A    between atoms: C_1  and  O_2
REMARK    2  A    between atoms: O_2  and  C_3
REMARK    3  A    between atoms: C_3  and  C_4
REMARK    4  A    between atoms: C_4  and  N_5
REMARK    5  A    between atoms: C_6  and  C_8
REMARK    6  A    between atoms: C_8  and  C_9
REMARK    7  A    between atoms: C_9  and  N_10
REMARK    8  A    between atoms: C_9  and  C_21
REMARK    9  A    between atoms: N_10  and  S_11
REMARK   10  A    between atoms: S_11  and  C_14
REMARK   11  A    between atoms: C_17  and  C_18
REMARK                            x       y       z     vdW  Elec       q    Type
REMARK                         _______ _______ _______ _____ _____    ______ ____
ROOT
ATOM      1  C   UNL     1       3.084   6.120  20.118  0.00  0.00    +0.000 C 
ENDROOT
BRANCH   1   2
ATOM      2  C   UNL     1       2.604   7.236  19.208  0.00  0.00    +0.000 A 
ATOM      3  C   UNL     1       2.895   7.577  17.899  0.00  0.00    +0.000 A 
ATOM      4  C   UNL     1       2.177   8.761  17.619  0.00  0.00    +0.000 A 
ATOM      5  C   UNL     1       1.500   9.078  18.774  0.00  0.00    +0.000 A 
ATOM      6  O   UNL     1       1.761   8.163  19.748  0.00  0.00    +0.000 OA
ENDBRANCH   1   2
BRANCH   1   7
ATOM      7  N   UNL     1       3.643   5.126  19.179  0.00  0.00    +0.000 NA
ATOM      8  H   UNL     1       3.234   5.138  18.241  0.00  0.00    +0.000 HD
BRANCH   7   9
ATOM      9  S   UNL     1       5.258   4.692  19.072  0.00  0.00    +0.000 S 
ATOM     10  O   UNL     1       6.050   5.731  19.683  0.00  0.00    +0.000 OA
ATOM     11  O   UNL     1       5.306   3.335  19.586  0.00  0.00    +0.000 OA
BRANCH   9  12
ATOM     12  C   UNL     1       5.658   4.584  17.352  0.00  0.00    +0.000 A 
ATOM     13  C   UNL     1       4.648   4.365  16.414  0.00  0.00    +0.000 A 
ATOM     14  C   UNL     1       4.969   4.260  15.062  0.00  0.00    +0.000 A 
ATOM     15  C   UNL     1       6.302   4.328  14.641  0.00  0.00    +0.000 A 
ATOM     16  C   UNL     1       6.642   4.164  13.189  0.00  0.00    +0.000 C 
ATOM     17  C   UNL     1       7.314   4.525  15.592  0.00  0.00    +0.000 A 
ATOM     18  C   UNL     1       6.993   4.669  16.946  0.00  0.00    +0.000 A 
ENDBRANCH   9  12
ENDBRANCH   7   9
ENDBRANCH   1   7
BRANCH   1  19
ATOM     19  C   UNL     1       1.897   5.647  20.950  0.00  0.00    +0.000 C 
BRANCH  19  21
ATOM     20  N   UNL     1       0.763   3.709  20.087  0.00  0.00    +0.000 N 
ATOM     21  C   UNL     1       1.736   4.148  20.956  0.00  0.00    +0.000 C 
ATOM     22  O   UNL     1       2.388   3.424  21.703  0.00  0.00    +0.000 OA
ATOM     23  H   UNL     1       0.589   4.306  19.284  0.00  0.00    +0.000 HD
BRANCH  20  24
ATOM     24  C   UNL     1       0.603   2.299  19.771  0.00  0.00    +0.000 C 
BRANCH  24  25
ATOM     25  C   UNL     1       0.947   2.027  18.311  0.00  0.00    +0.000 C 
BRANCH  25  27
ATOM     26  C   UNL     1       3.238   1.471  18.373  0.00  0.00    +0.000 C 
ATOM     27  O   UNL     1       2.283   2.471  18.039  0.00  0.00    +0.000 OA
ENDBRANCH  25  27
ENDBRANCH  24  25
ENDBRANCH  20  24
ENDBRANCH  19  21
ENDBRANCH   1  19
TORSDOF 9
ENDMDL
MODEL 3
REMARK VINA RESULT:      -7.4      2.183      5.733
REMARK  Name = 
REMARK  11 active torsions:
REMARK  status: ('A' for Active; 'I' for Inactive)
REMARK    1  A    between atoms: C_1  and  O_2
REMARK    2  A    between atoms: O_2  and  C_3
REMARK    3  A    between atoms: C_3  and  C_4
REMARK    4  A    between atoms: C_4  and  N_5
REMARK    5  A    between atoms: C_6  and  C_8
REMARK    6  A    between atoms: C_8  and  C_9
REMARK    7  A    between atoms: C_9  and  N_10
REMARK    8  A    between atoms: C_9  and  C_21
REMARK    9  A    between atoms: N_10  and  S_11
REMARK   10  A    between atoms: S_11  and  C_14
REMARK   11  A    between atoms: C_17  and  C_18
REMARK                            x       y       z     vdW  Elec       q    Type
REMARK                         _______ _______ _______ _____ _____    ______ ____
ROOT
ATOM      1  C   UNL     1       6.309   5.176  16.525  0.00  0.00    +0.000 C 
ENDROOT
BRANCH   1   2
ATOM      2  C   UNL     1       6.541   4.828  15.067  0.00  0.00    +0.000 A 
ATOM      3  C   UNL     1       5.936   3.931  14.203  0.00  0.00    +0.000 A 
ATOM      4  C   UNL     1       6.632   4.019  12.976  0.00  0.00    +0.000 A 
ATOM      5  C   UNL     1       7.623   4.953  13.166  0.00  0.00    +0.000 A 
ATOM      6  O   UNL     1       7.582   5.443  14.435  0.00  0.00    +0.000 OA
ENDBRANCH   1   2
BRANCH   1   7
ATOM      7  N   UNL     1       4.984   4.589  16.814  0.00  0.00    +0.000 NA
ATOM      8  H   UNL     1       4.577   4.044  16.051  0.00  0.00    +0.000 HD
BRANCH   7   9
ATOM      9  S   UNL     1       4.514   3.926  18.279  0.00  0.00    +0.000 S 
ATOM     10  O   UNL     1       3.792   2.704  18.015  0.00  0.00    +0.000 OA
ATOM     11  O   UNL     1       5.727   3.903  19.076  0.00  0.00    +0.000 OA
BRANCH   9  12
ATOM     12  C   UNL     1       3.432   5.090  19.057  0.00  0.00    +0.000 A 
ATOM     13  C   UNL     1       3.323   6.386  18.552  0.00  0.00    +0.000 A 
ATOM     14  C   UNL     1       2.486   7.306  19.179  0.00  0.00    +0.000 A 
ATOM     15  C   UNL     1       1.787   6.955  20.339  0.00  0.00    +0.000 A 
ATOM     16  C   UNL     1       0.927   7.968  21.036  0.00  0.00    +0.000 C 
ATOM     17  C   UNL     1       1.920   5.657  20.856  0.00  0.00    +0.000 A 
ATOM     18  C   UNL     1       2.729   4.718  20.207  0.00  0.00    +0.000 A 
ENDBRANCH   9  12
ENDBRANCH   7   9
ENDBRANCH   1   7
BRANCH   1  19
ATOM     19  C   UNL     1       6.406   6.690  16.670  0.00  0.00    +0.000 C 
BRANCH  19  21
ATOM     20  N   UNL     1       7.804   8.449  17.527  0.00  0.00    +0.000 N 
ATOM     21  C   UNL     1       7.448   7.127  17.668  0.00  0.00    +0.000 C 
ATOM     22  O   UNL     1       7.941   6.350  18.481  0.00  0.00    +0.000 OA
ATOM     23  H   UNL     1       7.094   9.056  17.130  0.00  0.00    +0.000 HD
BRANCH  20  24
ATOM     24  C   UNL     1       8.617   9.129  18.523  0.00  0.00    +0.000 C 
BRANCH  24  25
ATOM     25  C   UNL     1       8.941  10.552  18.080  0.00  0.00    +0.000 C 
BRANCH  25  27
ATOM     26  C   UNL     1       9.846  12.588  18.851  0.00  0.00    +0.000 C 
ATOM     27  O   UNL     1       9.234  11.360  19.227  0.00  0.00    +0.000 OA
ENDBRANCH  25  27
ENDBRANCH  24  25
ENDBRANCH  20  24
ENDBRANCH  19  21
ENDBRANCH   1  19
TORSDOF 9
ENDMDL
MODEL 4
REMARK VINA RESULT:      -7.2      3.260      4.627
REMARK  Name = 
REMARK  11 active torsions:
REMARK  status: ('A' for Active; 'I' for Inactive)
REMARK    1  A    between atoms: C_1  and  O_2
REMARK    2  A    between atoms: O_2  and  C_3
REMARK    3  A    between atoms: C_3  and  C_4
REMARK    4  A    between atoms: C_4  and  N_5
REMARK    5  A    between atoms: C_6  and  C_8
REMARK    6  A    between atoms: C_8  and  C_9
REMARK    7  A    between atoms: C_9  and  N_10
REMARK    8  A    between atoms: C_9  and  C_21
REMARK    9  A    between atoms: N_10  and  S_11
REMARK   10  A    between atoms: S_11  and  C_14
REMARK   11  A    between atoms: C_17  and  C_18
REMARK                            x       y       z     vdW  Elec       q    Type
REMARK                         _______ _______ _______ _____ _____    ______ ____
ROOT
ATOM      1  C   UNL     1       4.837   5.804  17.635  0.00  0.00    +0.000 C 
ENDROOT
BRANCH   1   2
ATOM      2  C   UNL     1       6.189   6.465  17.823  0.00  0.00    +0.000 A 
ATOM      3  C   UNL     1       7.273   6.183  18.637  0.00  0.00    +0.000 A 
ATOM      4  C   UNL     1       8.228   7.199  18.406  0.00  0.00    +0.000 A 
ATOM      5  C   UNL     1       7.668   8.044  17.476  0.00  0.00    +0.000 A 
ATOM      6  O   UNL     1       6.427   7.612  17.123  0.00  0.00    +0.000 OA
ENDBRANCH   1   2
BRANCH   1   7
ATOM      7  N   UNL     1       4.111   6.143  18.877  0.00  0.00    +0.000 NA
ATOM      8  H   UNL     1       4.532   6.890  19.434  0.00  0.00    +0.000 HD
BRANCH   7   9
ATOM      9  S   UNL     1       2.445   6.203  19.043  0.00  0.00    +0.000 S 
ATOM     10  O   UNL     1       1.850   5.510  17.925  0.00  0.00    +0.000 OA
ATOM     11  O   UNL     1       2.196   5.753  20.400  0.00  0.00    +0.000 OA
BRANCH   9  12
ATOM     12  C   UNL     1       1.975   7.908  18.992  0.00  0.00    +0.000 A 
ATOM     13  C   UNL     1       2.309   8.691  17.887  0.00  0.00    +0.000 A 
ATOM     14  C   UNL     1       1.955  10.038  17.859  0.00  0.00    +0.000 A 
ATOM     15  C   UNL     1       1.308  10.625  18.952  0.00  0.00    +0.000 A 
ATOM     16  C   UNL     1       0.977  12.088  18.934  0.00  0.00    +0.000 C 
ATOM     17  C   UNL     1       0.997   9.838  20.071  0.00  0.00    +0.000 A 
ATOM     18  C   UNL     1       1.316   8.475  20.087  0.00  0.00    +0.000 A 
ENDBRANCH   9  12
ENDBRANCH   7   9
ENDBRANCH   1   7
BRANCH   1  19
ATOM     19  C   UNL     1       5.068   4.316  17.393  0.00  0.00    +0.000 C 
BRANCH  19  21
ATOM     20  N   UNL     1       3.258   2.973  18.231  0.00  0.00    +0.000 N 
ATOM     21  C   UNL     1       4.525   3.443  18.495  0.00  0.00    +0.000 C 
ATOM     22  O   UNL     1       5.152   3.228  19.528  0.00  0.00    +0.000 OA
ATOM     23  H   UNL     1       3.019   2.880  17.249  0.00  0.00    +0.000 HD
BRANCH  20  24
ATOM     24  C   UNL     1       2.644   1.939  19.048  0.00  0.00    +0.000 C 
BRANCH  24  25
ATOM     25  C   UNL     1       1.128   2.107  19.088  0.00  0.00    +0.000 C 
BRANCH  25  27
ATOM     26  C   UNL     1       1.524   2.589  21.362  0.00  0.00    +0.000 C 
ATOM     27  O   UNL     1       0.762   2.923  20.208  0.00  0.00    +0.000 OA
ENDBRANCH  25  27
ENDBRANCH  24  25
ENDBRANCH  20  24
ENDBRANCH  19  21
ENDBRANCH   1  19
TORSDOF 9
ENDMDL
MODEL 5
REMARK VINA RESULT:      -7.2      3.163      5.456
REMARK  Name = 
REMARK  11 active torsions:
REMARK  status: ('A' for Active; 'I' for Inactive)
REMARK    1  A    between atoms: C_1  and  O_2
REMARK    2  A    between atoms: O_2  and  C_3
REMARK    3  A    between atoms: C_3  and  C_4
REMARK    4  A    between atoms: C_4  and  N_5
REMARK    5  A    between atoms: C_6  and  C_8
REMARK    6  A    between atoms: C_8  and  C_9
REMARK    7  A    between atoms: C_9  and  N_10
REMARK    8  A    between atoms: C_9  and  C_21
REMARK    9  A    between atoms: N_10  and  S_11
REMARK   10  A    between atoms: S_11  and  C_14
REMARK   11  A    between atoms: C_17  and  C_18
REMARK                            x       y       z     vdW  Elec       q    Type
REMARK                         _______ _______ _______ _____ _____    ______ ____
ROOT
ATOM      1  C   UNL     1       4.840   4.497  19.129  0.00  0.00    +0.000 C 
ENDROOT
BRANCH   1   2
ATOM      2  C   UNL     1       3.771   3.421  19.196  0.00  0.00    +0.000 A 
ATOM      3  C   UNL     1       3.449   2.358  18.370  0.00  0.00    +0.000 A 
ATOM      4  C   UNL     1       2.308   1.741  18.931  0.00  0.00    +0.000 A 
ATOM      5  C   UNL     1       1.997   2.468  20.057  0.00  0.00    +0.000 A 
ATOM      6  O   UNL     1       2.873   3.496  20.220  0.00  0.00    +0.000 OA
ENDBRANCH   1   2
BRANCH   1   7
ATOM      7  N   UNL     1       4.082   5.749  19.338  0.00  0.00    +0.000 NA
ATOM      8  H   UNL     1       4.543   6.440  19.934  0.00  0.00    +0.000 HD
BRANCH   7   9
ATOM      9  S   UNL     1       3.177   6.542  18.171  0.00  0.00    +0.000 S 
ATOM     10  O   UNL     1       4.084   7.181  17.248  0.00  0.00    +0.000 OA
ATOM     11  O   UNL     1       2.234   5.544  17.700  0.00  0.00    +0.000 OA
BRANCH   9  12
ATOM     12  C   UNL     1       2.219   7.776  19.002  0.00  0.00    +0.000 A 
ATOM     13  C   UNL     1       1.850   7.591  20.334  0.00  0.00    +0.000 A 
ATOM     14  C   UNL     1       1.078   8.555  20.979  0.00  0.00    +0.000 A 
ATOM     15  C   UNL     1       0.632   9.687  20.288  0.00  0.00    +0.000 A 
ATOM     16  C   UNL     1      -0.241  10.695  20.977  0.00  0.00    +0.000 C 
ATOM     17  C   UNL     1       0.987   9.854  18.941  0.00  0.00    +0.000 A 
ATOM     18  C   UNL     1       1.794   8.908  18.300  0.00  0.00    +0.000 A 
ENDBRANCH   9  12
ENDBRANCH   7   9
ENDBRANCH   1   7
BRANCH   1  19
ATOM     19  C   UNL     1       5.550   4.373  17.787  0.00  0.00    +0.000 C 
BRANCH  19  21
ATOM     20  N   UNL     1       6.894   6.328  18.180  0.00  0.00    +0.000 N 
ATOM     21  C   UNL     1       6.915   5.013  17.775  0.00  0.00    +0.000 C 
ATOM     22  O   UNL     1       7.916   4.412  17.396  0.00  0.00    +0.000 OA
ATOM     23  H   UNL     1       6.142   6.581  18.814  0.00  0.00    +0.000 HD
BRANCH  20  24
ATOM     24  C   UNL     1       8.119   7.060  18.459  0.00  0.00    +0.000 C 
BRANCH  24  25
ATOM     25  C   UNL     1       8.036   8.484  17.920  0.00  0.00    +0.000 C 
BRANCH  25  27
ATOM     26  C   UNL     1       9.013  10.619  18.144  0.00  0.00    +0.000 C 
ATOM     27  O   UNL     1       8.770   9.368  18.777  0.00  0.00    +0.000 OA
ENDBRANCH  25  27
ENDBRANCH  24  25
ENDBRANCH  20  24
ENDBRANCH  19  21
ENDBRANCH   1  19
TORSDOF 9
ENDMDL
MODEL 6
REMARK VINA RESULT:      -7.1      1.454      1.808
REMARK  Name = 
REMARK  11 active torsions:
REMARK  status: ('A' for Active; 'I' for Inactive)
REMARK    1  A    between atoms: C_1  and  O_2
REMARK    2  A    between atoms: O_2  and  C_3
REMARK    3  A    between atoms: C_3  and  C_4
REMARK    4  A    between atoms: C_4  and  N_5
REMARK    5  A    between atoms: C_6  and  C_8
REMARK    6  A    between atoms: C_8  and  C_9
REMARK    7  A    between atoms: C_9  and  N_10
REMARK    8  A    between atoms: C_9  and  C_21
REMARK    9  A    between atoms: N_10  and  S_11
REMARK   10  A    between atoms: S_11  and  C_14
REMARK   11  A    between atoms: C_17  and  C_18
REMARK                            x       y       z     vdW  Elec       q    Type
REMARK                         _______ _______ _______ _____ _____    ______ ____
ROOT
ATOM      1  C   UNL     1       5.026   5.796  16.683  0.00  0.00    +0.000 C 
ENDROOT
BRANCH   1   2
ATOM      2  C   UNL     1       6.224   6.127  17.554  0.00  0.00    +0.000 A 
ATOM      3  C   UNL     1       7.138   7.166  17.546  0.00  0.00    +0.000 A 
ATOM      4  C   UNL     1       8.069   6.894  18.574  0.00  0.00    +0.000 A 
ATOM      5  C   UNL     1       7.676   5.703  19.138  0.00  0.00    +0.000 A 
ATOM      6  O   UNL     1       6.563   5.224  18.519  0.00  0.00    +0.000 OA
ENDBRANCH   1   2
BRANCH   1   7
ATOM      7  N   UNL     1       4.770   4.371  16.975  0.00  0.00    +0.000 NA
ATOM      8  H   UNL     1       5.596   3.826  17.232  0.00  0.00    +0.000 HD
BRANCH   7   9
ATOM      9  S   UNL     1       3.438   3.772  17.797  0.00  0.00    +0.000 S 
ATOM     10  O   UNL     1       2.438   3.391  16.828  0.00  0.00    +0.000 OA
ATOM     11  O   UNL     1       3.985   2.786  18.711  0.00  0.00    +0.000 OA
BRANCH   9  12
ATOM     12  C   UNL     1       2.809   5.085  18.802  0.00  0.00    +0.000 A 
ATOM     13  C   UNL     1       2.340   4.815  20.088  0.00  0.00    +0.000 A 
ATOM     14  C   UNL     1       1.827   5.848  20.870  0.00  0.00    +0.000 A 
ATOM     15  C   UNL     1       1.735   7.147  20.359  0.00  0.00    +0.000 A 
ATOM     16  C   UNL     1       1.135   8.242  21.190  0.00  0.00    +0.000 C 
ATOM     17  C   UNL     1       2.187   7.407  19.056  0.00  0.00    +0.000 A 
ATOM     18  C   UNL     1       2.738   6.381  18.281  0.00  0.00    +0.000 A 
ENDBRANCH   9  12
ENDBRANCH   7   9
ENDBRANCH   1   7
BRANCH   1  19
ATOM     19  C   UNL     1       5.389   6.118  15.238  0.00  0.00    +0.000 C 
BRANCH  19  21
ATOM     20  N   UNL     1       5.666   4.136  13.904  0.00  0.00    +0.000 N 
ATOM     21  C   UNL     1       6.324   5.109  14.622  0.00  0.00    +0.000 C 
ATOM     22  O   UNL     1       7.539   5.151  14.797  0.00  0.00    +0.000 OA
ATOM     23  H   UNL     1       4.770   4.410  13.512  0.00  0.00    +0.000 HD
BRANCH  20  24
ATOM     24  C   UNL     1       6.382   3.206  13.047  0.00  0.00    +0.000 C 
BRANCH  24  25
ATOM     25  C   UNL     1       5.606   2.944  11.761  0.00  0.00    +0.000 C 
BRANCH  25  27
ATOM     26  C   UNL     1       3.531   3.272  10.691  0.00  0.00    +0.000 C 
ATOM     27  O   UNL     1       4.264   3.428  11.899  0.00  0.00    +0.000 OA
ENDBRANCH  25  27
ENDBRANCH  24  25
ENDBRANCH  20  24
ENDBRANCH  19  21
ENDBRANCH   1  19
TORSDOF 9
ENDMDL
MODEL 7
REMARK VINA RESULT:      -7.1      2.196      4.313
REMARK  Name = 
REMARK  11 active torsions:
REMARK  status: ('A' for Active; 'I' for Inactive)
REMARK    1  A    between atoms: C_1  and  O_2
REMARK    2  A    between atoms: O_2  and  C_3
REMARK    3  A    between atoms: C_3  and  C_4
REMARK    4  A    between atoms: C_4  and  N_5
REMARK    5  A    between atoms: C_6  and  C_8
REMARK    6  A    between atoms: C_8  and  C_9
REMARK    7  A    between atoms: C_9  and  N_10
REMARK    8  A    between atoms: C_9  and  C_21
REMARK    9  A    between atoms: N_10  and  S_11
REMARK   10  A    between atoms: S_11  and  C_14
REMARK   11  A    between atoms: C_17  and  C_18
REMARK                            x       y       z     vdW  Elec       q    Type
REMARK                         _______ _______ _______ _____ _____    ______ ____
ROOT
ATOM      1  C   UNL     1       4.160   4.643  19.590  0.00  0.00    +0.000 C 
ENDROOT
BRANCH   1   2
ATOM      2  C   UNL     1       2.968   3.861  20.109  0.00  0.00    +0.000 A 
ATOM      3  C   UNL     1       2.189   3.973  21.248  0.00  0.00    +0.000 A 
ATOM      4  C   UNL     1       1.256   2.913  21.207  0.00  0.00    +0.000 A 
ATOM      5  C   UNL     1       1.526   2.213  20.054  0.00  0.00    +0.000 A 
ATOM      6  O   UNL     1       2.570   2.775  19.386  0.00  0.00    +0.000 OA
ENDBRANCH   1   2
BRANCH   1   7
ATOM      7  N   UNL     1       3.723   6.051  19.698  0.00  0.00    +0.000 NA
ATOM      8  H   UNL     1       4.417   6.691  20.092  0.00  0.00    +0.000 HD
BRANCH   7   9
ATOM      9  S   UNL     1       2.795   6.870  18.568  0.00  0.00    +0.000 S 
ATOM     10  O   UNL     1       3.682   7.570  17.671  0.00  0.00    +0.000 OA
ATOM     11  O   UNL     1       1.875   5.870  18.057  0.00  0.00    +0.000 OA
BRANCH   9  12
ATOM     12  C   UNL     1       1.809   8.043  19.452  0.00  0.00    +0.000 A 
ATOM     13  C   UNL     1       1.381   9.211  18.819  0.00  0.00    +0.000 A 
ATOM     14  C   UNL     1       0.622  10.142  19.525  0.00  0.00    +0.000 A 
ATOM     15  C   UNL     1       0.325   9.939  20.876  0.00  0.00    +0.000 A 
ATOM     16  C   UNL     1      -0.450  10.973  21.640  0.00  0.00    +0.000 C 
ATOM     17  C   UNL     1       0.779   8.775  21.513  0.00  0.00    +0.000 A 
ATOM     18  C   UNL     1       1.509   7.818  20.799  0.00  0.00    +0.000 A 
ENDBRANCH   9  12
ENDBRANCH   7   9
ENDBRANCH   1   7
BRANCH   1  19
ATOM     19  C   UNL     1       4.465   4.156  18.178  0.00  0.00    +0.000 C 
BRANCH  19  21
ATOM     20  N   UNL     1       6.197   4.033  16.514  0.00  0.00    +0.000 N 
ATOM     21  C   UNL     1       5.745   4.720  17.618  0.00  0.00    +0.000 C 
ATOM     22  O   UNL     1       6.326   5.668  18.140  0.00  0.00    +0.000 OA
ATOM     23  H   UNL     1       5.483   3.565  15.965  0.00  0.00    +0.000 HD
BRANCH  20  24
ATOM     24  C   UNL     1       7.280   4.543  15.689  0.00  0.00    +0.000 C 
BRANCH  24  25
ATOM     25  C   UNL     1       6.815   4.756  14.252  0.00  0.00    +0.000 C 
BRANCH  25  27
ATOM     26  C   UNL     1       6.029   3.462  12.445  0.00  0.00    +0.000 C 
ATOM     27  O   UNL     1       5.973   3.667  13.851  0.00  0.00    +0.000 OA
ENDBRANCH  25  27
ENDBRANCH  24  25
ENDBRANCH  20  24
ENDBRANCH  19  21
ENDBRANCH   1  19
TORSDOF 9
ENDMDL
MODEL 8
REMARK VINA RESULT:      -7.0      3.094      4.007
REMARK  Name = 
REMARK  11 active torsions:
REMARK  status: ('A' for Active; 'I' for Inactive)
REMARK    1  A    between atoms: C_1  and  O_2
REMARK    2  A    between atoms: O_2  and  C_3
REMARK    3  A    between atoms: C_3  and  C_4
REMARK    4  A    between atoms: C_4  and  N_5
REMARK    5  A    between atoms: C_6  and  C_8
REMARK    6  A    between atoms: C_8  and  C_9
REMARK    7  A    between atoms: C_9  and  N_10
REMARK    8  A    between atoms: C_9  and  C_21
REMARK    9  A    between atoms: N_10  and  S_11
REMARK   10  A    between atoms: S_11  and  C_14
REMARK   11  A    between atoms: C_17  and  C_18
REMARK                            x       y       z     vdW  Elec       q    Type
REMARK                         _______ _______ _______ _____ _____    ______ ____
ROOT
ATOM      1  C   UNL     1       5.140   5.926  17.518  0.00  0.00    +0.000 C 
ENDROOT
BRANCH   1   2
ATOM      2  C   UNL     1       6.438   6.668  17.776  0.00  0.00    +0.000 A 
ATOM      3  C   UNL     1       7.509   6.432  18.621  0.00  0.00    +0.000 A 
ATOM      4  C   UNL     1       8.402   7.515  18.457  0.00  0.00    +0.000 A 
ATOM      5  C   UNL     1       7.820   8.350  17.532  0.00  0.00    +0.000 A 
ATOM      6  O   UNL     1       6.624   7.850  17.120  0.00  0.00    +0.000 OA
ENDBRANCH   1   2
BRANCH   1   7
ATOM      7  N   UNL     1       4.392   6.091  18.781  0.00  0.00    +0.000 NA
ATOM      8  H   UNL     1       4.752   6.815  19.407  0.00  0.00    +0.000 HD
BRANCH   7   9
ATOM      9  S   UNL     1       2.726   6.002  18.942  0.00  0.00    +0.000 S 
ATOM     10  O   UNL     1       2.190   5.343  17.775  0.00  0.00    +0.000 OA
ATOM     11  O   UNL     1       2.516   5.439  20.263  0.00  0.00    +0.000 OA
BRANCH   9  12
ATOM     12  C   UNL     1       2.118   7.662  19.009  0.00  0.00    +0.000 A 
ATOM     13  C   UNL     1       1.517   8.138  20.175  0.00  0.00    +0.000 A 
ATOM     14  C   UNL     1       1.021   9.439  20.217  0.00  0.00    +0.000 A 
ATOM     15  C   UNL     1       1.078  10.259  19.084  0.00  0.00    +0.000 A 
ATOM     16  C   UNL     1       0.495  11.641  19.124  0.00  0.00    +0.000 C 
ATOM     17  C   UNL     1       1.661   9.766  17.907  0.00  0.00    +0.000 A 
ATOM     18  C   UNL     1       2.196   8.473  17.872  0.00  0.00    +0.000 A 
ENDBRANCH   9  12
ENDBRANCH   7   9
ENDBRANCH   1   7
BRANCH   1  19
ATOM     19  C   UNL     1       5.484   4.490  17.139  0.00  0.00    +0.000 C 
BRANCH  19  21
ATOM     20  N   UNL     1       4.061   2.631  17.689  0.00  0.00    +0.000 N 
ATOM     21  C   UNL     1       5.035   3.481  18.164  0.00  0.00    +0.000 C 
ATOM     22  O   UNL     1       5.477   3.471  19.309  0.00  0.00    +0.000 OA
ATOM     23  H   UNL     1       4.066   2.474  16.686  0.00  0.00    +0.000 HD
BRANCH  20  24
ATOM     24  C   UNL     1       3.653   1.449  18.430  0.00  0.00    +0.000 C 
BRANCH  24  25
ATOM     25  C   UNL     1       2.442   1.749  19.307  0.00  0.00    +0.000 C 
BRANCH  25  27
ATOM     26  C   UNL     1       0.373   2.879  19.265  0.00  0.00    +0.000 C 
ATOM     27  O   UNL     1       1.355   2.202  18.489  0.00  0.00    +0.000 OA
ENDBRANCH  25  27
ENDBRANCH  24  25
ENDBRANCH  20  24
ENDBRANCH  19  21
ENDBRANCH   1  19
TORSDOF 9
ENDMDL
MODEL 9
REMARK VINA RESULT:      -7.0      1.320      1.825
REMARK  Name = 
REMARK  11 active torsions:
REMARK  status: ('A' for Active; 'I' for Inactive)
REMARK    1  A    between atoms: C_1  and  O_2
REMARK    2  A    between atoms: O_2  and  C_3
REMARK    3  A    between atoms: C_3  and  C_4
REMARK    4  A    between atoms: C_4  and  N_5
REMARK    5  A    between atoms: C_6  and  C_8
REMARK    6  A    between atoms: C_8  and  C_9
REMARK    7  A    between atoms: C_9  and  N_10
REMARK    8  A    between atoms: C_9  and  C_21
REMARK    9  A    between atoms: N_10  and  S_11
REMARK   10  A    between atoms: S_11  and  C_14
REMARK   11  A    between atoms: C_17  and  C_18
REMARK                            x       y       z     vdW  Elec       q    Type
REMARK                         _______ _______ _______ _____ _____    ______ ____
ROOT
ATOM      1  C   UNL     1       5.147   4.985  17.368  0.00  0.00    +0.000 C 
ENDROOT
BRANCH   1   2
ATOM      2  C   UNL     1       6.348   5.697  17.961  0.00  0.00    +0.000 A 
ATOM      3  C   UNL     1       7.016   6.862  17.626  0.00  0.00    +0.000 A 
ATOM      4  C   UNL     1       8.105   6.977  18.520  0.00  0.00    +0.000 A 
ATOM      5  C   UNL     1       8.044   5.872  19.338  0.00  0.00    +0.000 A 
ATOM      6  O   UNL     1       6.987   5.085  19.000  0.00  0.00    +0.000 OA
ENDBRANCH   1   2
BRANCH   1   7
ATOM      7  N   UNL     1       4.438   4.458  18.553  0.00  0.00    +0.000 NA
ATOM      8  H   UNL     1       4.870   4.684  19.452  0.00  0.00    +0.000 HD
BRANCH   7   9
ATOM      9  S   UNL     1       2.774   4.395  18.741  0.00  0.00    +0.000 S 
ATOM     10  O   UNL     1       2.187   4.023  17.476  0.00  0.00    +0.000 OA
ATOM     11  O   UNL     1       2.570   3.568  19.916  0.00  0.00    +0.000 OA
BRANCH   9  12
ATOM     12  C   UNL     1       2.235   6.022  19.180  0.00  0.00    +0.000 A 
ATOM     13  C   UNL     1       2.382   7.073  18.275  0.00  0.00    +0.000 A 
ATOM     14  C   UNL     1       1.975   8.357  18.632  0.00  0.00    +0.000 A 
ATOM     15  C   UNL     1       1.463   8.611  19.909  0.00  0.00    +0.000 A 
ATOM     16  C   UNL     1       1.075  10.006  20.301  0.00  0.00    +0.000 C 
ATOM     17  C   UNL     1       1.341   7.554  20.823  0.00  0.00    +0.000 A 
ATOM     18  C   UNL     1       1.712   6.255  20.456  0.00  0.00    +0.000 A 
ENDBRANCH   9  12
ENDBRANCH   7   9
ENDBRANCH   1   7
BRANCH   1  19
ATOM     19  C   UNL     1       5.657   3.938  16.385  0.00  0.00    +0.000 C 
BRANCH  19  21
ATOM     20  N   UNL     1       6.342   3.533  14.115  0.00  0.00    +0.000 N 
ATOM     21  C   UNL     1       5.853   4.476  14.991  0.00  0.00    +0.000 C 
ATOM     22  O   UNL     1       5.633   5.650  14.707  0.00  0.00    +0.000 OA
ATOM     23  H   UNL     1       6.114   2.569  14.336  0.00  0.00    +0.000 HD
BRANCH  20  24
ATOM     24  C   UNL     1       6.388   3.775  12.683  0.00  0.00    +0.000 C 
BRANCH  24  25
ATOM     25  C   UNL     1       5.348   2.931  11.955  0.00  0.00    +0.000 C 
BRANCH  25  27
ATOM     26  C   UNL     1       3.371   3.033  10.673  0.00  0.00    +0.000 C 
ATOM     27  O   UNL     1       4.385   3.787  11.326  0.00  0.00    +0.000 OA
ENDBRANCH  25  27
ENDBRANCH  24  25
ENDBRANCH  20  24
ENDBRANCH  19  21
ENDBRANCH   1  19
TORSDOF 9
ENDMDL
