MODEL 1
REMARK VINA RESULT:      -7.4      0.000      0.000
REMARK  Name = 
REMARK  6 active torsions:
REMARK  status: ('A' for Active; 'I' for Inactive)
REMARK    1  A    between atoms: C_1  and  C_2
REMARK    2  A    between atoms: C_2  and  O_3
REMARK    3  A    between atoms: O_3  and  C_4
REMARK    4  A    between atoms: C_4  and  C_6
REMARK    5  A    between atoms: N_9  and  C_10
REMARK    6  A    between atoms: C_18  and  O_19
REMARK                            x       y       z     vdW  Elec       q    Type
REMARK                         _______ _______ _______ _____ _____    ______ ____
ROOT
ATOM      1  C   UNL     1       5.720   5.340  15.657  0.00  0.00    +0.000 A 
ATOM      2  N   UNL     1       5.372   6.666  15.735  0.00  0.00    +0.000 NA
ATOM      3  N   UNL     1       4.404   6.791  16.628  0.00  0.00    +0.000 NA
ATOM      4  N   UNL     1       4.213   5.587  17.216  0.00  0.00    +0.000 N 
ATOM      5  C   UNL     1       4.953   4.615  16.553  0.00  0.00    +0.000 A 
ENDROOT
BRANCH   4   6
ATOM      6  C   UNL     1       3.383   5.469  18.353  0.00  0.00    +0.000 A 
ATOM      7  C   UNL     1       2.987   4.192  18.778  0.00  0.00    +0.000 A 
ATOM      8  C   UNL     1       2.163   4.060  19.894  0.00  0.00    +0.000 A 
ATOM      9 CL   UNL     1       1.735   2.490  20.451  0.00  0.00    +0.000 Cl
ATOM     10  C   UNL     1       1.692   5.183  20.567  0.00  0.00    +0.000 A 
ATOM     11  C   UNL     1       2.061   6.450  20.121  0.00  0.00    +0.000 A 
ATOM     12 CL   UNL     1       1.439   7.846  20.915  0.00  0.00    +0.000 Cl
ATOM     13  C   UNL     1       2.914   6.606  19.025  0.00  0.00    +0.000 A 
ENDBRANCH   4   6
BRANCH   1  14
ATOM     14  C   UNL     1       6.745   4.843  14.757  0.00  0.00    +0.000 C 
ATOM     15  O   UNL     1       7.824   5.394  14.568  0.00  0.00    +0.000 OA
BRANCH  14  16
ATOM     16  O   UNL     1       6.329   3.728  14.086  0.00  0.00    +0.000 OA
BRANCH  16  18
ATOM     17  C   UNL     1       5.255   3.209  12.016  0.00  0.00    +0.000 C 
ATOM     18  C   UNL     1       6.511   3.760  12.665  0.00  0.00    +0.000 C 
ENDBRANCH  16  18
ENDBRANCH  14  16
ENDBRANCH   1  14
BRANCH   5  19
ATOM     19  O   UNL     1       4.867   3.300  16.767  0.00  0.00    +0.000 OA
ATOM     20  H   UNL     1       4.678   2.835  15.932  0.00  0.00    +0.000 HD
ENDBRANCH   5  19
TORSDOF 5
ENDMDL
MODEL 2
REMARK VINA RESULT:      -7.3      0.377      2.112
REMARK  Name = 
REMARK  6 active torsions:
REMARK  status: ('A' for Active; 'I' for Inactive)
REMARK    1  A    between atoms: C_1  and  C_2
REMARK    2  A    between atoms: C_2  and  O_3
REMARK    3  A    between atoms: O_3  and  C_4
REMARK    4  A    between atoms: C_4  and  C_6
REMARK    5  A    between atoms: N_9  and  C_10
REMARK    6  A    between atoms: C_18  and  O_19
REMARK                            x       y       z     vdW  Elec       q    Type
REMARK                         _______ _______ _______ _____ _____    ______ ____
ROOT
ATOM      1  C   UNL     1       5.749   5.349  15.783  0.00  0.00    +0.000 A 
ATOM      2  N   UNL     1       5.361   6.666  15.835  0.00  0.00    +0.000 NA
ATOM      3  N   UNL     1       4.354   6.771  16.685  0.00  0.00    +0.000 NA
ATOM      4  N   UNL     1       4.171   5.566  17.275  0.00  0.00    +0.000 N 
ATOM      5  C   UNL     1       4.965   4.610  16.652  0.00  0.00    +0.000 A 
ENDROOT
BRANCH   4   6
ATOM      6  C   UNL     1       3.298   5.434  18.378  0.00  0.00    +0.000 A 
ATOM      7  C   UNL     1       2.885   6.586  19.063  0.00  0.00    +0.000 A 
ATOM      8  C   UNL     1       2.030   6.470  20.158  0.00  0.00    +0.000 A 
ATOM      9 CL   UNL     1       1.474   7.890  20.953  0.00  0.00    +0.000 Cl
ATOM     10  C   UNL     1       1.615   5.220  20.606  0.00  0.00    +0.000 A 
ATOM     11  C   UNL     1       2.054   4.076  19.941  0.00  0.00    +0.000 A 
ATOM     12 CL   UNL     1       1.587   2.524  20.523  0.00  0.00    +0.000 Cl
ATOM     13  C   UNL     1       2.884   4.170  18.822  0.00  0.00    +0.000 A 
ENDBRANCH   4   6
BRANCH   1  14
ATOM     14  C   UNL     1       6.823   4.874  14.930  0.00  0.00    +0.000 C 
ATOM     15  O   UNL     1       7.845   5.508  14.688  0.00  0.00    +0.000 OA
BRANCH  14  16
ATOM     16  O   UNL     1       6.523   3.666  14.367  0.00  0.00    +0.000 OA
BRANCH  16  18
ATOM     17  C   UNL     1       6.755   3.532  11.993  0.00  0.00    +0.000 C 
ATOM     18  C   UNL     1       5.782   3.725  13.142  0.00  0.00    +0.000 C 
ENDBRANCH  16  18
ENDBRANCH  14  16
ENDBRANCH   1  14
BRANCH   5  19
ATOM     19  O   UNL     1       4.906   3.295  16.874  0.00  0.00    +0.000 OA
ATOM     20  H   UNL     1       4.666   2.826  16.053  0.00  0.00    +0.000 HD
ENDBRANCH   5  19
TORSDOF 5
ENDMDL
MODEL 3
REMARK VINA RESULT:      -7.1      1.456      1.635
REMARK  Name = 
REMARK  6 active torsions:
REMARK  status: ('A' for Active; 'I' for Inactive)
REMARK    1  A    between atoms: C_1  and  C_2
REMARK    2  A    between atoms: C_2  and  O_3
REMARK    3  A    between atoms: O_3  and  C_4
REMARK    4  A    between atoms: C_4  and  C_6
REMARK    5  A    between atoms: N_9  and  C_10
REMARK    6  A    between atoms: C_18  and  O_19
REMARK                            x       y       z     vdW  Elec       q    Type
REMARK                         _______ _______ _______ _____ _____    ______ ____
ROOT
ATOM      1  C   UNL     1       6.348   4.831  16.828  0.00  0.00    +0.000 A 
ATOM      2  N   UNL     1       6.881   4.211  17.933  0.00  0.00    +0.000 NA
ATOM      3  N   UNL     1       6.057   4.392  18.950  0.00  0.00    +0.000 NA
ATOM      4  N   UNL     1       4.943   5.007  18.489  0.00  0.00    +0.000 N 
ATOM      5  C   UNL     1       5.133   5.400  17.169  0.00  0.00    +0.000 A 
ENDROOT
BRANCH   4   6
ATOM      6  C   UNL     1       3.803   5.140  19.314  0.00  0.00    +0.000 A 
ATOM      7  C   UNL     1       3.212   3.988  19.851  0.00  0.00    +0.000 A 
ATOM      8  C   UNL     1       2.083   4.103  20.660  0.00  0.00    +0.000 A 
ATOM      9 CL   UNL     1       1.401   2.693  21.371  0.00  0.00    +0.000 Cl
ATOM     10  C   UNL     1       1.509   5.347  20.907  0.00  0.00    +0.000 A 
ATOM     11  C   UNL     1       2.082   6.486  20.344  0.00  0.00    +0.000 A 
ATOM     12 CL   UNL     1       1.346   8.022  20.601  0.00  0.00    +0.000 Cl
ATOM     13  C   UNL     1       3.233   6.397  19.557  0.00  0.00    +0.000 A 
ENDBRANCH   4   6
BRANCH   1  14
ATOM     14  C   UNL     1       7.006   4.845  15.535  0.00  0.00    +0.000 C 
ATOM     15  O   UNL     1       7.744   5.745  15.146  0.00  0.00    +0.000 OA
BRANCH  14  16
ATOM     16  O   UNL     1       6.641   3.773  14.771  0.00  0.00    +0.000 OA
BRANCH  16  18
ATOM     17  C   UNL     1       6.138   3.414  12.463  0.00  0.00    +0.000 C 
ATOM     18  C   UNL     1       5.661   4.041  13.761  0.00  0.00    +0.000 C 
ENDBRANCH  16  18
ENDBRANCH  14  16
ENDBRANCH   1  14
BRANCH   5  19
ATOM     19  O   UNL     1       4.302   6.173  16.467  0.00  0.00    +0.000 OA
ATOM     20  H   UNL     1       3.611   6.539  17.049  0.00  0.00    +0.000 HD
ENDBRANCH   5  19
TORSDOF 5
ENDMDL
MODEL 4
REMARK VINA RESULT:      -7.1      1.454      2.615
REMARK  Name = 
REMARK  6 active torsions:
REMARK  status: ('A' for Active; 'I' for Inactive)
REMARK    1  A    between atoms: C_1  and  C_2
REMARK    2  A    between atoms: C_2  and  O_3
REMARK    3  A    between atoms: O_3  and  C_4
REMARK    4  A    between atoms: C_4  and  C_6
REMARK    5  A    between atoms: N_9  and  C_10
REMARK    6  A    between atoms: C_18  and  O_19
REMARK                            x       y       z     vdW  Elec       q    Type
REMARK                         _______ _______ _______ _____ _____    ______ ____
ROOT
ATOM      1  C   UNL     1       6.358   4.842  16.846  0.00  0.00    +0.000 A 
ATOM      2  N   UNL     1       6.907   4.266  17.966  0.00  0.00    +0.000 NA
ATOM      3  N   UNL     1       6.066   4.429  18.973  0.00  0.00    +0.000 NA
ATOM      4  N   UNL     1       4.931   4.987  18.491  0.00  0.00    +0.000 N 
ATOM      5  C   UNL     1       5.117   5.364  17.166  0.00  0.00    +0.000 A 
ENDROOT
BRANCH   4   6
ATOM      6  C   UNL     1       3.780   5.087  19.303  0.00  0.00    +0.000 A 
ATOM      7  C   UNL     1       3.223   6.352  19.545  0.00  0.00    +0.000 A 
ATOM      8  C   UNL     1       2.092   6.466  20.351  0.00  0.00    +0.000 A 
ATOM      9 CL   UNL     1       1.374   8.011  20.589  0.00  0.00    +0.000 Cl
ATOM     10  C   UNL     1       1.532   5.344  20.954  0.00  0.00    +0.000 A 
ATOM     11  C   UNL     1       2.109   4.094  20.738  0.00  0.00    +0.000 A 
ATOM     12 CL   UNL     1       1.454   2.709  21.525  0.00  0.00    +0.000 Cl
ATOM     13  C   UNL     1       3.223   3.951  19.907  0.00  0.00    +0.000 A 
ENDBRANCH   4   6
BRANCH   1  14
ATOM     14  C   UNL     1       7.027   4.861  15.558  0.00  0.00    +0.000 C 
ATOM     15  O   UNL     1       7.744   5.777  15.166  0.00  0.00    +0.000 OA
BRANCH  14  16
ATOM     16  O   UNL     1       6.699   3.771  14.803  0.00  0.00    +0.000 OA
BRANCH  16  18
ATOM     17  C   UNL     1       6.371   3.541  12.448  0.00  0.00    +0.000 C 
ATOM     18  C   UNL     1       5.755   4.011  13.753  0.00  0.00    +0.000 C 
ENDBRANCH  16  18
ENDBRANCH  14  16
ENDBRANCH   1  14
BRANCH   5  19
ATOM     19  O   UNL     1       4.261   6.089  16.442  0.00  0.00    +0.000 OA
ATOM     20  H   UNL     1       3.539   5.524  16.111  0.00  0.00    +0.000 HD
ENDBRANCH   5  19
TORSDOF 5
ENDMDL
MODEL 5
REMARK VINA RESULT:      -7.0      3.755      6.708
REMARK  Name = 
REMARK  6 active torsions:
REMARK  status: ('A' for Active; 'I' for Inactive)
REMARK    1  A    between atoms: C_1  and  C_2
REMARK    2  A    between atoms: C_2  and  O_3
REMARK    3  A    between atoms: O_3  and  C_4
REMARK    4  A    between atoms: C_4  and  C_6
REMARK    5  A    between atoms: N_9  and  C_10
REMARK    6  A    between atoms: C_18  and  O_19
REMARK                            x       y       z     vdW  Elec       q    Type
REMARK                         _______ _______ _______ _____ _____    ______ ____
ROOT
ATOM      1  C   UNL     1       2.182   2.965  18.460  0.00  0.00    +0.000 A 
ATOM      2  N   UNL     1       2.958   1.852  18.246  0.00  0.00    +0.000 NA
ATOM      3  N   UNL     1       4.040   2.219  17.581  0.00  0.00    +0.000 NA
ATOM      4  N   UNL     1       4.033   3.569  17.475  0.00  0.00    +0.000 N 
ATOM      5  C   UNL     1       2.818   4.072  17.925  0.00  0.00    +0.000 A 
ENDROOT
BRANCH   4   6
ATOM      6  C   UNL     1       5.170   4.256  16.993  0.00  0.00    +0.000 A 
ATOM      7  C   UNL     1       5.887   5.086  17.868  0.00  0.00    +0.000 A 
ATOM      8  C   UNL     1       7.006   5.775  17.405  0.00  0.00    +0.000 A 
ATOM      9 CL   UNL     1       7.920   6.739  18.498  0.00  0.00    +0.000 Cl
ATOM     10  C   UNL     1       7.397   5.684  16.072  0.00  0.00    +0.000 A 
ATOM     11  C   UNL     1       6.661   4.884  15.200  0.00  0.00    +0.000 A 
ATOM     12 CL   UNL     1       7.107   4.808  13.537  0.00  0.00    +0.000 Cl
ATOM     13  C   UNL     1       5.556   4.157  15.650  0.00  0.00    +0.000 A 
ENDBRANCH   4   6
BRANCH   1  14
ATOM     14  C   UNL     1       0.906   2.919  19.150  0.00  0.00    +0.000 C 
ATOM     15  O   UNL     1       0.006   2.127  18.886  0.00  0.00    +0.000 OA
BRANCH  14  16
ATOM     16  O   UNL     1       0.797   3.916  20.077  0.00  0.00    +0.000 OA
BRANCH  16  18
ATOM     17  C   UNL     1       1.611   2.572  21.876  0.00  0.00    +0.000 C 
ATOM     18  C   UNL     1       1.766   3.885  21.132  0.00  0.00    +0.000 C 
ENDBRANCH  16  18
ENDBRANCH  14  16
ENDBRANCH   1  14
BRANCH   5  19
ATOM     19  O   UNL     1       2.417   5.339  17.808  0.00  0.00    +0.000 OA
ATOM     20  H   UNL     1       2.843   5.892  18.488  0.00  0.00    +0.000 HD
ENDBRANCH   5  19
TORSDOF 5
ENDMDL
MODEL 6
REMARK VINA RESULT:      -7.0      3.722      6.562
REMARK  Name = 
REMARK  6 active torsions:
REMARK  status: ('A' for Active; 'I' for Inactive)
REMARK    1  A    between atoms: C_1  and  C_2
REMARK    2  A    between atoms: C_2  and  O_3
REMARK    3  A    between atoms: O_3  and  C_4
REMARK    4  A    between atoms: C_4  and  C_6
REMARK    5  A    between atoms: N_9  and  C_10
REMARK    6  A    between atoms: C_18  and  O_19
REMARK                            x       y       z     vdW  Elec       q    Type
REMARK                         _______ _______ _______ _____ _____    ______ ____
ROOT
ATOM      1  C   UNL     1       2.041   3.426  18.427  0.00  0.00    +0.000 A 
ATOM      2  N   UNL     1       1.620   4.704  18.145  0.00  0.00    +0.000 NA
ATOM      3  N   UNL     1       2.659   5.401  17.721  0.00  0.00    +0.000 NA
ATOM      4  N   UNL     1       3.714   4.561  17.605  0.00  0.00    +0.000 N 
ATOM      5  C   UNL     1       3.392   3.321  18.146  0.00  0.00    +0.000 A 
ENDROOT
BRANCH   4   6
ATOM      6  C   UNL     1       4.905   4.988  16.976  0.00  0.00    +0.000 A 
ATOM      7  C   UNL     1       5.680   5.984  17.589  0.00  0.00    +0.000 A 
ATOM      8  C   UNL     1       6.854   6.421  16.976  0.00  0.00    +0.000 A 
ATOM      9 CL   UNL     1       7.835   7.594  17.764  0.00  0.00    +0.000 Cl
ATOM     10  C   UNL     1       7.244   5.911  15.742  0.00  0.00    +0.000 A 
ATOM     11  C   UNL     1       6.453   4.945  15.122  0.00  0.00    +0.000 A 
ATOM     12 CL   UNL     1       6.901   4.349  13.570  0.00  0.00    +0.000 Cl
ATOM     13  C   UNL     1       5.291   4.468  15.733  0.00  0.00    +0.000 A 
ENDBRANCH   4   6
BRANCH   1  14
ATOM     14  C   UNL     1       1.155   2.395  18.934  0.00  0.00    +0.000 C 
ATOM     15  O   UNL     1       0.138   2.015  18.361  0.00  0.00    +0.000 OA
BRANCH  14  16
ATOM     16  O   UNL     1       1.547   1.953  20.165  0.00  0.00    +0.000 OA
BRANCH  16  18
ATOM     17  C   UNL     1       2.439   3.417  21.829  0.00  0.00    +0.000 C 
ATOM     18  C   UNL     1       1.176   2.789  21.268  0.00  0.00    +0.000 C 
ENDBRANCH  16  18
ENDBRANCH  14  16
ENDBRANCH   1  14
BRANCH   5  19
ATOM     19  O   UNL     1       4.251   2.320  18.344  0.00  0.00    +0.000 OA
ATOM     20  H   UNL     1       5.141   2.671  18.531  0.00  0.00    +0.000 HD
ENDBRANCH   5  19
TORSDOF 5
ENDMDL
MODEL 7
REMARK VINA RESULT:      -6.9      3.739      6.323
REMARK  Name = 
REMARK  6 active torsions:
REMARK  status: ('A' for Active; 'I' for Inactive)
REMARK    1  A    between atoms: C_1  and  C_2
REMARK    2  A    between atoms: C_2  and  O_3
REMARK    3  A    between atoms: O_3  and  C_4
REMARK    4  A    between atoms: C_4  and  C_6
REMARK    5  A    between atoms: N_9  and  C_10
REMARK    6  A    between atoms: C_18  and  O_19
REMARK                            x       y       z     vdW  Elec       q    Type
REMARK                         _______ _______ _______ _____ _____    ______ ____
ROOT
ATOM      1  C   UNL     1       2.023   3.442  18.397  0.00  0.00    +0.000 A 
ATOM      2  N   UNL     1       1.567   4.687  18.037  0.00  0.00    +0.000 NA
ATOM      3  N   UNL     1       2.602   5.419  17.663  0.00  0.00    +0.000 NA
ATOM      4  N   UNL     1       3.700   4.626  17.656  0.00  0.00    +0.000 N 
ATOM      5  C   UNL     1       3.395   3.392  18.219  0.00  0.00    +0.000 A 
ENDROOT
BRANCH   4   6
ATOM      6  C   UNL     1       4.913   5.088  17.098  0.00  0.00    +0.000 A 
ATOM      7  C   UNL     1       5.302   4.624  15.833  0.00  0.00    +0.000 A 
ATOM      8  C   UNL     1       6.500   5.065  15.274  0.00  0.00    +0.000 A 
ATOM      9 CL   UNL     1       6.940   4.546  13.694  0.00  0.00    +0.000 Cl
ATOM     10  C   UNL     1       7.338   5.927  15.975  0.00  0.00    +0.000 A 
ATOM     11  C   UNL     1       6.962   6.359  17.246  0.00  0.00    +0.000 A 
ATOM     12 CL   UNL     1       8.019   7.383  18.142  0.00  0.00    +0.000 Cl
ATOM     13  C   UNL     1       5.750   5.957  17.812  0.00  0.00    +0.000 A 
ENDBRANCH   4   6
BRANCH   1  14
ATOM     14  C   UNL     1       1.150   2.388  18.878  0.00  0.00    +0.000 C 
ATOM     15  O   UNL     1       0.173   1.967  18.265  0.00  0.00    +0.000 OA
BRANCH  14  16
ATOM     16  O   UNL     1       1.500   1.975  20.132  0.00  0.00    +0.000 OA
BRANCH  16  18
ATOM     17  C   UNL     1       2.369   3.377  21.860  0.00  0.00    +0.000 C 
ATOM     18  C   UNL     1       1.110   2.847  21.200  0.00  0.00    +0.000 C 
ENDBRANCH  16  18
ENDBRANCH  14  16
ENDBRANCH   1  14
BRANCH   5  19
ATOM     19  O   UNL     1       4.281   2.440  18.516  0.00  0.00    +0.000 OA
ATOM     20  H   UNL     1       5.174   2.824  18.594  0.00  0.00    +0.000 HD
ENDBRANCH   5  19
TORSDOF 5
ENDMDL
MODEL 8
REMARK VINA RESULT:      -6.9      3.801      6.541
REMARK  Name = 
REMARK  6 active torsions:
REMARK  status: ('A' for Active; 'I' for Inactive)
REMARK    1  A    between atoms: C_1  and  C_2
REMARK    2  A    between atoms: C_2  and  O_3
REMARK    3  A    between atoms: O_3  and  C_4
REMARK    4  A    between atoms: C_4  and  C_6
REMARK    5  A    between atoms: N_9  and  C_10
REMARK    6  A    between atoms: C_18  and  O_19
REMARK                            x       y       z     vdW  Elec       q    Type
REMARK                         _______ _______ _______ _____ _____    ______ ____
ROOT
ATOM      1  C   UNL     1       2.174   2.729  18.313  0.00  0.00    +0.000 A 
ATOM      2  N   UNL     1       3.031   1.669  18.141  0.00  0.00    +0.000 NA
ATOM      3  N   UNL     1       4.134   2.114  17.563  0.00  0.00    +0.000 NA
ATOM      4  N   UNL     1       4.052   3.462  17.477  0.00  0.00    +0.000 N 
ATOM      5  C   UNL     1       2.778   3.882  17.844  0.00  0.00    +0.000 A 
ENDROOT
BRANCH   4   6
ATOM      6  C   UNL     1       5.176   4.225  17.091  0.00  0.00    +0.000 A 
ATOM      7  C   UNL     1       5.586   4.205  15.750  0.00  0.00    +0.000 A 
ATOM      8  C   UNL     1       6.698   4.947  15.355  0.00  0.00    +0.000 A 
ATOM      9 CL   UNL     1       7.156   4.972  13.697  0.00  0.00    +0.000 Cl
ATOM     10  C   UNL     1       7.434   5.675  16.286  0.00  0.00    +0.000 A 
ATOM     11  C   UNL     1       7.042   5.665  17.623  0.00  0.00    +0.000 A 
ATOM     12 CL   UNL     1       7.979   6.520  18.788  0.00  0.00    +0.000 Cl
ATOM     13  C   UNL     1       5.911   4.956  18.035  0.00  0.00    +0.000 A 
ENDBRANCH   4   6
BRANCH   1  14
ATOM     14  C   UNL     1       0.857   2.592  18.906  0.00  0.00    +0.000 C 
ATOM     15  O   UNL     1      -0.038   1.889  18.447  0.00  0.00    +0.000 OA
BRANCH  14  16
ATOM     16  O   UNL     1       0.706   3.404  19.994  0.00  0.00    +0.000 OA
BRANCH  16  18
ATOM     17  C   UNL     1       2.346   3.967  21.638  0.00  0.00    +0.000 C 
ATOM     18  C   UNL     1       1.320   2.937  21.201  0.00  0.00    +0.000 C 
ENDBRANCH  16  18
ENDBRANCH  14  16
ENDBRANCH   1  14
BRANCH   5  19
ATOM     19  O   UNL     1       2.309   5.125  17.715  0.00  0.00    +0.000 OA
ATOM     20  H   UNL     1       2.819   5.608  17.039  0.00  0.00    +0.000 HD
ENDBRANCH   5  19
TORSDOF 5
ENDMDL
MODEL 9
REMARK VINA RESULT:      -6.8      1.625      2.011
REMARK  Name = 
REMARK  6 active torsions:
REMARK  status: ('A' for Active; 'I' for Inactive)
REMARK    1  A    between atoms: C_1  and  C_2
REMARK    2  A    between atoms: C_2  and  O_3
REMARK    3  A    between atoms: O_3  and  C_4
REMARK    4  A    between atoms: C_4  and  C_6
REMARK    5  A    between atoms: N_9  and  C_10
REMARK    6  A    between atoms: C_18  and  O_19
REMARK                            x       y       z     vdW  Elec       q    Type
REMARK                         _______ _______ _______ _____ _____    ______ ____
ROOT
ATOM      1  C   UNL     1       6.080   4.728  15.320  0.00  0.00    +0.000 A 
ATOM      2  N   UNL     1       5.351   3.626  15.698  0.00  0.00    +0.000 NA
ATOM      3  N   UNL     1       4.573   3.968  16.710  0.00  0.00    +0.000 NA
ATOM      4  N   UNL     1       4.697   5.302  16.906  0.00  0.00    +0.000 N 
ATOM      5  C   UNL     1       5.725   5.803  16.116  0.00  0.00    +0.000 A 
ENDROOT
BRANCH   4   6
ATOM      6  C   UNL     1       3.826   5.980  17.788  0.00  0.00    +0.000 A 
ATOM      7  C   UNL     1       3.322   5.299  18.907  0.00  0.00    +0.000 A 
ATOM      8  C   UNL     1       2.456   5.953  19.782  0.00  0.00    +0.000 A 
ATOM      9 CL   UNL     1       1.895   5.135  21.187  0.00  0.00    +0.000 Cl
ATOM     10  C   UNL     1       2.050   7.261  19.535  0.00  0.00    +0.000 A 
ATOM     11  C   UNL     1       2.528   7.922  18.405  0.00  0.00    +0.000 A 
ATOM     12 CL   UNL     1       1.987   9.521  18.065  0.00  0.00    +0.000 Cl
ATOM     13  C   UNL     1       3.423   7.298  17.533  0.00  0.00    +0.000 A 
ENDBRANCH   4   6
BRANCH   1  14
ATOM     14  C   UNL     1       7.053   4.701  14.243  0.00  0.00    +0.000 C 
ATOM     15  O   UNL     1       7.846   5.607  14.006  0.00  0.00    +0.000 OA
BRANCH  14  16
ATOM     16  O   UNL     1       6.926   3.578  13.476  0.00  0.00    +0.000 OA
BRANCH  16  18
ATOM     17  C   UNL     1       5.131   3.268  11.931  0.00  0.00    +0.000 C 
ATOM     18  C   UNL     1       6.540   3.802  12.115  0.00  0.00    +0.000 C 
ENDBRANCH  16  18
ENDBRANCH  14  16
ENDBRANCH   1  14
BRANCH   5  19
ATOM     19  O   UNL     1       6.219   7.040  16.187  0.00  0.00    +0.000 OA
ATOM     20  H   UNL     1       5.545   7.688  15.914  0.00  0.00    +0.000 HD
ENDBRANCH   5  19
TORSDOF 5
ENDMDL
