MODEL 1
REMARK VINA RESULT:      -9.1      0.000      0.000
REMARK  Name = 
REMARK  6 active torsions:
REMARK  status: ('A' for Active; 'I' for Inactive)
REMARK    1  A    between atoms: C_2  and  C_23
REMARK    2  A    between atoms: N_3  and  C_4
REMARK    3  A    between atoms: C_7  and  S_8
REMARK    4  A    between atoms: S_8  and  N_11
REMARK    5  A    between atoms: N_11  and  C_12
REMARK    6  A    between atoms: C_16  and  O_17
REMARK                            x       y       z     vdW  Elec       q    Type
REMARK                         _______ _______ _______ _____ _____    ______ ____
ROOT
ATOM      1  C   UNL     1       7.932   7.493  18.253  0.00  0.00    +0.000 A 
ATOM      2  C   UNL     1       7.067   7.715  17.180  0.00  0.00    +0.000 A 
ATOM      3  C   UNL     1       6.295   6.678  16.654  0.00  0.00    +0.000 A 
ATOM      4  C   UNL     1       6.408   5.395  17.183  0.00  0.00    +0.000 A 
ATOM      5  C   UNL     1       7.272   5.148  18.254  0.00  0.00    +0.000 A 
ATOM      6  C   UNL     1       8.044   6.196  18.777  0.00  0.00    +0.000 A 
ENDROOT
BRANCH   1   9
ATOM      7  O   UNL     1       8.073  10.346  17.531  0.00  0.00    +0.000 OA
ATOM      8  C   UNL     1       8.740   9.844  18.428  0.00  0.00    +0.000 C 
ATOM      9  N   UNL     1       8.702   8.521  18.843  0.00  0.00    +0.000 N 
ATOM     10  H   UNL     1       9.150   8.300  19.723  0.00  0.00    +0.000 HD
BRANCH   8  11
ATOM     11  C   UNL     1       9.637  10.737  19.208  0.00  0.00    +0.000 A 
ATOM     12  C   UNL     1      10.827  11.170  18.606  0.00  0.00    +0.000 A 
ATOM     13  C   UNL     1      11.696  12.014  19.296  0.00  0.00    +0.000 A 
ATOM     14  C   UNL     1      11.385  12.419  20.593  0.00  0.00    +0.000 A 
ATOM     15  C   UNL     1      10.215  11.969  21.208  0.00  0.00    +0.000 A 
ATOM     16  C   UNL     1       9.341  11.123  20.521  0.00  0.00    +0.000 A 
ENDBRANCH   8  11
ENDBRANCH   1   9
BRANCH   4  17
ATOM     17  S   UNL     1       5.390   4.095  16.516  0.00  0.00    +0.000 S 
ATOM     18  O   UNL     1       4.100   4.676  16.207  0.00  0.00    +0.000 OA
ATOM     19  O   UNL     1       6.160   3.385  15.522  0.00  0.00    +0.000 OA
BRANCH  17  20
ATOM     20  N   UNL     1       5.133   3.076  17.839  0.00  0.00    +0.000 N 
ATOM     21  H   UNL     1       5.597   2.177  17.741  0.00  0.00    +0.000 HD
BRANCH  20  22
ATOM     22  C   UNL     1       3.912   3.150  18.559  0.00  0.00    +0.000 A 
ATOM     23  C   UNL     1       2.835   2.353  18.168  0.00  0.00    +0.000 A 
ATOM     24  C   UNL     1       1.631   2.457  18.855  0.00  0.00    +0.000 A 
ATOM     25  F   UNL     1       0.586   1.709  18.471  0.00  0.00    +0.000 F 
ATOM     26  C   UNL     1       1.491   3.322  19.934  0.00  0.00    +0.000 A 
ATOM     27  C   UNL     1       2.572   4.109  20.316  0.00  0.00    +0.000 A 
ATOM     28  F   UNL     1       2.467   4.942  21.361  0.00  0.00    +0.000 F 
ATOM     29  C   UNL     1       3.782   4.039  19.626  0.00  0.00    +0.000 A 
BRANCH  26  30
ATOM     30  O   UNL     1       0.308   3.405  20.611  0.00  0.00    +0.000 OA
ATOM     31  H   UNL     1      -0.393   3.601  19.961  0.00  0.00    +0.000 HD
ENDBRANCH  26  30
ENDBRANCH  20  22
ENDBRANCH  17  20
ENDBRANCH   4  17
TORSDOF 6
ENDMDL
MODEL 2
REMARK VINA RESULT:      -9.0      0.161      2.028
REMARK  Name = 
REMARK  6 active torsions:
REMARK  status: ('A' for Active; 'I' for Inactive)
REMARK    1  A    between atoms: C_2  and  C_23
REMARK    2  A    between atoms: N_3  and  C_4
REMARK    3  A    between atoms: C_7  and  S_8
REMARK    4  A    between atoms: S_8  and  N_11
REMARK    5  A    between atoms: N_11  and  C_12
REMARK    6  A    between atoms: C_16  and  O_17
REMARK                            x       y       z     vdW  Elec       q    Type
REMARK                         _______ _______ _______ _____ _____    ______ ____
ROOT
ATOM      1  C   UNL     1       8.015   7.482  18.309  0.00  0.00    +0.000 A 
ATOM      2  C   UNL     1       8.043   6.188  18.833  0.00  0.00    +0.000 A 
ATOM      3  C   UNL     1       7.239   5.181  18.299  0.00  0.00    +0.000 A 
ATOM      4  C   UNL     1       6.370   5.471  17.251  0.00  0.00    +0.000 A 
ATOM      5  C   UNL     1       6.321   6.761  16.714  0.00  0.00    +0.000 A 
ATOM      6  C   UNL     1       7.134   7.768  17.255  0.00  0.00    +0.000 A 
ENDROOT
BRANCH   1   9
ATOM      7  O   UNL     1       7.814  10.381  17.819  0.00  0.00    +0.000 OA
ATOM      8  C   UNL     1       8.703   9.871  18.492  0.00  0.00    +0.000 C 
ATOM      9  N   UNL     1       8.841   8.523  18.790  0.00  0.00    +0.000 N 
ATOM     10  H   UNL     1       9.497   8.277  19.521  0.00  0.00    +0.000 HD
BRANCH   8  11
ATOM     11  C   UNL     1       9.705  10.774  19.116  0.00  0.00    +0.000 A 
ATOM     12  C   UNL     1       9.401  11.339  20.363  0.00  0.00    +0.000 A 
ATOM     13  C   UNL     1      10.313  12.187  20.991  0.00  0.00    +0.000 A 
ATOM     14  C   UNL     1      11.526  12.482  20.370  0.00  0.00    +0.000 A 
ATOM     15  C   UNL     1      11.822  11.945  19.116  0.00  0.00    +0.000 A 
ATOM     16  C   UNL     1      10.912  11.095  18.483  0.00  0.00    +0.000 A 
ENDBRANCH   8  11
ENDBRANCH   1   9
BRANCH   4  17
ATOM     17  S   UNL     1       5.377   4.161  16.566  0.00  0.00    +0.000 S 
ATOM     18  O   UNL     1       4.092   4.732  16.220  0.00  0.00    +0.000 OA
ATOM     19  O   UNL     1       6.177   3.450  15.597  0.00  0.00    +0.000 OA
BRANCH  17  20
ATOM     20  N   UNL     1       5.093   3.149  17.889  0.00  0.00    +0.000 N 
ATOM     21  H   UNL     1       5.572   2.256  17.813  0.00  0.00    +0.000 HD
BRANCH  20  22
ATOM     22  C   UNL     1       3.848   3.212  18.569  0.00  0.00    +0.000 A 
ATOM     23  C   UNL     1       3.722   4.024  19.697  0.00  0.00    +0.000 A 
ATOM     24  C   UNL     1       2.511   4.052  20.379  0.00  0.00    +0.000 A 
ATOM     25  F   UNL     1       2.389   4.814  21.476  0.00  0.00    +0.000 F 
ATOM     26  C   UNL     1       1.423   3.305  19.943  0.00  0.00    +0.000 A 
ATOM     27  C   UNL     1       1.559   2.503  18.816  0.00  0.00    +0.000 A 
ATOM     28  F   UNL     1       0.521   1.782  18.368  0.00  0.00    +0.000 F 
ATOM     29  C   UNL     1       2.773   2.440  18.131  0.00  0.00    +0.000 A 
BRANCH  26  30
ATOM     30  O   UNL     1       0.233   3.353  20.612  0.00  0.00    +0.000 OA
ATOM     31  H   UNL     1       0.430   3.358  21.567  0.00  0.00    +0.000 HD
ENDBRANCH  26  30
ENDBRANCH  20  22
ENDBRANCH  17  20
ENDBRANCH   4  17
TORSDOF 6
ENDMDL
MODEL 3
REMARK VINA RESULT:      -9.0      0.162      1.302
REMARK  Name = 
REMARK  6 active torsions:
REMARK  status: ('A' for Active; 'I' for Inactive)
REMARK    1  A    between atoms: C_2  and  C_23
REMARK    2  A    between atoms: N_3  and  C_4
REMARK    3  A    between atoms: C_7  and  S_8
REMARK    4  A    between atoms: S_8  and  N_11
REMARK    5  A    between atoms: N_11  and  C_12
REMARK    6  A    between atoms: C_16  and  O_17
REMARK                            x       y       z     vdW  Elec       q    Type
REMARK                         _______ _______ _______ _____ _____    ______ ____
ROOT
ATOM      1  C   UNL     1       7.952   7.577  18.409  0.00  0.00    +0.000 A 
ATOM      2  C   UNL     1       8.046   6.262  18.871  0.00  0.00    +0.000 A 
ATOM      3  C   UNL     1       7.266   5.248  18.313  0.00  0.00    +0.000 A 
ATOM      4  C   UNL     1       6.356   5.552  17.304  0.00  0.00    +0.000 A 
ATOM      5  C   UNL     1       6.240   6.861  16.830  0.00  0.00    +0.000 A 
ATOM      6  C   UNL     1       7.029   7.875  17.394  0.00  0.00    +0.000 A 
ENDROOT
BRANCH   1   9
ATOM      7  O   UNL     1       8.160  10.362  17.470  0.00  0.00    +0.000 OA
ATOM      8  C   UNL     1       8.820   9.913  18.400  0.00  0.00    +0.000 C 
ATOM      9  N   UNL     1       8.750   8.627  18.916  0.00  0.00    +0.000 N 
ATOM     10  H   UNL     1       9.197   8.463  19.809  0.00  0.00    +0.000 HD
BRANCH   8  11
ATOM     11  C   UNL     1       9.743  10.840  19.106  0.00  0.00    +0.000 A 
ATOM     12  C   UNL     1       9.427  11.216  20.419  0.00  0.00    +0.000 A 
ATOM     13  C   UNL     1      10.266  12.079  21.124  0.00  0.00    +0.000 A 
ATOM     14  C   UNL     1      11.418  12.576  20.515  0.00  0.00    +0.000 A 
ATOM     15  C   UNL     1      11.722  12.227  19.198  0.00  0.00    +0.000 A 
ATOM     16  C   UNL     1      10.885  11.364  18.488  0.00  0.00    +0.000 A 
ENDBRANCH   8  11
ENDBRANCH   1   9
BRANCH   4  17
ATOM     17  S   UNL     1       5.395   4.235  16.586  0.00  0.00    +0.000 S 
ATOM     18  O   UNL     1       4.089   4.777  16.274  0.00  0.00    +0.000 OA
ATOM     19  O   UNL     1       6.205   3.582  15.584  0.00  0.00    +0.000 OA
BRANCH  17  20
ATOM     20  N   UNL     1       5.158   3.171  17.877  0.00  0.00    +0.000 N 
ATOM     21  H   UNL     1       5.638   2.283  17.750  0.00  0.00    +0.000 HD
BRANCH  20  22
ATOM     22  C   UNL     1       3.937   3.201  18.600  0.00  0.00    +0.000 A 
ATOM     23  C   UNL     1       2.911   2.321  18.252  0.00  0.00    +0.000 A 
ATOM     24  C   UNL     1       1.704   2.381  18.940  0.00  0.00    +0.000 A 
ATOM     25  F   UNL     1       0.707   1.553  18.597  0.00  0.00    +0.000 F 
ATOM     26  C   UNL     1       1.515   3.284  19.980  0.00  0.00    +0.000 A 
ATOM     27  C   UNL     1       2.545   4.153  20.320  0.00  0.00    +0.000 A 
ATOM     28  F   UNL     1       2.391   5.025  21.327  0.00  0.00    +0.000 F 
ATOM     29  C   UNL     1       3.755   4.127  19.626  0.00  0.00    +0.000 A 
BRANCH  26  30
ATOM     30  O   UNL     1       0.330   3.323  20.660  0.00  0.00    +0.000 OA
ATOM     31  H   UNL     1       0.039   4.253  20.694  0.00  0.00    +0.000 HD
ENDBRANCH  26  30
ENDBRANCH  20  22
ENDBRANCH  17  20
ENDBRANCH   4  17
TORSDOF 6
ENDMDL
MODEL 4
REMARK VINA RESULT:      -9.0      0.967      2.047
REMARK  Name = 
REMARK  6 active torsions:
REMARK  status: ('A' for Active; 'I' for Inactive)
REMARK    1  A    between atoms: C_2  and  C_23
REMARK    2  A    between atoms: N_3  and  C_4
REMARK    3  A    between atoms: C_7  and  S_8
REMARK    4  A    between atoms: S_8  and  N_11
REMARK    5  A    between atoms: N_11  and  C_12
REMARK    6  A    between atoms: C_16  and  O_17
REMARK                            x       y       z     vdW  Elec       q    Type
REMARK                         _______ _______ _______ _____ _____    ______ ____
ROOT
ATOM      1  C   UNL     1       7.984   7.683  18.320  0.00  0.00    +0.000 A 
ATOM      2  C   UNL     1       8.015   6.384  18.833  0.00  0.00    +0.000 A 
ATOM      3  C   UNL     1       7.139   5.405  18.361  0.00  0.00    +0.000 A 
ATOM      4  C   UNL     1       6.197   5.731  17.388  0.00  0.00    +0.000 A 
ATOM      5  C   UNL     1       6.144   7.026  16.864  0.00  0.00    +0.000 A 
ATOM      6  C   UNL     1       7.029   8.004  17.342  0.00  0.00    +0.000 A 
ENDROOT
BRANCH   1   9
ATOM      7  O   UNL     1       7.945  10.561  17.695  0.00  0.00    +0.000 OA
ATOM      8  C   UNL     1       8.814  10.032  18.377  0.00  0.00    +0.000 C 
ATOM      9  N   UNL     1       8.878   8.693  18.738  0.00  0.00    +0.000 N 
ATOM     10  H   UNL     1       9.532   8.444  19.469  0.00  0.00    +0.000 HD
BRANCH   8  11
ATOM     11  C   UNL     1       9.879  10.902  18.942  0.00  0.00    +0.000 A 
ATOM     12  C   UNL     1      10.925  11.301  18.097  0.00  0.00    +0.000 A 
ATOM     13  C   UNL     1      11.942  12.123  18.581  0.00  0.00    +0.000 A 
ATOM     14  C   UNL     1      11.924  12.539  19.912  0.00  0.00    +0.000 A 
ATOM     15  C   UNL     1      10.901  12.122  20.764  0.00  0.00    +0.000 A 
ATOM     16  C   UNL     1       9.879  11.298  20.284  0.00  0.00    +0.000 A 
ENDBRANCH   8  11
ENDBRANCH   1   9
BRANCH   4  17
ATOM     17  S   UNL     1       5.111   4.458  16.780  0.00  0.00    +0.000 S 
ATOM     18  O   UNL     1       5.229   4.445  15.337  0.00  0.00    +0.000 OA
ATOM     19  O   UNL     1       5.328   3.267  17.569  0.00  0.00    +0.000 OA
BRANCH  17  20
ATOM     20  N   UNL     1       3.569   5.061  17.114  0.00  0.00    +0.000 N 
ATOM     21  H   UNL     1       3.485   6.057  16.927  0.00  0.00    +0.000 HD
BRANCH  20  22
ATOM     22  C   UNL     1       2.798   4.485  18.158  0.00  0.00    +0.000 A 
ATOM     23  C   UNL     1       2.997   4.908  19.473  0.00  0.00    +0.000 A 
ATOM     24  C   UNL     1       2.265   4.315  20.494  0.00  0.00    +0.000 A 
ATOM     25  F   UNL     1       2.467   4.702  21.763  0.00  0.00    +0.000 F 
ATOM     26  C   UNL     1       1.325   3.327  20.224  0.00  0.00    +0.000 A 
ATOM     27  C   UNL     1       1.131   2.917  18.910  0.00  0.00    +0.000 A 
ATOM     28  F   UNL     1       0.222   1.975  18.621  0.00  0.00    +0.000 F 
ATOM     29  C   UNL     1       1.873   3.481  17.872  0.00  0.00    +0.000 A 
BRANCH  26  30
ATOM     30  O   UNL     1       0.599   2.762  21.234  0.00  0.00    +0.000 OA
ATOM     31  H   UNL     1       0.804   1.808  21.248  0.00  0.00    +0.000 HD
ENDBRANCH  26  30
ENDBRANCH  20  22
ENDBRANCH  17  20
ENDBRANCH   4  17
TORSDOF 6
ENDMDL
MODEL 5
REMARK VINA RESULT:      -8.6      1.944      2.343
REMARK  Name = 
REMARK  6 active torsions:
REMARK  status: ('A' for Active; 'I' for Inactive)
REMARK    1  A    between atoms: C_2  and  C_23
REMARK    2  A    between atoms: N_3  and  C_4
REMARK    3  A    between atoms: C_7  and  S_8
REMARK    4  A    between atoms: S_8  and  N_11
REMARK    5  A    between atoms: N_11  and  C_12
REMARK    6  A    between atoms: C_16  and  O_17
REMARK                            x       y       z     vdW  Elec       q    Type
REMARK                         _______ _______ _______ _____ _____    ______ ____
ROOT
ATOM      1  C   UNL     1       7.935   7.316  18.319  0.00  0.00    +0.000 A 
ATOM      2  C   UNL     1       7.332   7.276  17.060  0.00  0.00    +0.000 A 
ATOM      3  C   UNL     1       6.474   6.233  16.708  0.00  0.00    +0.000 A 
ATOM      4  C   UNL     1       6.239   5.197  17.609  0.00  0.00    +0.000 A 
ATOM      5  C   UNL     1       6.837   5.212  18.872  0.00  0.00    +0.000 A 
ATOM      6  C   UNL     1       7.696   6.266  19.219  0.00  0.00    +0.000 A 
ENDROOT
BRANCH   1   9
ATOM      7  O   UNL     1       7.721  10.193  17.723  0.00  0.00    +0.000 OA
ATOM      8  C   UNL     1       8.630   9.708  18.386  0.00  0.00    +0.000 C 
ATOM      9  N   UNL     1       8.777   8.373  18.733  0.00  0.00    +0.000 N 
ATOM     10  H   UNL     1       9.455   8.154  19.452  0.00  0.00    +0.000 HD
BRANCH   8  11
ATOM     11  C   UNL     1       9.653  10.633  18.943  0.00  0.00    +0.000 A 
ATOM     12  C   UNL     1      10.655  11.105  18.085  0.00  0.00    +0.000 A 
ATOM     13  C   UNL     1      11.632  11.980  18.561  0.00  0.00    +0.000 A 
ATOM     14  C   UNL     1      11.615  12.376  19.897  0.00  0.00    +0.000 A 
ATOM     15  C   UNL     1      10.636  11.887  20.763  0.00  0.00    +0.000 A 
ATOM     16  C   UNL     1       9.656  11.011  20.291  0.00  0.00    +0.000 A 
ENDBRANCH   8  11
ENDBRANCH   1   9
BRANCH   4  17
ATOM     17  S   UNL     1       5.117   3.894  17.148  0.00  0.00    +0.000 S 
ATOM     18  O   UNL     1       5.493   3.452  15.821  0.00  0.00    +0.000 OA
ATOM     19  O   UNL     1       5.021   2.971  18.255  0.00  0.00    +0.000 OA
BRANCH  17  20
ATOM     20  N   UNL     1       3.638   4.690  16.970  0.00  0.00    +0.000 N 
ATOM     21  H   UNL     1       3.458   4.980  16.012  0.00  0.00    +0.000 HD
BRANCH  20  22
ATOM     22  C   UNL     1       3.127   5.474  18.037  0.00  0.00    +0.000 A 
ATOM     23  C   UNL     1       2.813   4.861  19.251  0.00  0.00    +0.000 A 
ATOM     24  C   UNL     1       2.279   5.628  20.280  0.00  0.00    +0.000 A 
ATOM     25  F   UNL     1       1.955   5.041  21.442  0.00  0.00    +0.000 F 
ATOM     26  C   UNL     1       2.075   6.994  20.125  0.00  0.00    +0.000 A 
ATOM     27  C   UNL     1       2.395   7.595  18.913  0.00  0.00    +0.000 A 
ATOM     28  F   UNL     1       2.219   8.913  18.744  0.00  0.00    +0.000 F 
ATOM     29  C   UNL     1       2.908   6.840  17.859  0.00  0.00    +0.000 A 
BRANCH  26  30
ATOM     30  O   UNL     1       1.564   7.741  21.149  0.00  0.00    +0.000 OA
ATOM     31  H   UNL     1       0.843   8.289  20.785  0.00  0.00    +0.000 HD
ENDBRANCH  26  30
ENDBRANCH  20  22
ENDBRANCH  17  20
ENDBRANCH   4  17
TORSDOF 6
ENDMDL
MODEL 6
REMARK VINA RESULT:      -8.6      5.027      7.107
REMARK  Name = 
REMARK  6 active torsions:
REMARK  status: ('A' for Active; 'I' for Inactive)
REMARK    1  A    between atoms: C_2  and  C_23
REMARK    2  A    between atoms: N_3  and  C_4
REMARK    3  A    between atoms: C_7  and  S_8
REMARK    4  A    between atoms: S_8  and  N_11
REMARK    5  A    between atoms: N_11  and  C_12
REMARK    6  A    between atoms: C_16  and  O_17
REMARK                            x       y       z     vdW  Elec       q    Type
REMARK                         _______ _______ _______ _____ _____    ______ ____
ROOT
ATOM      1  C   UNL     1       1.826   7.502  19.729  0.00  0.00    +0.000 A 
ATOM      2  C   UNL     1       2.022   7.181  18.384  0.00  0.00    +0.000 A 
ATOM      3  C   UNL     1       2.300   5.870  17.994  0.00  0.00    +0.000 A 
ATOM      4  C   UNL     1       2.417   4.871  18.957  0.00  0.00    +0.000 A 
ATOM      5  C   UNL     1       2.230   5.171  20.309  0.00  0.00    +0.000 A 
ATOM      6  C   UNL     1       1.949   6.490  20.694  0.00  0.00    +0.000 A 
ENDROOT
BRANCH   1   9
ATOM      7  O   UNL     1      -0.468   8.395  21.348  0.00  0.00    +0.000 OA
ATOM      8  C   UNL     1       0.382   9.158  20.905  0.00  0.00    +0.000 C 
ATOM      9  N   UNL     1       1.502   8.806  20.166  0.00  0.00    +0.000 N 
ATOM     10  H   UNL     1       2.218   9.512  20.049  0.00  0.00    +0.000 HD
BRANCH   8  11
ATOM     11  C   UNL     1       0.258  10.602  21.238  0.00  0.00    +0.000 A 
ATOM     12  C   UNL     1       1.113  11.506  20.591  0.00  0.00    +0.000 A 
ATOM     13  C   UNL     1       1.029  12.870  20.866  0.00  0.00    +0.000 A 
ATOM     14  C   UNL     1       0.099  13.335  21.795  0.00  0.00    +0.000 A 
ATOM     15  C   UNL     1      -0.735  12.436  22.462  0.00  0.00    +0.000 A 
ATOM     16  C   UNL     1      -0.655  11.069  22.191  0.00  0.00    +0.000 A 
ENDBRANCH   8  11
ENDBRANCH   1   9
BRANCH   4  17
ATOM     17  S   UNL     1       2.741   3.201  18.430  0.00  0.00    +0.000 S 
ATOM     18  O   UNL     1       2.185   2.318  19.434  0.00  0.00    +0.000 OA
ATOM     19  O   UNL     1       2.377   3.090  17.037  0.00  0.00    +0.000 OA
BRANCH  17  20
ATOM     20  N   UNL     1       4.419   3.062  18.570  0.00  0.00    +0.000 N 
ATOM     21  H   UNL     1       4.706   2.577  19.417  0.00  0.00    +0.000 HD
BRANCH  20  22
ATOM     22  C   UNL     1       5.258   4.075  18.035  0.00  0.00    +0.000 A 
ATOM     23  C   UNL     1       5.257   4.311  16.660  0.00  0.00    +0.000 A 
ATOM     24  C   UNL     1       6.107   5.280  16.138  0.00  0.00    +0.000 A 
ATOM     25  F   UNL     1       6.127   5.497  14.815  0.00  0.00    +0.000 F 
ATOM     26  C   UNL     1       6.937   6.028  16.966  0.00  0.00    +0.000 A 
ATOM     27  C   UNL     1       6.925   5.787  18.335  0.00  0.00    +0.000 A 
ATOM     28  F   UNL     1       7.707   6.503  19.155  0.00  0.00    +0.000 F 
ATOM     29  C   UNL     1       6.099   4.803  18.876  0.00  0.00    +0.000 A 
BRANCH  26  30
ATOM     30  O   UNL     1       7.756   6.988  16.444  0.00  0.00    +0.000 OA
ATOM     31  H   UNL     1       7.309   7.369  15.665  0.00  0.00    +0.000 HD
ENDBRANCH  26  30
ENDBRANCH  20  22
ENDBRANCH  17  20
ENDBRANCH   4  17
TORSDOF 6
ENDMDL
MODEL 7
REMARK VINA RESULT:      -8.6      1.578      2.569
REMARK  Name = 
REMARK  6 active torsions:
REMARK  status: ('A' for Active; 'I' for Inactive)
REMARK    1  A    between atoms: C_2  and  C_23
REMARK    2  A    between atoms: N_3  and  C_4
REMARK    3  A    between atoms: C_7  and  S_8
REMARK    4  A    between atoms: S_8  and  N_11
REMARK    5  A    between atoms: N_11  and  C_12
REMARK    6  A    between atoms: C_16  and  O_17
REMARK                            x       y       z     vdW  Elec       q    Type
REMARK                         _______ _______ _______ _____ _____    ______ ____
ROOT
ATOM      1  C   UNL     1       8.246   8.707  18.105  0.00  0.00    +0.000 A 
ATOM      2  C   UNL     1       8.603   7.607  18.889  0.00  0.00    +0.000 A 
ATOM      3  C   UNL     1       7.929   6.391  18.768  0.00  0.00    +0.000 A 
ATOM      4  C   UNL     1       6.864   6.276  17.879  0.00  0.00    +0.000 A 
ATOM      5  C   UNL     1       6.485   7.365  17.088  0.00  0.00    +0.000 A 
ATOM      6  C   UNL     1       7.169   8.583  17.214  0.00  0.00    +0.000 A 
ENDROOT
BRANCH   1   9
ATOM      7  O   UNL     1       9.098  10.238  20.474  0.00  0.00    +0.000 OA
ATOM      8  C   UNL     1       9.270  10.624  19.324  0.00  0.00    +0.000 C 
ATOM      9  N   UNL     1       8.927   9.944  18.165  0.00  0.00    +0.000 N 
ATOM     10  H   UNL     1       9.315  10.287  17.296  0.00  0.00    +0.000 HD
BRANCH   8  11
ATOM     11  C   UNL     1       9.978  11.917  19.125  0.00  0.00    +0.000 A 
ATOM     12  C   UNL     1      10.799  12.387  20.160  0.00  0.00    +0.000 A 
ATOM     13  C   UNL     1      11.488  13.591  20.016  0.00  0.00    +0.000 A 
ATOM     14  C   UNL     1      11.351  14.333  18.844  0.00  0.00    +0.000 A 
ATOM     15  C   UNL     1      10.513  13.883  17.822  0.00  0.00    +0.000 A 
ATOM     16  C   UNL     1       9.820  12.678  17.961  0.00  0.00    +0.000 A 
ENDBRANCH   8  11
ENDBRANCH   1   9
BRANCH   4  17
ATOM     17  S   UNL     1       6.040   4.706  17.720  0.00  0.00    +0.000 S 
ATOM     18  O   UNL     1       6.584   4.051  16.548  0.00  0.00    +0.000 OA
ATOM     19  O   UNL     1       6.040   4.065  19.014  0.00  0.00    +0.000 OA
BRANCH  17  20
ATOM     20  N   UNL     1       4.454   5.130  17.319  0.00  0.00    +0.000 N 
ATOM     21  H   UNL     1       4.385   6.058  16.908  0.00  0.00    +0.000 HD
BRANCH  20  22
ATOM     22  C   UNL     1       3.375   4.635  18.097  0.00  0.00    +0.000 A 
ATOM     23  C   UNL     1       2.878   5.404  19.150  0.00  0.00    +0.000 A 
ATOM     24  C   UNL     1       1.845   4.897  19.930  0.00  0.00    +0.000 A 
ATOM     25  F   UNL     1       1.377   5.622  20.957  0.00  0.00    +0.000 F 
ATOM     26  C   UNL     1       1.287   3.652  19.663  0.00  0.00    +0.000 A 
ATOM     27  C   UNL     1       1.787   2.897  18.609  0.00  0.00    +0.000 A 
ATOM     28  F   UNL     1       1.258   1.699  18.323  0.00  0.00    +0.000 F 
ATOM     29  C   UNL     1       2.840   3.375  17.829  0.00  0.00    +0.000 A 
BRANCH  26  30
ATOM     30  O   UNL     1       0.261   3.172  20.427  0.00  0.00    +0.000 OA
ATOM     31  H   UNL     1      -0.413   3.874  20.493  0.00  0.00    +0.000 HD
ENDBRANCH  26  30
ENDBRANCH  20  22
ENDBRANCH  17  20
ENDBRANCH   4  17
TORSDOF 6
ENDMDL
MODEL 8
REMARK VINA RESULT:      -8.5      1.924      2.640
REMARK  Name = 
REMARK  6 active torsions:
REMARK  status: ('A' for Active; 'I' for Inactive)
REMARK    1  A    between atoms: C_2  and  C_23
REMARK    2  A    between atoms: N_3  and  C_4
REMARK    3  A    between atoms: C_7  and  S_8
REMARK    4  A    between atoms: S_8  and  N_11
REMARK    5  A    between atoms: N_11  and  C_12
REMARK    6  A    between atoms: C_16  and  O_17
REMARK                            x       y       z     vdW  Elec       q    Type
REMARK                         _______ _______ _______ _____ _____    ______ ____
ROOT
ATOM      1  C   UNL     1       7.926   7.343  18.403  0.00  0.00    +0.000 A 
ATOM      2  C   UNL     1       7.689   6.246  19.235  0.00  0.00    +0.000 A 
ATOM      3  C   UNL     1       6.842   5.212  18.834  0.00  0.00    +0.000 A 
ATOM      4  C   UNL     1       6.196   5.285  17.603  0.00  0.00    +0.000 A 
ATOM      5  C   UNL     1       6.413   6.375  16.756  0.00  0.00    +0.000 A 
ATOM      6  C   UNL     1       7.268   7.410  17.165  0.00  0.00    +0.000 A 
ENDROOT
BRANCH   1   9
ATOM      7  O   UNL     1       7.732  10.211  17.758  0.00  0.00    +0.000 OA
ATOM      8  C   UNL     1       8.666   9.722  18.382  0.00  0.00    +0.000 C 
ATOM      9  N   UNL     1       8.807   8.392  18.750  0.00  0.00    +0.000 N 
ATOM     10  H   UNL     1       9.519   8.175  19.436  0.00  0.00    +0.000 HD
BRANCH   8  11
ATOM     11  C   UNL     1       9.733  10.639  18.865  0.00  0.00    +0.000 A 
ATOM     12  C   UNL     1       9.715  11.023  20.213  0.00  0.00    +0.000 A 
ATOM     13  C   UNL     1      10.699  11.876  20.713  0.00  0.00    +0.000 A 
ATOM     14  C   UNL     1      11.696  12.356  19.865  0.00  0.00    +0.000 A 
ATOM     15  C   UNL     1      11.702  12.000  18.516  0.00  0.00    +0.000 A 
ATOM     16  C   UNL     1      10.719  11.146  18.010  0.00  0.00    +0.000 A 
ENDBRANCH   8  11
ENDBRANCH   1   9
BRANCH   4  17
ATOM     17  S   UNL     1       5.145   3.938  17.101  0.00  0.00    +0.000 S 
ATOM     18  O   UNL     1       5.530   3.570  15.755  0.00  0.00    +0.000 OA
ATOM     19  O   UNL     1       5.112   2.970  18.172  0.00  0.00    +0.000 OA
BRANCH  17  20
ATOM     20  N   UNL     1       3.621   4.656  16.966  0.00  0.00    +0.000 N 
ATOM     21  H   UNL     1       3.389   4.914  16.011  0.00  0.00    +0.000 HD
BRANCH  20  22
ATOM     22  C   UNL     1       3.112   5.436  18.038  0.00  0.00    +0.000 A 
ATOM     23  C   UNL     1       2.798   4.819  19.249  0.00  0.00    +0.000 A 
ATOM     24  C   UNL     1       2.266   5.583  20.281  0.00  0.00    +0.000 A 
ATOM     25  F   UNL     1       1.942   4.992  21.441  0.00  0.00    +0.000 F 
ATOM     26  C   UNL     1       2.066   6.951  20.133  0.00  0.00    +0.000 A 
ATOM     27  C   UNL     1       2.387   7.556  18.923  0.00  0.00    +0.000 A 
ATOM     28  F   UNL     1       2.214   8.875  18.759  0.00  0.00    +0.000 F 
ATOM     29  C   UNL     1       2.898   6.803  17.866  0.00  0.00    +0.000 A 
BRANCH  26  30
ATOM     30  O   UNL     1       1.557   7.695  21.160  0.00  0.00    +0.000 OA
ATOM     31  H   UNL     1       2.221   7.706  21.874  0.00  0.00    +0.000 HD
ENDBRANCH  26  30
ENDBRANCH  20  22
ENDBRANCH  17  20
ENDBRANCH   4  17
TORSDOF 6
ENDMDL
MODEL 9
REMARK VINA RESULT:      -8.5      1.083      1.444
REMARK  Name = 
REMARK  6 active torsions:
REMARK  status: ('A' for Active; 'I' for Inactive)
REMARK    1  A    between atoms: C_2  and  C_23
REMARK    2  A    between atoms: N_3  and  C_4
REMARK    3  A    between atoms: C_7  and  S_8
REMARK    4  A    between atoms: S_8  and  N_11
REMARK    5  A    between atoms: N_11  and  C_12
REMARK    6  A    between atoms: C_16  and  O_17
REMARK                            x       y       z     vdW  Elec       q    Type
REMARK                         _______ _______ _______ _____ _____    ______ ____
ROOT
ATOM      1  C   UNL     1       8.062   7.953  18.353  0.00  0.00    +0.000 A 
ATOM      2  C   UNL     1       8.169   6.666  18.885  0.00  0.00    +0.000 A 
ATOM      3  C   UNL     1       7.326   5.640  18.453  0.00  0.00    +0.000 A 
ATOM      4  C   UNL     1       6.343   5.906  17.504  0.00  0.00    +0.000 A 
ATOM      5  C   UNL     1       6.214   7.188  16.963  0.00  0.00    +0.000 A 
ATOM      6  C   UNL     1       7.066   8.214  17.400  0.00  0.00    +0.000 A 
ENDROOT
BRANCH   1   9
ATOM      7  O   UNL     1       8.026  10.766  17.477  0.00  0.00    +0.000 OA
ATOM      8  C   UNL     1       8.861  10.312  18.250  0.00  0.00    +0.000 C 
ATOM      9  N   UNL     1       8.920   9.011  18.730  0.00  0.00    +0.000 N 
ATOM     10  H   UNL     1       9.534   8.837  19.516  0.00  0.00    +0.000 HD
BRANCH   8  11
ATOM     11  C   UNL     1       9.882  11.245  18.794  0.00  0.00    +0.000 A 
ATOM     12  C   UNL     1      10.373  12.253  17.952  0.00  0.00    +0.000 A 
ATOM     13  C   UNL     1      11.327  13.156  18.421  0.00  0.00    +0.000 A 
ATOM     14  C   UNL     1      11.800  13.048  19.728  0.00  0.00    +0.000 A 
ATOM     15  C   UNL     1      11.336  12.030  20.561  0.00  0.00    +0.000 A 
ATOM     16  C   UNL     1      10.381  11.122  20.096  0.00  0.00    +0.000 A 
ENDBRANCH   8  11
ENDBRANCH   1   9
BRANCH   4  17
ATOM     17  S   UNL     1       5.301   4.574  16.947  0.00  0.00    +0.000 S 
ATOM     18  O   UNL     1       5.436   4.496  15.508  0.00  0.00    +0.000 OA
ATOM     19  O   UNL     1       5.542   3.429  17.795  0.00  0.00    +0.000 OA
BRANCH  17  20
ATOM     20  N   UNL     1       3.738   5.147  17.235  0.00  0.00    +0.000 N 
ATOM     21  H   UNL     1       3.644   6.144  17.056  0.00  0.00    +0.000 HD
BRANCH  20  22
ATOM     22  C   UNL     1       2.943   4.548  18.247  0.00  0.00    +0.000 A 
ATOM     23  C   UNL     1       1.961   3.623  17.890  0.00  0.00    +0.000 A 
ATOM     24  C   UNL     1       1.161   3.067  18.882  0.00  0.00    +0.000 A 
ATOM     25  F   UNL     1       0.201   2.193  18.543  0.00  0.00    +0.000 F 
ATOM     26  C   UNL     1       1.340   3.400  20.220  0.00  0.00    +0.000 A 
ATOM     27  C   UNL     1       2.324   4.319  20.564  0.00  0.00    +0.000 A 
ATOM     28  F   UNL     1       2.525   4.647  21.848  0.00  0.00    +0.000 F 
ATOM     29  C   UNL     1       3.121   4.908  19.582  0.00  0.00    +0.000 A 
BRANCH  26  30
ATOM     30  O   UNL     1       0.559   2.835  21.188  0.00  0.00    +0.000 OA
ATOM     31  H   UNL     1       0.316   3.537  21.820  0.00  0.00    +0.000 HD
ENDBRANCH  26  30
ENDBRANCH  20  22
ENDBRANCH  17  20
ENDBRANCH   4  17
TORSDOF 6
ENDMDL
