MODEL 1
REMARK VINA RESULT:      -5.8      0.000      0.000
REMARK  Name = 
REMARK  4 active torsions:
REMARK  status: ('A' for Active; 'I' for Inactive)
REMARK    1  A    between atoms: O_1  and  C_2
REMARK    2  A    between atoms: C_2  and  C_3
REMARK    3  A    between atoms: C_2  and  C_10
REMARK    4  A    between atoms: C_3  and  C_4
REMARK                            x       y       z     vdW  Elec       q    Type
REMARK                         _______ _______ _______ _____ _____    ______ ____
ROOT
ATOM      1  C   UNL     1       3.906   3.630  19.721  0.00  0.00    +0.000 C 
ENDROOT
BRANCH   1   2
ATOM      2  C   UNL     1       2.564   3.202  19.019  0.00  0.00    +0.000 C 
ATOM      3 CL   UNL     1       2.804   1.924  17.770  0.00  0.00    +0.000 Cl
ATOM      4 CL   UNL     1       1.419   2.529  20.249  0.00  0.00    +0.000 Cl
ATOM      5 CL   UNL     1       1.681   4.553  18.200  0.00  0.00    +0.000 Cl
ENDBRANCH   1   2
BRANCH   1   6
ATOM      6  O   UNL     1       4.957   2.649  19.549  0.00  0.00    +0.000 OA
ATOM      7  H   UNL     1       5.594   3.040  18.918  0.00  0.00    +0.000 HD
ENDBRANCH   1   6
BRANCH   1   8
ATOM      8  C   UNL     1       4.446   4.990  19.237  0.00  0.00    +0.000 C 
BRANCH   8   9
ATOM      9  C   UNL     1       5.358   4.877  18.044  0.00  0.00    +0.000 A 
ATOM     10  C   UNL     1       4.859   5.084  16.761  0.00  0.00    +0.000 A 
ATOM     11  C   UNL     1       5.736   4.990  15.685  0.00  0.00    +0.000 A 
ATOM     12  C   UNL     1       7.074   4.713  15.916  0.00  0.00    +0.000 A 
ATOM     13  C   UNL     1       7.490   4.533  17.225  0.00  0.00    +0.000 A 
ATOM     14  N   UNL     1       6.659   4.605  18.286  0.00  0.00    +0.000 NA
ENDBRANCH   8   9
ENDBRANCH   1   8
TORSDOF 4
ENDMDL
MODEL 2
REMARK VINA RESULT:      -5.8      3.086      4.978
REMARK  Name = 
REMARK  4 active torsions:
REMARK  status: ('A' for Active; 'I' for Inactive)
REMARK    1  A    between atoms: O_1  and  C_2
REMARK    2  A    between atoms: C_2  and  C_3
REMARK    3  A    between atoms: C_2  and  C_10
REMARK    4  A    between atoms: C_3  and  C_4
REMARK                            x       y       z     vdW  Elec       q    Type
REMARK                         _______ _______ _______ _____ _____    ______ ____
ROOT
ATOM      1  C   UNL     1       4.844   3.875  17.471  0.00  0.00    +0.000 C 
ENDROOT
BRANCH   1   2
ATOM      2  C   UNL     1       5.952   4.544  16.576  0.00  0.00    +0.000 C 
ATOM      3 CL   UNL     1       6.112   3.762  14.959  0.00  0.00    +0.000 Cl
ATOM      4 CL   UNL     1       5.534   6.281  16.284  0.00  0.00    +0.000 Cl
ATOM      5 CL   UNL     1       7.608   4.543  17.307  0.00  0.00    +0.000 Cl
ENDBRANCH   1   2
BRANCH   1   6
ATOM      6  O   UNL     1       5.364   3.411  18.742  0.00  0.00    +0.000 OA
ATOM      7  H   UNL     1       4.805   3.822  19.432  0.00  0.00    +0.000 HD
ENDBRANCH   1   6
BRANCH   1   8
ATOM      8  C   UNL     1       3.647   4.800  17.762  0.00  0.00    +0.000 C 
BRANCH   8   9
ATOM      9  C   UNL     1       2.729   4.269  18.831  0.00  0.00    +0.000 A 
ATOM     10  C   UNL     1       1.691   3.404  18.494  0.00  0.00    +0.000 A 
ATOM     11  C   UNL     1       0.876   2.918  19.511  0.00  0.00    +0.000 A 
ATOM     12  C   UNL     1       1.125   3.290  20.823  0.00  0.00    +0.000 A 
ATOM     13  C   UNL     1       2.186   4.144  21.073  0.00  0.00    +0.000 A 
ATOM     14  N   UNL     1       2.985   4.641  20.105  0.00  0.00    +0.000 NA
ENDBRANCH   8   9
ENDBRANCH   1   8
TORSDOF 4
ENDMDL
MODEL 3
REMARK VINA RESULT:      -5.8      0.121      1.395
REMARK  Name = 
REMARK  4 active torsions:
REMARK  status: ('A' for Active; 'I' for Inactive)
REMARK    1  A    between atoms: O_1  and  C_2
REMARK    2  A    between atoms: C_2  and  C_3
REMARK    3  A    between atoms: C_2  and  C_10
REMARK    4  A    between atoms: C_3  and  C_4
REMARK                            x       y       z     vdW  Elec       q    Type
REMARK                         _______ _______ _______ _____ _____    ______ ____
ROOT
ATOM      1  C   UNL     1       3.993   3.561  19.757  0.00  0.00    +0.000 C 
ENDROOT
BRANCH   1   2
ATOM      2  C   UNL     1       2.601   3.164  19.138  0.00  0.00    +0.000 C 
ATOM      3 CL   UNL     1       1.773   4.547  18.332  0.00  0.00    +0.000 Cl
ATOM      4 CL   UNL     1       2.836   1.884  17.880  0.00  0.00    +0.000 Cl
ATOM      5 CL   UNL     1       1.418   2.486  20.328  0.00  0.00    +0.000 Cl
ENDBRANCH   1   2
BRANCH   1   6
ATOM      6  O   UNL     1       5.015   2.566  19.504  0.00  0.00    +0.000 OA
ATOM      7  H   UNL     1       4.577   1.843  19.012  0.00  0.00    +0.000 HD
ENDBRANCH   1   6
BRANCH   1   8
ATOM      8  C   UNL     1       4.523   4.918  19.255  0.00  0.00    +0.000 C 
BRANCH   8   9
ATOM      9  C   UNL     1       5.415   4.799  18.048  0.00  0.00    +0.000 A 
ATOM     10  C   UNL     1       4.878   4.912  16.768  0.00  0.00    +0.000 A 
ATOM     11  C   UNL     1       5.735   4.816  15.677  0.00  0.00    +0.000 A 
ATOM     12  C   UNL     1       7.092   4.628  15.889  0.00  0.00    +0.000 A 
ATOM     13  C   UNL     1       7.546   4.539  17.195  0.00  0.00    +0.000 A 
ATOM     14  N   UNL     1       6.735   4.615  18.271  0.00  0.00    +0.000 NA
ENDBRANCH   8   9
ENDBRANCH   1   8
TORSDOF 4
ENDMDL
MODEL 4
REMARK VINA RESULT:      -5.7      1.490      2.114
REMARK  Name = 
REMARK  4 active torsions:
REMARK  status: ('A' for Active; 'I' for Inactive)
REMARK    1  A    between atoms: O_1  and  C_2
REMARK    2  A    between atoms: C_2  and  C_3
REMARK    3  A    between atoms: C_2  and  C_10
REMARK    4  A    between atoms: C_3  and  C_4
REMARK                            x       y       z     vdW  Elec       q    Type
REMARK                         _______ _______ _______ _____ _____    ______ ____
ROOT
ATOM      1  C   UNL     1       4.258   3.399  19.630  0.00  0.00    +0.000 C 
ENDROOT
BRANCH   1   2
ATOM      2  C   UNL     1       2.721   3.263  19.940  0.00  0.00    +0.000 C 
ATOM      3 CL   UNL     1       1.816   4.800  19.680  0.00  0.00    +0.000 Cl
ATOM      4 CL   UNL     1       1.985   2.026  18.841  0.00  0.00    +0.000 Cl
ATOM      5 CL   UNL     1       2.340   2.727  21.625  0.00  0.00    +0.000 Cl
ENDBRANCH   1   2
BRANCH   1   6
ATOM      6  O   UNL     1       4.972   2.152  19.814  0.00  0.00    +0.000 OA
ATOM      7  H   UNL     1       5.551   2.051  19.032  0.00  0.00    +0.000 HD
ENDBRANCH   1   6
BRANCH   1   8
ATOM      8  C   UNL     1       4.556   3.907  18.207  0.00  0.00    +0.000 C 
BRANCH   8   9
ATOM      9  C   UNL     1       5.663   4.926  18.158  0.00  0.00    +0.000 A 
ATOM     10  C   UNL     1       5.564   6.026  17.310  0.00  0.00    +0.000 A 
ATOM     11  C   UNL     1       6.598   6.957  17.306  0.00  0.00    +0.000 A 
ATOM     12  C   UNL     1       7.683   6.776  18.149  0.00  0.00    +0.000 A 
ATOM     13  C   UNL     1       7.697   5.661  18.971  0.00  0.00    +0.000 A 
ATOM     14  N   UNL     1       6.714   4.735  18.986  0.00  0.00    +0.000 NA
ENDBRANCH   8   9
ENDBRANCH   1   8
TORSDOF 4
ENDMDL
MODEL 5
REMARK VINA RESULT:      -5.7      3.172      5.087
REMARK  Name = 
REMARK  4 active torsions:
REMARK  status: ('A' for Active; 'I' for Inactive)
REMARK    1  A    between atoms: O_1  and  C_2
REMARK    2  A    between atoms: C_2  and  C_3
REMARK    3  A    between atoms: C_2  and  C_10
REMARK    4  A    between atoms: C_3  and  C_4
REMARK                            x       y       z     vdW  Elec       q    Type
REMARK                         _______ _______ _______ _____ _____    ______ ____
ROOT
ATOM      1  C   UNL     1       4.891   3.823  17.423  0.00  0.00    +0.000 C 
ENDROOT
BRANCH   1   2
ATOM      2  C   UNL     1       5.945   4.537  16.497  0.00  0.00    +0.000 C 
ATOM      3 CL   UNL     1       5.539   6.265  16.180  0.00  0.00    +0.000 Cl
ATOM      4 CL   UNL     1       7.571   4.514  17.291  0.00  0.00    +0.000 Cl
ATOM      5 CL   UNL     1       6.167   3.762  14.877  0.00  0.00    +0.000 Cl
ENDBRANCH   1   2
BRANCH   1   6
ATOM      6  O   UNL     1       5.411   3.559  18.749  0.00  0.00    +0.000 OA
ATOM      7  H   UNL     1       4.659   3.214  19.273  0.00  0.00    +0.000 HD
ENDBRANCH   1   6
BRANCH   1   8
ATOM      8  C   UNL     1       3.577   4.611  17.580  0.00  0.00    +0.000 C 
BRANCH   8   9
ATOM      9  C   UNL     1       2.707   4.100  18.698  0.00  0.00    +0.000 A 
ATOM     10  C   UNL     1       2.099   4.995  19.575  0.00  0.00    +0.000 A 
ATOM     11  C   UNL     1       1.287   4.487  20.584  0.00  0.00    +0.000 A 
ATOM     12  C   UNL     1       1.092   3.118  20.681  0.00  0.00    +0.000 A 
ATOM     13  C   UNL     1       1.724   2.299  19.760  0.00  0.00    +0.000 A 
ATOM     14  N   UNL     1       2.528   2.763  18.779  0.00  0.00    +0.000 NA
ENDBRANCH   8   9
ENDBRANCH   1   8
TORSDOF 4
ENDMDL
MODEL 6
REMARK VINA RESULT:      -5.7      3.159      4.973
REMARK  Name = 
REMARK  4 active torsions:
REMARK  status: ('A' for Active; 'I' for Inactive)
REMARK    1  A    between atoms: O_1  and  C_2
REMARK    2  A    between atoms: C_2  and  C_3
REMARK    3  A    between atoms: C_2  and  C_10
REMARK    4  A    between atoms: C_3  and  C_4
REMARK                            x       y       z     vdW  Elec       q    Type
REMARK                         _______ _______ _______ _____ _____    ______ ____
ROOT
ATOM      1  C   UNL     1       4.609   3.941  17.193  0.00  0.00    +0.000 C 
ENDROOT
BRANCH   1   2
ATOM      2  C   UNL     1       5.734   4.663  16.362  0.00  0.00    +0.000 C 
ATOM      3 CL   UNL     1       7.333   4.656  17.194  0.00  0.00    +0.000 Cl
ATOM      4 CL   UNL     1       5.960   3.818  14.777  0.00  0.00    +0.000 Cl
ATOM      5 CL   UNL     1       5.377   6.391  15.962  0.00  0.00    +0.000 Cl
ENDBRANCH   1   2
BRANCH   1   6
ATOM      6  O   UNL     1       5.120   3.339  18.408  0.00  0.00    +0.000 OA
ATOM      7  H   UNL     1       5.583   4.052  18.892  0.00  0.00    +0.000 HD
ENDBRANCH   1   6
BRANCH   1   8
ATOM      8  C   UNL     1       3.441   4.867  17.582  0.00  0.00    +0.000 C 
BRANCH   8   9
ATOM      9  C   UNL     1       2.615   4.336  18.723  0.00  0.00    +0.000 A 
ATOM     10  C   UNL     1       1.573   3.444  18.476  0.00  0.00    +0.000 A 
ATOM     11  C   UNL     1       0.844   2.960  19.556  0.00  0.00    +0.000 A 
ATOM     12  C   UNL     1       1.179   3.359  20.841  0.00  0.00    +0.000 A 
ATOM     13  C   UNL     1       2.237   4.239  21.000  0.00  0.00    +0.000 A 
ATOM     14  N   UNL     1       2.953   4.735  19.969  0.00  0.00    +0.000 NA
ENDBRANCH   8   9
ENDBRANCH   1   8
TORSDOF 4
ENDMDL
MODEL 7
REMARK VINA RESULT:      -5.7      3.167      5.034
REMARK  Name = 
REMARK  4 active torsions:
REMARK  status: ('A' for Active; 'I' for Inactive)
REMARK    1  A    between atoms: O_1  and  C_2
REMARK    2  A    between atoms: C_2  and  C_3
REMARK    3  A    between atoms: C_2  and  C_10
REMARK    4  A    between atoms: C_3  and  C_4
REMARK                            x       y       z     vdW  Elec       q    Type
REMARK                         _______ _______ _______ _____ _____    ______ ____
ROOT
ATOM      1  C   UNL     1       4.895   3.785  17.436  0.00  0.00    +0.000 C 
ENDROOT
BRANCH   1   2
ATOM      2  C   UNL     1       5.964   4.548  16.570  0.00  0.00    +0.000 C 
ATOM      3 CL   UNL     1       7.608   4.530  17.312  0.00  0.00    +0.000 Cl
ATOM      4 CL   UNL     1       6.110   3.761  14.947  0.00  0.00    +0.000 Cl
ATOM      5 CL   UNL     1       5.570   6.285  16.252  0.00  0.00    +0.000 Cl
ENDBRANCH   1   2
BRANCH   1   6
ATOM      6  O   UNL     1       5.358   3.524  18.784  0.00  0.00    +0.000 OA
ATOM      7  H   UNL     1       4.762   2.840  19.150  0.00  0.00    +0.000 HD
ENDBRANCH   1   6
BRANCH   1   8
ATOM      8  C   UNL     1       3.545   4.521  17.536  0.00  0.00    +0.000 C 
BRANCH   8   9
ATOM      9  C   UNL     1       2.691   4.047  18.682  0.00  0.00    +0.000 A 
ATOM     10  C   UNL     1       2.101   4.968  19.543  0.00  0.00    +0.000 A 
ATOM     11  C   UNL     1       1.303   4.493  20.578  0.00  0.00    +0.000 A 
ATOM     12  C   UNL     1       1.104   3.128  20.717  0.00  0.00    +0.000 A 
ATOM     13  C   UNL     1       1.718   2.280  19.809  0.00  0.00    +0.000 A 
ATOM     14  N   UNL     1       2.508   2.713  18.803  0.00  0.00    +0.000 NA
ENDBRANCH   8   9
ENDBRANCH   1   8
TORSDOF 4
ENDMDL
MODEL 8
REMARK VINA RESULT:      -5.7      1.324      1.917
REMARK  Name = 
REMARK  4 active torsions:
REMARK  status: ('A' for Active; 'I' for Inactive)
REMARK    1  A    between atoms: O_1  and  C_2
REMARK    2  A    between atoms: C_2  and  C_3
REMARK    3  A    between atoms: C_2  and  C_10
REMARK    4  A    between atoms: C_3  and  C_4
REMARK                            x       y       z     vdW  Elec       q    Type
REMARK                         _______ _______ _______ _____ _____    ______ ____
ROOT
ATOM      1  C   UNL     1       3.872   3.628  19.622  0.00  0.00    +0.000 C 
ENDROOT
BRANCH   1   2
ATOM      2  C   UNL     1       2.574   3.210  18.835  0.00  0.00    +0.000 C 
ATOM      3 CL   UNL     1       1.912   4.545  17.819  0.00  0.00    +0.000 Cl
ATOM      4 CL   UNL     1       2.954   1.836  17.718  0.00  0.00    +0.000 Cl
ATOM      5 CL   UNL     1       1.212   2.644  19.882  0.00  0.00    +0.000 Cl
ENDBRANCH   1   2
BRANCH   1   6
ATOM      6  O   UNL     1       5.071   3.034  19.066  0.00  0.00    +0.000 OA
ATOM      7  H   UNL     1       4.934   2.066  19.094  0.00  0.00    +0.000 HD
ENDBRANCH   1   6
BRANCH   1   8
ATOM      8  C   UNL     1       4.087   5.152  19.686  0.00  0.00    +0.000 C 
BRANCH   8   9
ATOM      9  C   UNL     1       5.338   5.607  18.982  0.00  0.00    +0.000 A 
ATOM     10  C   UNL     1       5.252   6.257  17.753  0.00  0.00    +0.000 A 
ATOM     11  C   UNL     1       6.428   6.679  17.142  0.00  0.00    +0.000 A 
ATOM     12  C   UNL     1       7.643   6.459  17.772  0.00  0.00    +0.000 A 
ATOM     13  C   UNL     1       7.639   5.817  18.999  0.00  0.00    +0.000 A 
ATOM     14  N   UNL     1       6.515   5.385  19.609  0.00  0.00    +0.000 NA
ENDBRANCH   8   9
ENDBRANCH   1   8
TORSDOF 4
ENDMDL
MODEL 9
REMARK VINA RESULT:      -5.7      3.166      5.021
REMARK  Name = 
REMARK  4 active torsions:
REMARK  status: ('A' for Active; 'I' for Inactive)
REMARK    1  A    between atoms: O_1  and  C_2
REMARK    2  A    between atoms: C_2  and  C_3
REMARK    3  A    between atoms: C_2  and  C_10
REMARK    4  A    between atoms: C_3  and  C_4
REMARK                            x       y       z     vdW  Elec       q    Type
REMARK                         _______ _______ _______ _____ _____    ______ ____
ROOT
ATOM      1  C   UNL     1       4.370   3.947  16.970  0.00  0.00    +0.000 C 
ENDROOT
BRANCH   1   2
ATOM      2  C   UNL     1       5.528   4.673  16.189  0.00  0.00    +0.000 C 
ATOM      3 CL   UNL     1       5.211   6.431  15.942  0.00  0.00    +0.000 Cl
ATOM      4 CL   UNL     1       7.072   4.543  17.126  0.00  0.00    +0.000 Cl
ATOM      5 CL   UNL     1       5.875   3.985  14.552  0.00  0.00    +0.000 Cl
ENDBRANCH   1   2
BRANCH   1   6
ATOM      6  O   UNL     1       4.868   3.101  18.035  0.00  0.00    +0.000 OA
ATOM      7  H   UNL     1       4.245   3.208  18.782  0.00  0.00    +0.000 HD
ENDBRANCH   1   6
BRANCH   1   8
ATOM      8  C   UNL     1       3.339   4.916  17.580  0.00  0.00    +0.000 C 
BRANCH   8   9
ATOM      9  C   UNL     1       2.553   4.311  18.713  0.00  0.00    +0.000 A 
ATOM     10  C   UNL     1       1.483   3.461  18.446  0.00  0.00    +0.000 A 
ATOM     11  C   UNL     1       0.792   2.906  19.519  0.00  0.00    +0.000 A 
ATOM     12  C   UNL     1       1.193   3.197  20.814  0.00  0.00    +0.000 A 
ATOM     13  C   UNL     1       2.276   4.042  20.991  0.00  0.00    +0.000 A 
ATOM     14  N   UNL     1       2.956   4.605  19.970  0.00  0.00    +0.000 NA
ENDBRANCH   8   9
ENDBRANCH   1   8
TORSDOF 4
ENDMDL
