MODEL 1
REMARK VINA RESULT:      -8.7      0.000      0.000
REMARK  Name = 
REMARK  7 active torsions:
REMARK  status: ('A' for Active; 'I' for Inactive)
REMARK    1  A    between atoms: C_1  and  C_2
REMARK    2  A    between atoms: C_3  and  C_4
REMARK    3  A    between atoms: C_4  and  C_5
REMARK    4  A    between atoms: C_14  and  S_15
REMARK    5  A    between atoms: S_15  and  C_16
REMARK    6  A    between atoms: C_16  and  C_17
REMARK    7  A    between atoms: N_19  and  C_20
REMARK                            x       y       z     vdW  Elec       q    Type
REMARK                         _______ _______ _______ _____ _____    ______ ____
ROOT
ATOM      1  C   UNL     1       5.301   3.915  13.947  0.00  0.00    +0.000 C 
ATOM      2  C   UNL     1       5.849   4.599  15.161  0.00  0.00    +0.000 A 
ATOM      3  C   UNL     1       5.278   4.704  16.380  0.00  0.00    +0.000 A 
ATOM      4  N   UNL     1       5.902   5.327  17.444  0.00  0.00    +0.000 NA
ATOM      5  C   UNL     1       6.990   5.976  17.208  0.00  0.00    +0.000 A 
ATOM      6  N   UNL     1       7.618   6.000  16.015  0.00  0.00    +0.000 N 
ATOM      7  C   UNL     1       7.174   5.256  14.970  0.00  0.00    +0.000 A 
ATOM      8  O   UNL     1       7.826   5.133  13.939  0.00  0.00    +0.000 OA
ATOM      9  H   UNL     1       8.509   6.463  15.926  0.00  0.00    +0.000 HD
ENDROOT
BRANCH   3  10
ATOM     10  C   UNL     1       3.944   4.064  16.766  0.00  0.00    +0.000 C 
BRANCH  10  11
ATOM     11  C   UNL     1       3.356   4.463  18.112  0.00  0.00    +0.000 A 
ATOM     12  C   UNL     1       3.261   3.525  19.164  0.00  0.00    +0.000 A 
ATOM     13 CL   UNL     1       3.874   1.909  19.038  0.00  0.00    +0.000 Cl
ATOM     14  C   UNL     1       2.702   3.866  20.404  0.00  0.00    +0.000 A 
ATOM     15  C   UNL     1       2.238   5.153  20.638  0.00  0.00    +0.000 A 
ATOM     16  C   UNL     1       2.381   6.113  19.648  0.00  0.00    +0.000 A 
ATOM     17  C   UNL     1       2.953   5.783  18.410  0.00  0.00    +0.000 A 
ATOM     18 CL   UNL     1       3.203   7.126  17.353  0.00  0.00    +0.000 Cl
ENDBRANCH  10  11
ENDBRANCH   3  10
BRANCH   5  19
ATOM     19  S   UNL     1       7.795   6.922  18.415  0.00  0.00    +0.000 S 
BRANCH  19  20
ATOM     20  C   UNL     1       7.624   8.591  17.718  0.00  0.00    +0.000 C 
BRANCH  20  21
ATOM     21  C   UNL     1       8.645   9.523  18.349  0.00  0.00    +0.000 C 
ATOM     22  O   UNL     1       9.152   9.238  19.434  0.00  0.00    +0.000 OA
ATOM     23  N   UNL     1       8.871  10.686  17.628  0.00  0.00    +0.000 N 
ATOM     24  H   UNL     1       8.203  10.871  16.881  0.00  0.00    +0.000 HD
BRANCH  23  25
ATOM     25  C   UNL     1       9.684  11.763  18.042  0.00  0.00    +0.000 A 
ATOM     26  C   UNL     1      11.041  11.615  18.341  0.00  0.00    +0.000 A 
ATOM     27  C   UNL     1      11.780  12.682  18.851  0.00  0.00    +0.000 A 
ATOM     28  C   UNL     1      11.166  13.915  19.046  0.00  0.00    +0.000 A 
ATOM     29  F   UNL     1      11.882  14.913  19.578  0.00  0.00    +0.000 F 
ATOM     30  C   UNL     1       9.829  14.090  18.705  0.00  0.00    +0.000 A 
ATOM     31 CL   UNL     1       9.059  15.612  18.944  0.00  0.00    +0.000 Cl
ATOM     32  C   UNL     1       9.089  13.023  18.187  0.00  0.00    +0.000 A 
ENDBRANCH  23  25
ENDBRANCH  20  21
ENDBRANCH  19  20
ENDBRANCH   5  19
TORSDOF 6
ENDMDL
MODEL 2
REMARK VINA RESULT:      -8.7      0.914      1.784
REMARK  Name = 
REMARK  7 active torsions:
REMARK  status: ('A' for Active; 'I' for Inactive)
REMARK    1  A    between atoms: C_1  and  C_2
REMARK    2  A    between atoms: C_3  and  C_4
REMARK    3  A    between atoms: C_4  and  C_5
REMARK    4  A    between atoms: C_14  and  S_15
REMARK    5  A    between atoms: S_15  and  C_16
REMARK    6  A    between atoms: C_16  and  C_17
REMARK    7  A    between atoms: N_19  and  C_20
REMARK                            x       y       z     vdW  Elec       q    Type
REMARK                         _______ _______ _______ _____ _____    ______ ____
ROOT
ATOM      1  C   UNL     1       4.749   4.322  14.736  0.00  0.00    +0.000 C 
ATOM      2  C   UNL     1       5.467   5.059  15.824  0.00  0.00    +0.000 A 
ATOM      3  C   UNL     1       4.943   5.594  16.948  0.00  0.00    +0.000 A 
ATOM      4  N   UNL     1       5.716   6.218  17.907  0.00  0.00    +0.000 NA
ATOM      5  C   UNL     1       6.953   6.445  17.629  0.00  0.00    +0.000 A 
ATOM      6  N   UNL     1       7.572   6.019  16.509  0.00  0.00    +0.000 N 
ATOM      7  C   UNL     1       6.932   5.233  15.607  0.00  0.00    +0.000 A 
ATOM      8  O   UNL     1       7.527   4.699  14.677  0.00  0.00    +0.000 OA
ATOM      9  H   UNL     1       8.563   6.165  16.398  0.00  0.00    +0.000 HD
ENDROOT
BRANCH   3  10
ATOM     10  C   UNL     1       3.472   5.481  17.351  0.00  0.00    +0.000 C 
BRANCH  10  11
ATOM     11  C   UNL     1       3.172   4.753  18.652  0.00  0.00    +0.000 A 
ATOM     12  C   UNL     1       2.649   5.449  19.766  0.00  0.00    +0.000 A 
ATOM     13 CL   UNL     1       2.234   7.131  19.709  0.00  0.00    +0.000 Cl
ATOM     14  C   UNL     1       2.387   4.801  20.981  0.00  0.00    +0.000 A 
ATOM     15  C   UNL     1       2.619   3.439  21.118  0.00  0.00    +0.000 A 
ATOM     16  C   UNL     1       3.067   2.716  20.022  0.00  0.00    +0.000 A 
ATOM     17  C   UNL     1       3.317   3.355  18.799  0.00  0.00    +0.000 A 
ATOM     18 CL   UNL     1       3.712   2.289  17.499  0.00  0.00    +0.000 Cl
ENDBRANCH  10  11
ENDBRANCH   3  10
BRANCH   5  19
ATOM     19  S   UNL     1       7.998   7.348  18.676  0.00  0.00    +0.000 S 
BRANCH  19  20
ATOM     20  C   UNL     1       8.055   8.946  17.815  0.00  0.00    +0.000 C 
BRANCH  20  21
ATOM     21  C   UNL     1       8.970   9.904  18.561  0.00  0.00    +0.000 C 
ATOM     22  O   UNL     1       9.166   9.755  19.766  0.00  0.00    +0.000 OA
ATOM     23  N   UNL     1       9.470  10.933  17.778  0.00  0.00    +0.000 N 
ATOM     24  H   UNL     1       9.025  11.042  16.867  0.00  0.00    +0.000 HD
BRANCH  23  25
ATOM     25  C   UNL     1      10.250  12.013  18.244  0.00  0.00    +0.000 A 
ATOM     26  C   UNL     1      11.590  11.874  18.616  0.00  0.00    +0.000 A 
ATOM     27  C   UNL     1      12.291  12.942  19.174  0.00  0.00    +0.000 A 
ATOM     28  C   UNL     1      11.656  14.169  19.344  0.00  0.00    +0.000 A 
ATOM     29  F   UNL     1      12.333  15.169  19.922  0.00  0.00    +0.000 F 
ATOM     30  C   UNL     1      10.339  14.336  18.932  0.00  0.00    +0.000 A 
ATOM     31 CL   UNL     1       9.544  15.850  19.139  0.00  0.00    +0.000 Cl
ATOM     32  C   UNL     1       9.637  13.268  18.366  0.00  0.00    +0.000 A 
ENDBRANCH  23  25
ENDBRANCH  20  21
ENDBRANCH  19  20
ENDBRANCH   5  19
TORSDOF 6
ENDMDL
MODEL 3
REMARK VINA RESULT:      -8.5      7.913     10.998
REMARK  Name = 
REMARK  7 active torsions:
REMARK  status: ('A' for Active; 'I' for Inactive)
REMARK    1  A    between atoms: C_1  and  C_2
REMARK    2  A    between atoms: C_3  and  C_4
REMARK    3  A    between atoms: C_4  and  C_5
REMARK    4  A    between atoms: C_14  and  S_15
REMARK    5  A    between atoms: S_15  and  C_16
REMARK    6  A    between atoms: C_16  and  C_17
REMARK    7  A    between atoms: N_19  and  C_20
REMARK                            x       y       z     vdW  Elec       q    Type
REMARK                         _______ _______ _______ _____ _____    ______ ____
ROOT
ATOM      1  C   UNL     1      -2.665  12.133  23.441  0.00  0.00    +0.000 C 
ATOM      2  C   UNL     1      -1.935  11.824  22.171  0.00  0.00    +0.000 A 
ATOM      3  C   UNL     1      -2.232  12.243  20.922  0.00  0.00    +0.000 A 
ATOM      4  N   UNL     1      -1.455  11.926  19.825  0.00  0.00    +0.000 NA
ATOM      5  C   UNL     1      -0.517  11.057  19.982  0.00  0.00    +0.000 A 
ATOM      6  N   UNL     1      -0.171  10.517  21.169  0.00  0.00    +0.000 N 
ATOM      7  C   UNL     1      -0.757  10.923  22.324  0.00  0.00    +0.000 A 
ATOM      8  O   UNL     1      -0.338  10.569  23.421  0.00  0.00    +0.000 OA
ATOM      9  H   UNL     1       0.627   9.906  21.228  0.00  0.00    +0.000 HD
ENDROOT
BRANCH   3  10
ATOM     10  C   UNL     1      -3.378  13.197  20.582  0.00  0.00    +0.000 C 
BRANCH  10  11
ATOM     11  C   UNL     1      -4.754  12.576  20.392  0.00  0.00    +0.000 A 
ATOM     12  C   UNL     1      -5.774  12.774  21.349  0.00  0.00    +0.000 A 
ATOM     13 CL   UNL     1      -5.573  13.792  22.737  0.00  0.00    +0.000 Cl
ATOM     14  C   UNL     1      -7.041  12.192  21.204  0.00  0.00    +0.000 A 
ATOM     15  C   UNL     1      -7.335  11.410  20.095  0.00  0.00    +0.000 A 
ATOM     16  C   UNL     1      -6.376  11.254  19.105  0.00  0.00    +0.000 A 
ATOM     17  C   UNL     1      -5.111  11.846  19.237  0.00  0.00    +0.000 A 
ATOM     18 CL   UNL     1      -4.096  11.688  17.848  0.00  0.00    +0.000 Cl
ENDBRANCH  10  11
ENDBRANCH   3  10
BRANCH   5  19
ATOM     19  S   UNL     1       0.435  10.458  18.665  0.00  0.00    +0.000 S 
BRANCH  19  20
ATOM     20  C   UNL     1       1.323   9.093  19.471  0.00  0.00    +0.000 C 
BRANCH  20  21
ATOM     21  C   UNL     1       2.122   8.315  18.439  0.00  0.00    +0.000 C 
ATOM     22  O   UNL     1       2.262   8.763  17.302  0.00  0.00    +0.000 OA
ATOM     23  N   UNL     1       2.588   7.090  18.892  0.00  0.00    +0.000 N 
ATOM     24  H   UNL     1       2.188   6.771  19.773  0.00  0.00    +0.000 HD
BRANCH  23  25
ATOM     25  C   UNL     1       3.260   6.127  18.108  0.00  0.00    +0.000 A 
ATOM     26  C   UNL     1       2.719   4.870  17.825  0.00  0.00    +0.000 A 
ATOM     27  C   UNL     1       3.463   3.911  17.139  0.00  0.00    +0.000 A 
ATOM     28  C   UNL     1       4.752   4.214  16.712  0.00  0.00    +0.000 A 
ATOM     29  F   UNL     1       5.465   3.264  16.094  0.00  0.00    +0.000 F 
ATOM     30  C   UNL     1       5.284   5.478  16.942  0.00  0.00    +0.000 A 
ATOM     31 CL   UNL     1       6.879   5.863  16.418  0.00  0.00    +0.000 Cl
ATOM     32  C   UNL     1       4.536   6.443  17.623  0.00  0.00    +0.000 A 
ENDBRANCH  23  25
ENDBRANCH  20  21
ENDBRANCH  19  20
ENDBRANCH   5  19
TORSDOF 6
ENDMDL
MODEL 4
REMARK VINA RESULT:      -8.3      5.819      7.853
REMARK  Name = 
REMARK  7 active torsions:
REMARK  status: ('A' for Active; 'I' for Inactive)
REMARK    1  A    between atoms: C_1  and  C_2
REMARK    2  A    between atoms: C_3  and  C_4
REMARK    3  A    between atoms: C_4  and  C_5
REMARK    4  A    between atoms: C_14  and  S_15
REMARK    5  A    between atoms: S_15  and  C_16
REMARK    6  A    between atoms: C_16  and  C_17
REMARK    7  A    between atoms: N_19  and  C_20
REMARK                            x       y       z     vdW  Elec       q    Type
REMARK                         _______ _______ _______ _____ _____    ______ ____
ROOT
ATOM      1  C   UNL     1       6.890   4.351  16.950  0.00  0.00    +0.000 C 
ATOM      2  C   UNL     1       5.723   5.232  17.273  0.00  0.00    +0.000 A 
ATOM      3  C   UNL     1       4.493   4.859  17.686  0.00  0.00    +0.000 A 
ATOM      4  N   UNL     1       3.503   5.771  17.997  0.00  0.00    +0.000 NA
ATOM      5  C   UNL     1       3.715   7.010  17.714  0.00  0.00    +0.000 A 
ATOM      6  N   UNL     1       4.879   7.492  17.234  0.00  0.00    +0.000 N 
ATOM      7  C   UNL     1       5.965   6.692  17.085  0.00  0.00    +0.000 A 
ATOM      8  O   UNL     1       7.071   7.145  16.815  0.00  0.00    +0.000 OA
ATOM      9  H   UNL     1       4.998   8.485  17.113  0.00  0.00    +0.000 HD
ENDROOT
BRANCH   3  10
ATOM     10  C   UNL     1       4.079   3.414  17.967  0.00  0.00    +0.000 C 
BRANCH  10  11
ATOM     11  C   UNL     1       3.113   3.189  19.120  0.00  0.00    +0.000 A 
ATOM     12  C   UNL     1       1.746   3.526  18.992  0.00  0.00    +0.000 A 
ATOM     13 CL   UNL     1       1.061   4.122  17.516  0.00  0.00    +0.000 Cl
ATOM     14  C   UNL     1       0.843   3.348  20.050  0.00  0.00    +0.000 A 
ATOM     15  C   UNL     1       1.270   2.815  21.259  0.00  0.00    +0.000 A 
ATOM     16  C   UNL     1       2.590   2.411  21.391  0.00  0.00    +0.000 A 
ATOM     17  C   UNL     1       3.495   2.572  20.332  0.00  0.00    +0.000 A 
ATOM     18 CL   UNL     1       5.051   1.873  20.604  0.00  0.00    +0.000 Cl
ENDBRANCH  10  11
ENDBRANCH   3  10
BRANCH   5  19
ATOM     19  S   UNL     1       2.506   8.235  17.912  0.00  0.00    +0.000 S 
BRANCH  19  20
ATOM     20  C   UNL     1       2.165   8.101  19.692  0.00  0.00    +0.000 C 
BRANCH  20  21
ATOM     21  C   UNL     1       0.907   8.880  20.038  0.00  0.00    +0.000 C 
ATOM     22  O   UNL     1       0.235   8.563  21.018  0.00  0.00    +0.000 OA
ATOM     23  N   UNL     1       0.601   9.886  19.134  0.00  0.00    +0.000 N 
ATOM     24  H   UNL     1       1.126   9.862  18.261  0.00  0.00    +0.000 HD
BRANCH  23  25
ATOM     25  C   UNL     1      -0.564  10.684  19.160  0.00  0.00    +0.000 A 
ATOM     26  C   UNL     1      -0.763  11.703  20.094  0.00  0.00    +0.000 A 
ATOM     27  C   UNL     1      -1.973  12.393  20.153  0.00  0.00    +0.000 A 
ATOM     28  C   UNL     1      -2.990  12.078  19.256  0.00  0.00    +0.000 A 
ATOM     29  F   UNL     1      -4.160  12.721  19.358  0.00  0.00    +0.000 F 
ATOM     30  C   UNL     1      -2.788  11.101  18.288  0.00  0.00    +0.000 A 
ATOM     31 CL   UNL     1      -4.040  10.702  17.174  0.00  0.00    +0.000 Cl
ATOM     32  C   UNL     1      -1.572  10.413  18.224  0.00  0.00    +0.000 A 
ENDBRANCH  23  25
ENDBRANCH  20  21
ENDBRANCH  19  20
ENDBRANCH   5  19
TORSDOF 6
ENDMDL
MODEL 5
REMARK VINA RESULT:      -8.2      6.368      8.896
REMARK  Name = 
REMARK  7 active torsions:
REMARK  status: ('A' for Active; 'I' for Inactive)
REMARK    1  A    between atoms: C_1  and  C_2
REMARK    2  A    between atoms: C_3  and  C_4
REMARK    3  A    between atoms: C_4  and  C_5
REMARK    4  A    between atoms: C_14  and  S_15
REMARK    5  A    between atoms: S_15  and  C_16
REMARK    6  A    between atoms: C_16  and  C_17
REMARK    7  A    between atoms: N_19  and  C_20
REMARK                            x       y       z     vdW  Elec       q    Type
REMARK                         _______ _______ _______ _____ _____    ______ ____
ROOT
ATOM      1  C   UNL     1       3.353   2.502  20.484  0.00  0.00    +0.000 C 
ATOM      2  C   UNL     1       3.072   3.941  20.180  0.00  0.00    +0.000 A 
ATOM      3  C   UNL     1       3.916   4.857  19.658  0.00  0.00    +0.000 A 
ATOM      4  N   UNL     1       3.529   6.154  19.380  0.00  0.00    +0.000 NA
ATOM      5  C   UNL     1       2.372   6.539  19.796  0.00  0.00    +0.000 A 
ATOM      6  N   UNL     1       1.469   5.732  20.390  0.00  0.00    +0.000 N 
ATOM      7  C   UNL     1       1.696   4.401  20.525  0.00  0.00    +0.000 A 
ATOM      8  O   UNL     1       0.821   3.631  20.905  0.00  0.00    +0.000 OA
ATOM      9  H   UNL     1       0.553   6.086  20.616  0.00  0.00    +0.000 HD
ENDROOT
BRANCH   3  10
ATOM     10  C   UNL     1       5.348   4.556  19.212  0.00  0.00    +0.000 C 
BRANCH  10  11
ATOM     11  C   UNL     1       5.650   4.711  17.730  0.00  0.00    +0.000 A 
ATOM     12  C   UNL     1       6.701   5.548  17.292  0.00  0.00    +0.000 A 
ATOM     13 CL   UNL     1       7.761   6.374  18.387  0.00  0.00    +0.000 Cl
ATOM     14  C   UNL     1       6.983   5.723  15.929  0.00  0.00    +0.000 A 
ATOM     15  C   UNL     1       6.239   5.056  14.965  0.00  0.00    +0.000 A 
ATOM     16  C   UNL     1       5.246   4.175  15.367  0.00  0.00    +0.000 A 
ATOM     17  C   UNL     1       4.969   3.985  16.729  0.00  0.00    +0.000 A 
ATOM     18 CL   UNL     1       3.819   2.738  17.060  0.00  0.00    +0.000 Cl
ENDBRANCH  10  11
ENDBRANCH   3  10
BRANCH   5  19
ATOM     19  S   UNL     1       1.821   8.175  19.646  0.00  0.00    +0.000 S 
BRANCH  19  20
ATOM     20  C   UNL     1       1.121   8.458  21.299  0.00  0.00    +0.000 C 
BRANCH  20  21
ATOM     21  C   UNL     1       0.075   9.559  21.236  0.00  0.00    +0.000 C 
ATOM     22  O   UNL     1      -0.623   9.689  20.232  0.00  0.00    +0.000 OA
ATOM     23  N   UNL     1       0.053  10.380  22.353  0.00  0.00    +0.000 N 
ATOM     24  H   UNL     1       0.847  10.279  22.984  0.00  0.00    +0.000 HD
BRANCH  23  25
ATOM     25  C   UNL     1      -0.742  11.537  22.504  0.00  0.00    +0.000 A 
ATOM     26  C   UNL     1      -0.360  12.788  22.012  0.00  0.00    +0.000 A 
ATOM     27  C   UNL     1      -1.124  13.923  22.279  0.00  0.00    +0.000 A 
ATOM     28  C   UNL     1      -2.292  13.809  23.026  0.00  0.00    +0.000 A 
ATOM     29  F   UNL     1      -2.986  14.918  23.309  0.00  0.00    +0.000 F 
ATOM     30  C   UNL     1      -2.710  12.563  23.480  0.00  0.00    +0.000 A 
ATOM     31 CL   UNL     1      -4.154  12.410  24.407  0.00  0.00    +0.000 Cl
ATOM     32  C   UNL     1      -1.950  11.422  23.207  0.00  0.00    +0.000 A 
ENDBRANCH  23  25
ENDBRANCH  20  21
ENDBRANCH  19  20
ENDBRANCH   5  19
TORSDOF 6
ENDMDL
MODEL 6
REMARK VINA RESULT:      -8.2      5.756      6.794
REMARK  Name = 
REMARK  7 active torsions:
REMARK  status: ('A' for Active; 'I' for Inactive)
REMARK    1  A    between atoms: C_1  and  C_2
REMARK    2  A    between atoms: C_3  and  C_4
REMARK    3  A    between atoms: C_4  and  C_5
REMARK    4  A    between atoms: C_14  and  S_15
REMARK    5  A    between atoms: S_15  and  C_16
REMARK    6  A    between atoms: C_16  and  C_17
REMARK    7  A    between atoms: N_19  and  C_20
REMARK                            x       y       z     vdW  Elec       q    Type
REMARK                         _______ _______ _______ _____ _____    ______ ____
ROOT
ATOM      1  C   UNL     1       5.843   3.263  15.377  0.00  0.00    +0.000 C 
ATOM      2  C   UNL     1       5.146   4.341  16.149  0.00  0.00    +0.000 A 
ATOM      3  C   UNL     1       4.253   4.196  17.152  0.00  0.00    +0.000 A 
ATOM      4  N   UNL     1       3.705   5.272  17.823  0.00  0.00    +0.000 NA
ATOM      5  C   UNL     1       3.928   6.451  17.354  0.00  0.00    +0.000 A 
ATOM      6  N   UNL     1       4.748   6.714  16.316  0.00  0.00    +0.000 N 
ATOM      7  C   UNL     1       5.475   5.732  15.726  0.00  0.00    +0.000 A 
ATOM      8  O   UNL     1       6.347   5.980  14.901  0.00  0.00    +0.000 OA
ATOM      9  H   UNL     1       4.936   7.670  16.057  0.00  0.00    +0.000 HD
ENDROOT
BRANCH   3  10
ATOM     10  C   UNL     1       3.826   2.849  17.739  0.00  0.00    +0.000 C 
BRANCH  10  11
ATOM     11  C   UNL     1       2.907   2.890  18.950  0.00  0.00    +0.000 A 
ATOM     12  C   UNL     1       3.371   2.490  20.223  0.00  0.00    +0.000 A 
ATOM     13 CL   UNL     1       5.013   2.017  20.516  0.00  0.00    +0.000 Cl
ATOM     14  C   UNL     1       2.534   2.498  21.347  0.00  0.00    +0.000 A 
ATOM     15  C   UNL     1       1.216   2.922  21.241  0.00  0.00    +0.000 A 
ATOM     16  C   UNL     1       0.752   3.386  20.019  0.00  0.00    +0.000 A 
ATOM     17  C   UNL     1       1.588   3.394  18.894  0.00  0.00    +0.000 A 
ATOM     18 CL   UNL     1       0.907   4.150  17.498  0.00  0.00    +0.000 Cl
ENDBRANCH  10  11
ENDBRANCH   3  10
BRANCH   5  19
ATOM     19  S   UNL     1       3.185   7.873  18.006  0.00  0.00    +0.000 S 
BRANCH  19  20
ATOM     20  C   UNL     1       2.428   7.207  19.518  0.00  0.00    +0.000 C 
BRANCH  20  21
ATOM     21  C   UNL     1       1.515   8.250  20.142  0.00  0.00    +0.000 C 
ATOM     22  O   UNL     1       1.077   8.084  21.280  0.00  0.00    +0.000 OA
ATOM     23  N   UNL     1       1.209   9.308  19.300  0.00  0.00    +0.000 N 
ATOM     24  H   UNL     1       1.461   9.174  18.322  0.00  0.00    +0.000 HD
BRANCH  23  25
ATOM     25  C   UNL     1       0.301  10.350  19.590  0.00  0.00    +0.000 A 
ATOM     26  C   UNL     1      -0.968  10.432  19.012  0.00  0.00    +0.000 A 
ATOM     27  C   UNL     1      -1.789  11.535  19.243  0.00  0.00    +0.000 A 
ATOM     28  C   UNL     1      -1.349  12.559  20.076  0.00  0.00    +0.000 A 
ATOM     29  F   UNL     1      -2.133  13.630  20.249  0.00  0.00    +0.000 F 
ATOM     30  C   UNL     1      -0.108  12.468  20.698  0.00  0.00    +0.000 A 
ATOM     31 CL   UNL     1       0.447  13.731  21.730  0.00  0.00    +0.000 Cl
ATOM     32  C   UNL     1       0.712  11.358  20.473  0.00  0.00    +0.000 A 
ENDBRANCH  23  25
ENDBRANCH  20  21
ENDBRANCH  19  20
ENDBRANCH   5  19
TORSDOF 6
ENDMDL
MODEL 7
REMARK VINA RESULT:      -8.2      7.431      9.258
REMARK  Name = 
REMARK  7 active torsions:
REMARK  status: ('A' for Active; 'I' for Inactive)
REMARK    1  A    between atoms: C_1  and  C_2
REMARK    2  A    between atoms: C_3  and  C_4
REMARK    3  A    between atoms: C_4  and  C_5
REMARK    4  A    between atoms: C_14  and  S_15
REMARK    5  A    between atoms: S_15  and  C_16
REMARK    6  A    between atoms: C_16  and  C_17
REMARK    7  A    between atoms: N_19  and  C_20
REMARK                            x       y       z     vdW  Elec       q    Type
REMARK                         _______ _______ _______ _____ _____    ______ ____
ROOT
ATOM      1  C   UNL     1       3.734   7.388  17.158  0.00  0.00    +0.000 C 
ATOM      2  C   UNL     1       2.871   7.648  18.353  0.00  0.00    +0.000 A 
ATOM      3  C   UNL     1       2.765   6.905  19.476  0.00  0.00    +0.000 A 
ATOM      4  N   UNL     1       1.961   7.269  20.538  0.00  0.00    +0.000 NA
ATOM      5  C   UNL     1       1.157   8.262  20.372  0.00  0.00    +0.000 A 
ATOM      6  N   UNL     1       1.123   9.037  19.268  0.00  0.00    +0.000 N 
ATOM      7  C   UNL     1       2.014   8.865  18.260  0.00  0.00    +0.000 A 
ATOM      8  O   UNL     1       2.107   9.664  17.335  0.00  0.00    +0.000 OA
ATOM      9  H   UNL     1       0.523   9.846  19.243  0.00  0.00    +0.000 HD
ENDROOT
BRANCH   3  10
ATOM     10  C   UNL     1       3.591   5.648  19.759  0.00  0.00    +0.000 C 
BRANCH  10  11
ATOM     11  C   UNL     1       3.170   4.376  19.040  0.00  0.00    +0.000 A 
ATOM     12  C   UNL     1       4.043   3.738  18.130  0.00  0.00    +0.000 A 
ATOM     13 CL   UNL     1       5.659   4.292  17.837  0.00  0.00    +0.000 Cl
ATOM     14  C   UNL     1       3.667   2.577  17.440  0.00  0.00    +0.000 A 
ATOM     15  C   UNL     1       2.418   2.008  17.648  0.00  0.00    +0.000 A 
ATOM     16  C   UNL     1       1.566   2.572  18.586  0.00  0.00    +0.000 A 
ATOM     17  C   UNL     1       1.942   3.724  19.291  0.00  0.00    +0.000 A 
ATOM     18 CL   UNL     1       0.838   4.201  20.531  0.00  0.00    +0.000 Cl
ENDBRANCH  10  11
ENDBRANCH   3  10
BRANCH   5  19
ATOM     19  S   UNL     1      -0.009   8.732  21.564  0.00  0.00    +0.000 S 
BRANCH  19  20
ATOM     20  C   UNL     1      -0.270  10.476  21.125  0.00  0.00    +0.000 C 
BRANCH  20  21
ATOM     21  C   UNL     1      -0.730  11.254  22.346  0.00  0.00    +0.000 C 
ATOM     22  O   UNL     1      -0.550  10.795  23.473  0.00  0.00    +0.000 OA
ATOM     23  N   UNL     1      -1.392  12.435  22.046  0.00  0.00    +0.000 N 
ATOM     24  H   UNL     1      -1.660  12.548  21.070  0.00  0.00    +0.000 HD
BRANCH  23  25
ATOM     25  C   UNL     1      -2.014  13.287  22.985  0.00  0.00    +0.000 A 
ATOM     26  C   UNL     1      -3.384  13.243  23.257  0.00  0.00    +0.000 A 
ATOM     27  C   UNL     1      -3.974  14.174  24.109  0.00  0.00    +0.000 A 
ATOM     28  C   UNL     1      -3.187  15.150  24.714  0.00  0.00    +0.000 A 
ATOM     29  F   UNL     1      -3.780  16.062  25.494  0.00  0.00    +0.000 F 
ATOM     30  C   UNL     1      -1.814  15.175  24.493  0.00  0.00    +0.000 A 
ATOM     31 CL   UNL     1      -0.831  16.379  25.236  0.00  0.00    +0.000 Cl
ATOM     32  C   UNL     1      -1.220  14.237  23.644  0.00  0.00    +0.000 A 
ENDBRANCH  23  25
ENDBRANCH  20  21
ENDBRANCH  19  20
ENDBRANCH   5  19
TORSDOF 6
ENDMDL
MODEL 8
REMARK VINA RESULT:      -8.1      7.889     11.251
REMARK  Name = 
REMARK  7 active torsions:
REMARK  status: ('A' for Active; 'I' for Inactive)
REMARK    1  A    between atoms: C_1  and  C_2
REMARK    2  A    between atoms: C_3  and  C_4
REMARK    3  A    between atoms: C_4  and  C_5
REMARK    4  A    between atoms: C_14  and  S_15
REMARK    5  A    between atoms: S_15  and  C_16
REMARK    6  A    between atoms: C_16  and  C_17
REMARK    7  A    between atoms: N_19  and  C_20
REMARK                            x       y       z     vdW  Elec       q    Type
REMARK                         _______ _______ _______ _____ _____    ______ ____
ROOT
ATOM      1  C   UNL     1      -1.888  12.382  23.161  0.00  0.00    +0.000 C 
ATOM      2  C   UNL     1      -1.512  11.831  21.820  0.00  0.00    +0.000 A 
ATOM      3  C   UNL     1      -2.059  12.126  20.621  0.00  0.00    +0.000 A 
ATOM      4  N   UNL     1      -1.597  11.582  19.438  0.00  0.00    +0.000 NA
ATOM      5  C   UNL     1      -0.729  10.633  19.509  0.00  0.00    +0.000 A 
ATOM      6  N   UNL     1      -0.160  10.207  20.655  0.00  0.00    +0.000 N 
ATOM      7  C   UNL     1      -0.416  10.820  21.839  0.00  0.00    +0.000 A 
ATOM      8  O   UNL     1       0.219  10.557  22.854  0.00  0.00    +0.000 OA
ATOM      9  H   UNL     1       0.572   9.515  20.625  0.00  0.00    +0.000 HD
ENDROOT
BRANCH   3  10
ATOM     10  C   UNL     1      -3.164  13.162  20.408  0.00  0.00    +0.000 C 
BRANCH  10  11
ATOM     11  C   UNL     1      -4.596  12.651  20.432  0.00  0.00    +0.000 A 
ATOM     12  C   UNL     1      -5.431  12.895  21.546  0.00  0.00    +0.000 A 
ATOM     13 CL   UNL     1      -4.929  13.852  22.902  0.00  0.00    +0.000 Cl
ATOM     14  C   UNL     1      -6.747  12.414  21.598  0.00  0.00    +0.000 A 
ATOM     15  C   UNL     1      -7.275  11.692  20.538  0.00  0.00    +0.000 A 
ATOM     16  C   UNL     1      -6.503  11.495  19.403  0.00  0.00    +0.000 A 
ATOM     17  C   UNL     1      -5.191  11.986  19.338  0.00  0.00    +0.000 A 
ATOM     18 CL   UNL     1      -4.428  11.796  17.799  0.00  0.00    +0.000 Cl
ENDBRANCH  10  11
ENDBRANCH   3  10
BRANCH   5  19
ATOM     19  S   UNL     1      -0.175   9.765  18.116  0.00  0.00    +0.000 S 
BRANCH  19  20
ATOM     20  C   UNL     1       1.602   9.636  18.472  0.00  0.00    +0.000 C 
BRANCH  20  21
ATOM     21  C   UNL     1       1.919   8.259  19.030  0.00  0.00    +0.000 C 
ATOM     22  O   UNL     1       1.786   8.035  20.233  0.00  0.00    +0.000 OA
ATOM     23  N   UNL     1       2.405   7.365  18.087  0.00  0.00    +0.000 N 
ATOM     24  H   UNL     1       2.673   7.778  17.195  0.00  0.00    +0.000 HD
BRANCH  23  25
ATOM     25  C   UNL     1       2.877   6.063  18.359  0.00  0.00    +0.000 A 
ATOM     26  C   UNL     1       4.225   5.778  18.588  0.00  0.00    +0.000 A 
ATOM     27  C   UNL     1       4.661   4.463  18.745  0.00  0.00    +0.000 A 
ATOM     28  C   UNL     1       3.741   3.421  18.692  0.00  0.00    +0.000 A 
ATOM     29  F   UNL     1       4.186   2.163  18.799  0.00  0.00    +0.000 F 
ATOM     30  C   UNL     1       2.389   3.693  18.515  0.00  0.00    +0.000 A 
ATOM     31 CL   UNL     1       1.241   2.410  18.447  0.00  0.00    +0.000 Cl
ATOM     32  C   UNL     1       1.949   5.012  18.365  0.00  0.00    +0.000 A 
ENDBRANCH  23  25
ENDBRANCH  20  21
ENDBRANCH  19  20
ENDBRANCH   5  19
TORSDOF 6
ENDMDL
MODEL 9
REMARK VINA RESULT:      -8.1      1.397      2.322
REMARK  Name = 
REMARK  7 active torsions:
REMARK  status: ('A' for Active; 'I' for Inactive)
REMARK    1  A    between atoms: C_1  and  C_2
REMARK    2  A    between atoms: C_3  and  C_4
REMARK    3  A    between atoms: C_4  and  C_5
REMARK    4  A    between atoms: C_14  and  S_15
REMARK    5  A    between atoms: S_15  and  C_16
REMARK    6  A    between atoms: C_16  and  C_17
REMARK    7  A    between atoms: N_19  and  C_20
REMARK                            x       y       z     vdW  Elec       q    Type
REMARK                         _______ _______ _______ _____ _____    ______ ____
ROOT
ATOM      1  C   UNL     1       5.563   3.311  16.839  0.00  0.00    +0.000 C 
ATOM      2  C   UNL     1       6.112   4.677  17.114  0.00  0.00    +0.000 A 
ATOM      3  C   UNL     1       5.874   5.465  18.184  0.00  0.00    +0.000 A 
ATOM      4  N   UNL     1       6.475   6.697  18.351  0.00  0.00    +0.000 NA
ATOM      5  C   UNL     1       7.149   7.177  17.363  0.00  0.00    +0.000 A 
ATOM      6  N   UNL     1       7.398   6.511  16.217  0.00  0.00    +0.000 N 
ATOM      7  C   UNL     1       7.007   5.222  16.053  0.00  0.00    +0.000 A 
ATOM      8  O   UNL     1       7.372   4.552  15.093  0.00  0.00    +0.000 OA
ATOM      9  H   UNL     1       8.002   6.919  15.521  0.00  0.00    +0.000 HD
ENDROOT
BRANCH   3  10
ATOM     10  C   UNL     1       5.014   5.057  19.382  0.00  0.00    +0.000 C 
BRANCH  10  11
ATOM     11  C   UNL     1       3.700   4.356  19.074  0.00  0.00    +0.000 A 
ATOM     12  C   UNL     1       2.677   5.021  18.360  0.00  0.00    +0.000 A 
ATOM     13 CL   UNL     1       2.869   6.618  17.716  0.00  0.00    +0.000 Cl
ATOM     14  C   UNL     1       1.450   4.401  18.086  0.00  0.00    +0.000 A 
ATOM     15  C   UNL     1       1.212   3.096  18.497  0.00  0.00    +0.000 A 
ATOM     16  C   UNL     1       2.222   2.395  19.139  0.00  0.00    +0.000 A 
ATOM     17  C   UNL     1       3.457   3.004  19.404  0.00  0.00    +0.000 A 
ATOM     18 CL   UNL     1       4.653   1.946  20.061  0.00  0.00    +0.000 Cl
ENDBRANCH  10  11
ENDBRANCH   3  10
BRANCH   5  19
ATOM     19  S   UNL     1       7.830   8.770  17.380  0.00  0.00    +0.000 S 
BRANCH  19  20
ATOM     20  C   UNL     1       8.691   8.762  18.980  0.00  0.00    +0.000 C 
BRANCH  20  21
ATOM     21  C   UNL     1       9.329  10.118  19.231  0.00  0.00    +0.000 C 
ATOM     22  O   UNL     1       9.392  10.568  20.374  0.00  0.00    +0.000 OA
ATOM     23  N   UNL     1       9.746  10.767  18.078  0.00  0.00    +0.000 N 
ATOM     24  H   UNL     1       9.410  10.363  17.206  0.00  0.00    +0.000 HD
BRANCH  23  25
ATOM     25  C   UNL     1      10.269  12.077  18.019  0.00  0.00    +0.000 A 
ATOM     26  C   UNL     1      11.636  12.352  18.104  0.00  0.00    +0.000 A 
ATOM     27  C   UNL     1      12.100  13.666  18.151  0.00  0.00    +0.000 A 
ATOM     28  C   UNL     1      11.192  14.719  18.092  0.00  0.00    +0.000 A 
ATOM     29  F   UNL     1      11.655  15.972  18.184  0.00  0.00    +0.000 F 
ATOM     30  C   UNL     1       9.833  14.462  17.957  0.00  0.00    +0.000 A 
ATOM     31 CL   UNL     1       8.701  15.758  17.885  0.00  0.00    +0.000 Cl
ATOM     32  C   UNL     1       9.367  13.145  17.903  0.00  0.00    +0.000 A 
ENDBRANCH  23  25
ENDBRANCH  20  21
ENDBRANCH  19  20
ENDBRANCH   5  19
TORSDOF 6
ENDMDL
