MODEL 1
REMARK VINA RESULT:      -8.4      0.000      0.000
REMARK  Name = 
REMARK  5 active torsions:
REMARK  status: ('A' for Active; 'I' for Inactive)
REMARK    1  A    between atoms: C_1  and  O_2
REMARK    2  A    between atoms: O_2  and  C_3
REMARK    3  A    between atoms: C_6  and  S_7
REMARK    4  A    between atoms: S_7  and  C_10
REMARK    5  A    between atoms: C_18  and  C_19
REMARK                            x       y       z     vdW  Elec       q    Type
REMARK                         _______ _______ _______ _____ _____    ______ ____
ROOT
ATOM      1  C   UNL     1       4.394   5.298  18.738  0.00  0.00    +0.000 A 
ATOM      2  S   UNL     1       4.855   3.696  19.134  0.00  0.00    +0.000 S 
ATOM      3  C   UNL     1       3.463   3.425  20.045  0.00  0.00    +0.000 A 
ATOM      4  N   UNL     1       3.299   2.246  20.680  0.00  0.00    +0.000 NA
ATOM      5  C   UNL     1       2.148   2.142  21.367  0.00  0.00    +0.000 A 
ATOM      6  C   UNL     1       1.172   3.116  21.431  0.00  0.00    +0.000 A 
ATOM      7  C   UNL     1       1.379   4.311  20.743  0.00  0.00    +0.000 A 
ATOM      8  C   UNL     1       2.589   4.503  20.031  0.00  0.00    +0.000 A 
ATOM      9  C   UNL     1       3.138   5.621  19.265  0.00  0.00    +0.000 A 
ENDROOT
BRANCH   9  10
ATOM     10  C   UNL     1       2.502   6.944  19.096  0.00  0.00    +0.000 A 
ATOM     11  C   UNL     1       2.054   7.666  20.215  0.00  0.00    +0.000 A 
ATOM     12  C   UNL     1       1.394   8.895  20.073  0.00  0.00    +0.000 A 
ATOM     13  C   UNL     1       1.232   9.452  18.809  0.00  0.00    +0.000 A 
ATOM     14 CL   UNL     1       0.446  10.969  18.630  0.00  0.00    +0.000 Cl
ATOM     15  C   UNL     1       1.690   8.772  17.691  0.00  0.00    +0.000 A 
ATOM     16  C   UNL     1       2.282   7.511  17.835  0.00  0.00    +0.000 A 
ENDBRANCH   9  10
BRANCH   1  17
ATOM     17  S   UNL     1       5.612   6.195  17.775  0.00  0.00    +0.000 S 
ATOM     18  O   UNL     1       6.828   6.128  18.558  0.00  0.00    +0.000 OA
ATOM     19  O   UNL     1       4.979   7.466  17.457  0.00  0.00    +0.000 OA
BRANCH  17  23
ATOM     20  C   UNL     1       6.385   4.138  13.777  0.00  0.00    +0.000 A 
ATOM     21  C   UNL     1       5.151   3.982  14.423  0.00  0.00    +0.000 A 
ATOM     22  C   UNL     1       4.904   4.603  15.646  0.00  0.00    +0.000 A 
ATOM     23  C   UNL     1       5.905   5.386  16.223  0.00  0.00    +0.000 A 
ATOM     24  C   UNL     1       7.156   5.508  15.613  0.00  0.00    +0.000 A 
ATOM     25  C   UNL     1       7.393   4.886  14.387  0.00  0.00    +0.000 A 
BRANCH  20  27
ATOM     26  C   UNL     1       5.274   3.160  11.939  0.00  0.00    +0.000 C 
ATOM     27  O   UNL     1       6.503   3.483  12.583  0.00  0.00    +0.000 OA
ENDBRANCH  20  27
ENDBRANCH  17  23
ENDBRANCH   1  17
TORSDOF 4
ENDMDL
MODEL 2
REMARK VINA RESULT:      -8.2      0.116      1.316
REMARK  Name = 
REMARK  5 active torsions:
REMARK  status: ('A' for Active; 'I' for Inactive)
REMARK    1  A    between atoms: C_1  and  O_2
REMARK    2  A    between atoms: O_2  and  C_3
REMARK    3  A    between atoms: C_6  and  S_7
REMARK    4  A    between atoms: S_7  and  C_10
REMARK    5  A    between atoms: C_18  and  C_19
REMARK                            x       y       z     vdW  Elec       q    Type
REMARK                         _______ _______ _______ _____ _____    ______ ____
ROOT
ATOM      1  C   UNL     1       4.382   5.280  18.777  0.00  0.00    +0.000 A 
ATOM      2  S   UNL     1       4.855   3.679  19.165  0.00  0.00    +0.000 S 
ATOM      3  C   UNL     1       3.459   3.388  20.064  0.00  0.00    +0.000 A 
ATOM      4  N   UNL     1       3.302   2.204  20.690  0.00  0.00    +0.000 NA
ATOM      5  C   UNL     1       2.146   2.084  21.367  0.00  0.00    +0.000 A 
ATOM      6  C   UNL     1       1.161   3.049  21.431  0.00  0.00    +0.000 A 
ATOM      7  C   UNL     1       1.363   4.251  20.754  0.00  0.00    +0.000 A 
ATOM      8  C   UNL     1       2.576   4.459  20.052  0.00  0.00    +0.000 A 
ATOM      9  C   UNL     1       3.120   5.587  19.298  0.00  0.00    +0.000 A 
ENDROOT
BRANCH   9  10
ATOM     10  C   UNL     1       2.473   6.906  19.134  0.00  0.00    +0.000 A 
ATOM     11  C   UNL     1       2.313   7.465  17.855  0.00  0.00    +0.000 A 
ATOM     12  C   UNL     1       1.758   8.741  17.682  0.00  0.00    +0.000 A 
ATOM     13  C   UNL     1       1.293   9.449  18.784  0.00  0.00    +0.000 A 
ATOM     14 CL   UNL     1       0.588  11.002  18.576  0.00  0.00    +0.000 Cl
ATOM     15  C   UNL     1       1.414   8.907  20.055  0.00  0.00    +0.000 A 
ATOM     16  C   UNL     1       2.037   7.665  20.227  0.00  0.00    +0.000 A 
ENDBRANCH   9  10
BRANCH   1  17
ATOM     17  S   UNL     1       5.599   6.194  17.829  0.00  0.00    +0.000 S 
ATOM     18  O   UNL     1       6.815   6.115  18.610  0.00  0.00    +0.000 OA
ATOM     19  O   UNL     1       4.965   7.470  17.534  0.00  0.00    +0.000 OA
BRANCH  17  23
ATOM     20  C   UNL     1       6.331   4.161  13.811  0.00  0.00    +0.000 A 
ATOM     21  C   UNL     1       7.373   4.836  14.459  0.00  0.00    +0.000 A 
ATOM     22  C   UNL     1       7.162   5.465  15.686  0.00  0.00    +0.000 A 
ATOM     23  C   UNL     1       5.892   5.412  16.263  0.00  0.00    +0.000 A 
ATOM     24  C   UNL     1       4.833   4.783  15.603  0.00  0.00    +0.000 A 
ATOM     25  C   UNL     1       5.055   4.154  14.378  0.00  0.00    +0.000 A 
BRANCH  20  27
ATOM     26  C   UNL     1       5.594   2.954  11.922  0.00  0.00    +0.000 C 
ATOM     27  O   UNL     1       6.665   3.583  12.618  0.00  0.00    +0.000 OA
ENDBRANCH  20  27
ENDBRANCH  17  23
ENDBRANCH   1  17
TORSDOF 4
ENDMDL
MODEL 3
REMARK VINA RESULT:      -8.1      3.223      6.890
REMARK  Name = 
REMARK  5 active torsions:
REMARK  status: ('A' for Active; 'I' for Inactive)
REMARK    1  A    between atoms: C_1  and  O_2
REMARK    2  A    between atoms: O_2  and  C_3
REMARK    3  A    between atoms: C_6  and  S_7
REMARK    4  A    between atoms: S_7  and  C_10
REMARK    5  A    between atoms: C_18  and  C_19
REMARK                            x       y       z     vdW  Elec       q    Type
REMARK                         _______ _______ _______ _____ _____    ______ ____
ROOT
ATOM      1  C   UNL     1       5.446   4.301  16.677  0.00  0.00    +0.000 A 
ATOM      2  S   UNL     1       4.924   3.216  15.457  0.00  0.00    +0.000 S 
ATOM      3  C   UNL     1       5.964   3.873  14.304  0.00  0.00    +0.000 A 
ATOM      4  N   UNL     1       5.949   3.395  13.042  0.00  0.00    +0.000 NA
ATOM      5  C   UNL     1       6.827   3.989  12.214  0.00  0.00    +0.000 A 
ATOM      6  C   UNL     1       7.707   4.989  12.578  0.00  0.00    +0.000 A 
ATOM      7  C   UNL     1       7.697   5.437  13.898  0.00  0.00    +0.000 A 
ATOM      8  C   UNL     1       6.769   4.882  14.814  0.00  0.00    +0.000 A 
ATOM      9  C   UNL     1       6.461   5.147  16.218  0.00  0.00    +0.000 A 
ENDROOT
BRANCH   9  10
ATOM     10  C   UNL     1       7.084   6.195  17.053  0.00  0.00    +0.000 A 
ATOM     11  C   UNL     1       7.023   7.544  16.664  0.00  0.00    +0.000 A 
ATOM     12  C   UNL     1       7.659   8.547  17.410  0.00  0.00    +0.000 A 
ATOM     13  C   UNL     1       8.309   8.222  18.594  0.00  0.00    +0.000 A 
ATOM     14 CL   UNL     1       9.068   9.450  19.526  0.00  0.00    +0.000 Cl
ATOM     15  C   UNL     1       8.360   6.901  19.015  0.00  0.00    +0.000 A 
ATOM     16  C   UNL     1       7.787   5.896  18.227  0.00  0.00    +0.000 A 
ENDBRANCH   9  10
BRANCH   1  17
ATOM     17  S   UNL     1       4.571   4.128  18.234  0.00  0.00    +0.000 S 
ATOM     18  O   UNL     1       5.612   4.013  19.233  0.00  0.00    +0.000 OA
ATOM     19  O   UNL     1       3.609   3.061  18.008  0.00  0.00    +0.000 OA
BRANCH  17  23
ATOM     20  C   UNL     1       2.112   7.858  19.155  0.00  0.00    +0.000 A 
ATOM     21  C   UNL     1       2.831   7.767  17.956  0.00  0.00    +0.000 A 
ATOM     22  C   UNL     1       3.590   6.635  17.664  0.00  0.00    +0.000 A 
ATOM     23  C   UNL     1       3.623   5.586  18.586  0.00  0.00    +0.000 A 
ATOM     24  C   UNL     1       2.949   5.686  19.805  0.00  0.00    +0.000 A 
ATOM     25  C   UNL     1       2.190   6.823  20.087  0.00  0.00    +0.000 A 
BRANCH  20  27
ATOM     26  C   UNL     1       1.176   9.769  18.135  0.00  0.00    +0.000 C 
ATOM     27  O   UNL     1       1.405   9.016  19.322  0.00  0.00    +0.000 OA
ENDBRANCH  20  27
ENDBRANCH  17  23
ENDBRANCH   1  17
TORSDOF 4
ENDMDL
MODEL 4
REMARK VINA RESULT:      -8.0      6.690      9.641
REMARK  Name = 
REMARK  5 active torsions:
REMARK  status: ('A' for Active; 'I' for Inactive)
REMARK    1  A    between atoms: C_1  and  O_2
REMARK    2  A    between atoms: O_2  and  C_3
REMARK    3  A    between atoms: C_6  and  S_7
REMARK    4  A    between atoms: S_7  and  C_10
REMARK    5  A    between atoms: C_18  and  C_19
REMARK                            x       y       z     vdW  Elec       q    Type
REMARK                         _______ _______ _______ _____ _____    ______ ____
ROOT
ATOM      1  C   UNL     1      -2.861  12.306  19.801  0.00  0.00    +0.000 A 
ATOM      2  S   UNL     1      -3.523  12.831  21.292  0.00  0.00    +0.000 S 
ATOM      3  C   UNL     1      -5.083  12.346  20.874  0.00  0.00    +0.000 A 
ATOM      4  N   UNL     1      -6.104  12.571  21.726  0.00  0.00    +0.000 NA
ATOM      5  C   UNL     1      -7.297  12.132  21.288  0.00  0.00    +0.000 A 
ATOM      6  C   UNL     1      -7.512  11.482  20.090  0.00  0.00    +0.000 A 
ATOM      7  C   UNL     1      -6.422  11.258  19.250  0.00  0.00    +0.000 A 
ATOM      8  C   UNL     1      -5.141  11.728  19.632  0.00  0.00    +0.000 A 
ATOM      9  C   UNL     1      -3.830  11.708  18.987  0.00  0.00    +0.000 A 
ENDROOT
BRANCH   9  10
ATOM     10  C   UNL     1      -3.542  11.184  17.635  0.00  0.00    +0.000 A 
ATOM     11  C   UNL     1      -4.210  11.704  16.514  0.00  0.00    +0.000 A 
ATOM     12  C   UNL     1      -3.997  11.179  15.231  0.00  0.00    +0.000 A 
ATOM     13  C   UNL     1      -3.061  10.169  15.043  0.00  0.00    +0.000 A 
ATOM     14 CL   UNL     1      -2.777   9.539  13.469  0.00  0.00    +0.000 Cl
ATOM     15  C   UNL     1      -2.368   9.657  16.130  0.00  0.00    +0.000 A 
ATOM     16  C   UNL     1      -2.640  10.135  17.417  0.00  0.00    +0.000 A 
ENDBRANCH   9  10
BRANCH   1  17
ATOM     17  S   UNL     1      -1.113  12.657  19.611  0.00  0.00    +0.000 S 
ATOM     18  O   UNL     1      -0.775  13.488  20.747  0.00  0.00    +0.000 OA
ATOM     19  O   UNL     1      -0.971  13.138  18.246  0.00  0.00    +0.000 OA
BRANCH  17  23
ATOM     20  C   UNL     1       1.341   8.822  19.903  0.00  0.00    +0.000 A 
ATOM     21  C   UNL     1       1.466   9.655  18.784  0.00  0.00    +0.000 A 
ATOM     22  C   UNL     1       0.719  10.827  18.681  0.00  0.00    +0.000 A 
ATOM     23  C   UNL     1      -0.159  11.164  19.713  0.00  0.00    +0.000 A 
ATOM     24  C   UNL     1      -0.328  10.317  20.811  0.00  0.00    +0.000 A 
ATOM     25  C   UNL     1       0.426   9.147  20.906  0.00  0.00    +0.000 A 
BRANCH  20  27
ATOM     26  C   UNL     1       2.473   7.218  18.594  0.00  0.00    +0.000 C 
ATOM     27  O   UNL     1       2.128   7.705  19.888  0.00  0.00    +0.000 OA
ENDBRANCH  20  27
ENDBRANCH  17  23
ENDBRANCH   1  17
TORSDOF 4
ENDMDL
MODEL 5
REMARK VINA RESULT:      -8.0      3.210      6.903
REMARK  Name = 
REMARK  5 active torsions:
REMARK  status: ('A' for Active; 'I' for Inactive)
REMARK    1  A    between atoms: C_1  and  O_2
REMARK    2  A    between atoms: O_2  and  C_3
REMARK    3  A    between atoms: C_6  and  S_7
REMARK    4  A    between atoms: S_7  and  C_10
REMARK    5  A    between atoms: C_18  and  C_19
REMARK                            x       y       z     vdW  Elec       q    Type
REMARK                         _______ _______ _______ _____ _____    ______ ____
ROOT
ATOM      1  C   UNL     1       5.487   4.443  16.790  0.00  0.00    +0.000 A 
ATOM      2  S   UNL     1       4.931   3.317  15.624  0.00  0.00    +0.000 S 
ATOM      3  C   UNL     1       5.953   3.918  14.425  0.00  0.00    +0.000 A 
ATOM      4  N   UNL     1       5.908   3.393  13.184  0.00  0.00    +0.000 NA
ATOM      5  C   UNL     1       6.775   3.946  12.317  0.00  0.00    +0.000 A 
ATOM      6  C   UNL     1       7.671   4.950  12.623  0.00  0.00    +0.000 A 
ATOM      7  C   UNL     1       7.691   5.449  13.925  0.00  0.00    +0.000 A 
ATOM      8  C   UNL     1       6.778   4.938  14.880  0.00  0.00    +0.000 A 
ATOM      9  C   UNL     1       6.501   5.260  16.279  0.00  0.00    +0.000 A 
ENDROOT
BRANCH   9  10
ATOM     10  C   UNL     1       7.149   6.334  17.060  0.00  0.00    +0.000 A 
ATOM     11  C   UNL     1       7.871   6.029  18.226  0.00  0.00    +0.000 A 
ATOM     12  C   UNL     1       8.442   7.038  19.015  0.00  0.00    +0.000 A 
ATOM     13  C   UNL     1       8.356   8.365  18.611  0.00  0.00    +0.000 A 
ATOM     14 CL   UNL     1       9.076   9.604  19.559  0.00  0.00    +0.000 Cl
ATOM     15  C   UNL     1       7.672   8.691  17.449  0.00  0.00    +0.000 A 
ATOM     16  C   UNL     1       7.041   7.685  16.706  0.00  0.00    +0.000 A 
ENDBRANCH   9  10
BRANCH   1  17
ATOM     17  S   UNL     1       4.643   4.339  18.370  0.00  0.00    +0.000 S 
ATOM     18  O   UNL     1       5.702   4.321  19.356  0.00  0.00    +0.000 OA
ATOM     19  O   UNL     1       3.714   3.229  18.228  0.00  0.00    +0.000 OA
BRANCH  17  23
ATOM     20  C   UNL     1       2.112   8.071  19.065  0.00  0.00    +0.000 A 
ATOM     21  C   UNL     1       2.134   7.046  20.021  0.00  0.00    +0.000 A 
ATOM     22  C   UNL     1       2.900   5.899  19.819  0.00  0.00    +0.000 A 
ATOM     23  C   UNL     1       3.650   5.784  18.647  0.00  0.00    +0.000 A 
ATOM     24  C   UNL     1       3.597   6.777  17.665  0.00  0.00    +0.000 A 
ATOM     25  C   UNL     1       2.830   7.923  17.878  0.00  0.00    +0.000 A 
BRANCH  20  27
ATOM     26  C   UNL     1       0.768   9.127  20.692  0.00  0.00    +0.000 C 
ATOM     27  O   UNL     1       1.326   9.143  19.381  0.00  0.00    +0.000 OA
ENDBRANCH  20  27
ENDBRANCH  17  23
ENDBRANCH   1  17
TORSDOF 4
ENDMDL
MODEL 6
REMARK VINA RESULT:      -7.9      3.240      6.894
REMARK  Name = 
REMARK  5 active torsions:
REMARK  status: ('A' for Active; 'I' for Inactive)
REMARK    1  A    between atoms: C_1  and  O_2
REMARK    2  A    between atoms: O_2  and  C_3
REMARK    3  A    between atoms: C_6  and  S_7
REMARK    4  A    between atoms: S_7  and  C_10
REMARK    5  A    between atoms: C_18  and  C_19
REMARK                            x       y       z     vdW  Elec       q    Type
REMARK                         _______ _______ _______ _____ _____    ______ ____
ROOT
ATOM      1  C   UNL     1       5.197   4.920  17.273  0.00  0.00    +0.000 A 
ATOM      2  S   UNL     1       4.548   3.743  16.211  0.00  0.00    +0.000 S 
ATOM      3  C   UNL     1       5.628   4.132  14.976  0.00  0.00    +0.000 A 
ATOM      4  N   UNL     1       5.543   3.497  13.789  0.00  0.00    +0.000 NA
ATOM      5  C   UNL     1       6.462   3.884  12.886  0.00  0.00    +0.000 A 
ATOM      6  C   UNL     1       7.443   4.829  13.109  0.00  0.00    +0.000 A 
ATOM      7  C   UNL     1       7.501   5.446  14.358  0.00  0.00    +0.000 A 
ATOM      8  C   UNL     1       6.539   5.113  15.344  0.00  0.00    +0.000 A 
ATOM      9  C   UNL     1       6.284   5.591  16.702  0.00  0.00    +0.000 A 
ENDROOT
BRANCH   9  10
ATOM     10  C   UNL     1       7.023   6.672  17.387  0.00  0.00    +0.000 A 
ATOM     11  C   UNL     1       6.908   8.002  16.948  0.00  0.00    +0.000 A 
ATOM     12  C   UNL     1       7.647   9.033  17.545  0.00  0.00    +0.000 A 
ATOM     13  C   UNL     1       8.463   8.758  18.637  0.00  0.00    +0.000 A 
ATOM     14 CL   UNL     1       9.351  10.022  19.389  0.00  0.00    +0.000 Cl
ATOM     15  C   UNL     1       8.572   7.458  19.108  0.00  0.00    +0.000 A 
ATOM     16  C   UNL     1       7.889   6.422  18.459  0.00  0.00    +0.000 A 
ENDBRANCH   9  10
BRANCH   1  17
ATOM     17  S   UNL     1       4.338   5.044  18.843  0.00  0.00    +0.000 S 
ATOM     18  O   UNL     1       5.385   5.219  19.827  0.00  0.00    +0.000 OA
ATOM     19  O   UNL     1       3.445   3.896  18.875  0.00  0.00    +0.000 OA
BRANCH  17  23
ATOM     20  C   UNL     1       1.687   8.756  18.915  0.00  0.00    +0.000 A 
ATOM     21  C   UNL     1       1.661   7.851  19.984  0.00  0.00    +0.000 A 
ATOM     22  C   UNL     1       2.463   6.712  19.973  0.00  0.00    +0.000 A 
ATOM     23  C   UNL     1       3.298   6.482  18.877  0.00  0.00    +0.000 A 
ATOM     24  C   UNL     1       3.296   7.352  17.784  0.00  0.00    +0.000 A 
ATOM     25  C   UNL     1       2.492   8.492  17.806  0.00  0.00    +0.000 A 
BRANCH  20  27
ATOM     26  C   UNL     1       0.841  10.440  20.336  0.00  0.00    +0.000 C 
ATOM     27  O   UNL     1       0.858   9.835  19.046  0.00  0.00    +0.000 OA
ENDBRANCH  20  27
ENDBRANCH  17  23
ENDBRANCH   1  17
TORSDOF 4
ENDMDL
MODEL 7
REMARK VINA RESULT:      -7.8      3.223      6.873
REMARK  Name = 
REMARK  5 active torsions:
REMARK  status: ('A' for Active; 'I' for Inactive)
REMARK    1  A    between atoms: C_1  and  O_2
REMARK    2  A    between atoms: O_2  and  C_3
REMARK    3  A    between atoms: C_6  and  S_7
REMARK    4  A    between atoms: S_7  and  C_10
REMARK    5  A    between atoms: C_18  and  C_19
REMARK                            x       y       z     vdW  Elec       q    Type
REMARK                         _______ _______ _______ _____ _____    ______ ____
ROOT
ATOM      1  C   UNL     1       5.263   4.856  17.205  0.00  0.00    +0.000 A 
ATOM      2  S   UNL     1       4.619   3.669  16.150  0.00  0.00    +0.000 S 
ATOM      3  C   UNL     1       5.682   4.070  14.904  0.00  0.00    +0.000 A 
ATOM      4  N   UNL     1       5.593   3.432  13.719  0.00  0.00    +0.000 NA
ATOM      5  C   UNL     1       6.497   3.830  12.807  0.00  0.00    +0.000 A 
ATOM      6  C   UNL     1       7.469   4.787  13.019  0.00  0.00    +0.000 A 
ATOM      7  C   UNL     1       7.531   5.407  14.267  0.00  0.00    +0.000 A 
ATOM      8  C   UNL     1       6.584   5.063  15.262  0.00  0.00    +0.000 A 
ATOM      9  C   UNL     1       6.336   5.539  16.622  0.00  0.00    +0.000 A 
ENDROOT
BRANCH   9  10
ATOM     10  C   UNL     1       7.068   6.630  17.299  0.00  0.00    +0.000 A 
ATOM     11  C   UNL     1       7.925   6.351  18.377  0.00  0.00    +0.000 A 
ATOM     12  C   UNL     1       8.581   7.377  19.072  0.00  0.00    +0.000 A 
ATOM     13  C   UNL     1       8.440   8.695  18.654  0.00  0.00    +0.000 A 
ATOM     14 CL   UNL     1       9.262   9.955  19.485  0.00  0.00    +0.000 Cl
ATOM     15  C   UNL     1       7.622   8.995  17.575  0.00  0.00    +0.000 A 
ATOM     16  C   UNL     1       6.912   7.973  16.933  0.00  0.00    +0.000 A 
ENDBRANCH   9  10
BRANCH   1  17
ATOM     17  S   UNL     1       4.418   4.971  18.783  0.00  0.00    +0.000 S 
ATOM     18  O   UNL     1       5.474   5.146  19.758  0.00  0.00    +0.000 OA
ATOM     19  O   UNL     1       3.530   3.819  18.819  0.00  0.00    +0.000 OA
BRANCH  17  23
ATOM     20  C   UNL     1       1.711   8.640  18.927  0.00  0.00    +0.000 A 
ATOM     21  C   UNL     1       2.521   8.405  17.808  0.00  0.00    +0.000 A 
ATOM     22  C   UNL     1       3.356   7.290  17.753  0.00  0.00    +0.000 A 
ATOM     23  C   UNL     1       3.373   6.404  18.832  0.00  0.00    +0.000 A 
ATOM     24  C   UNL     1       2.606   6.653  19.973  0.00  0.00    +0.000 A 
ATOM     25  C   UNL     1       1.771   7.771  20.017  0.00  0.00    +0.000 A 
BRANCH  20  27
ATOM     26  C   UNL     1       0.253  10.110  20.059  0.00  0.00    +0.000 C 
ATOM     27  O   UNL     1       0.936   9.764  18.858  0.00  0.00    +0.000 OA
ENDBRANCH  20  27
ENDBRANCH  17  23
ENDBRANCH   1  17
TORSDOF 4
ENDMDL
MODEL 8
REMARK VINA RESULT:      -7.8      6.234      8.924
REMARK  Name = 
REMARK  5 active torsions:
REMARK  status: ('A' for Active; 'I' for Inactive)
REMARK    1  A    between atoms: C_1  and  O_2
REMARK    2  A    between atoms: O_2  and  C_3
REMARK    3  A    between atoms: C_6  and  S_7
REMARK    4  A    between atoms: S_7  and  C_10
REMARK    5  A    between atoms: C_18  and  C_19
REMARK                            x       y       z     vdW  Elec       q    Type
REMARK                         _______ _______ _______ _____ _____    ______ ____
ROOT
ATOM      1  C   UNL     1      -0.500  11.775  19.960  0.00  0.00    +0.000 A 
ATOM      2  S   UNL     1      -1.913  12.739  19.859  0.00  0.00    +0.000 S 
ATOM      3  C   UNL     1      -2.641  11.713  18.737  0.00  0.00    +0.000 A 
ATOM      4  N   UNL     1      -3.851  12.028  18.231  0.00  0.00    +0.000 NA
ATOM      5  C   UNL     1      -4.335  11.132  17.352  0.00  0.00    +0.000 A 
ATOM      6  C   UNL     1      -3.700   9.963  16.982  0.00  0.00    +0.000 A 
ATOM      7  C   UNL     1      -2.458   9.673  17.545  0.00  0.00    +0.000 A 
ATOM      8  C   UNL     1      -1.872  10.594  18.449  0.00  0.00    +0.000 A 
ATOM      9  C   UNL     1      -0.598  10.628  19.165  0.00  0.00    +0.000 A 
ENDROOT
BRANCH   9  10
ATOM     10  C   UNL     1       0.484   9.628  19.045  0.00  0.00    +0.000 A 
ATOM     11  C   UNL     1       1.225   9.521  17.856  0.00  0.00    +0.000 A 
ATOM     12  C   UNL     1       2.214   8.539  17.699  0.00  0.00    +0.000 A 
ATOM     13  C   UNL     1       2.522   7.692  18.757  0.00  0.00    +0.000 A 
ATOM     14 CL   UNL     1       3.751   6.504  18.581  0.00  0.00    +0.000 Cl
ATOM     15  C   UNL     1       1.825   7.796  19.952  0.00  0.00    +0.000 A 
ATOM     16  C   UNL     1       0.788   8.729  20.075  0.00  0.00    +0.000 A 
ENDBRANCH   9  10
BRANCH   1  17
ATOM     17  S   UNL     1       0.775  12.451  21.025  0.00  0.00    +0.000 S 
ATOM     18  O   UNL     1       1.369  11.301  21.671  0.00  0.00    +0.000 OA
ATOM     19  O   UNL     1       0.113  13.498  21.787  0.00  0.00    +0.000 OA
BRANCH  17  23
ATOM     20  C   UNL     1       4.004  14.549  18.577  0.00  0.00    +0.000 A 
ATOM     21  C   UNL     1       3.069  13.718  17.945  0.00  0.00    +0.000 A 
ATOM     22  C   UNL     1       2.080  13.068  18.682  0.00  0.00    +0.000 A 
ATOM     23  C   UNL     1       2.031  13.258  20.065  0.00  0.00    +0.000 A 
ATOM     24  C   UNL     1       2.988  14.045  20.711  0.00  0.00    +0.000 A 
ATOM     25  C   UNL     1       3.972  14.694  19.965  0.00  0.00    +0.000 A 
BRANCH  20  27
ATOM     26  C   UNL     1       6.247  14.624  17.848  0.00  0.00    +0.000 C 
ATOM     27  O   UNL     1       4.920  15.130  17.746  0.00  0.00    +0.000 OA
ENDBRANCH  20  27
ENDBRANCH  17  23
ENDBRANCH   1  17
TORSDOF 4
ENDMDL
MODEL 9
REMARK VINA RESULT:      -7.5      5.494      8.651
REMARK  Name = 
REMARK  5 active torsions:
REMARK  status: ('A' for Active; 'I' for Inactive)
REMARK    1  A    between atoms: C_1  and  O_2
REMARK    2  A    between atoms: O_2  and  C_3
REMARK    3  A    between atoms: C_6  and  S_7
REMARK    4  A    between atoms: S_7  and  C_10
REMARK    5  A    between atoms: C_18  and  C_19
REMARK                            x       y       z     vdW  Elec       q    Type
REMARK                         _______ _______ _______ _____ _____    ______ ____
ROOT
ATOM      1  C   UNL     1       0.407  12.042  20.398  0.00  0.00    +0.000 A 
ATOM      2  S   UNL     1       1.896  12.832  20.707  0.00  0.00    +0.000 S 
ATOM      3  C   UNL     1       1.441  14.215  19.858  0.00  0.00    +0.000 A 
ATOM      4  N   UNL     1       2.314  15.236  19.726  0.00  0.00    +0.000 NA
ATOM      5  C   UNL     1       1.836  16.288  19.037  0.00  0.00    +0.000 A 
ATOM      6  C   UNL     1       0.563  16.378  18.509  0.00  0.00    +0.000 A 
ATOM      7  C   UNL     1      -0.308  15.304  18.686  0.00  0.00    +0.000 A 
ATOM      8  C   UNL     1       0.144  14.147  19.369  0.00  0.00    +0.000 A 
ATOM      9  C   UNL     1      -0.473  12.858  19.679  0.00  0.00    +0.000 A 
ENDROOT
BRANCH   9  10
ATOM     10  C   UNL     1      -1.821  12.425  19.257  0.00  0.00    +0.000 A 
ATOM     11  C   UNL     1      -1.996  11.706  18.062  0.00  0.00    +0.000 A 
ATOM     12  C   UNL     1      -3.272  11.338  17.612  0.00  0.00    +0.000 A 
ATOM     13  C   UNL     1      -4.389  11.627  18.388  0.00  0.00    +0.000 A 
ATOM     14 CL   UNL     1      -5.954  11.156  17.856  0.00  0.00    +0.000 Cl
ATOM     15  C   UNL     1      -4.241  12.311  19.586  0.00  0.00    +0.000 A 
ATOM     16  C   UNL     1      -2.971  12.740  19.991  0.00  0.00    +0.000 A 
ENDBRANCH   9  10
BRANCH   1  17
ATOM     17  S   UNL     1       0.320  10.367  21.035  0.00  0.00    +0.000 S 
ATOM     18  O   UNL     1      -1.087  10.031  21.003  0.00  0.00    +0.000 OA
ATOM     19  O   UNL     1       1.068  10.399  22.281  0.00  0.00    +0.000 OA
BRANCH  17  23
ATOM     20  C   UNL     1       2.522   7.490  18.263  0.00  0.00    +0.000 A 
ATOM     21  C   UNL     1       2.344   7.168  19.615  0.00  0.00    +0.000 A 
ATOM     22  C   UNL     1       1.676   8.040  20.473  0.00  0.00    +0.000 A 
ATOM     23  C   UNL     1       1.184   9.244  19.966  0.00  0.00    +0.000 A 
ATOM     24  C   UNL     1       1.398   9.597  18.631  0.00  0.00    +0.000 A 
ATOM     25  C   UNL     1       2.065   8.716  17.779  0.00  0.00    +0.000 A 
BRANCH  20  27
ATOM     26  C   UNL     1       2.965   5.199  17.910  0.00  0.00    +0.000 C 
ATOM     27  O   UNL     1       3.189   6.552  17.526  0.00  0.00    +0.000 OA
ENDBRANCH  20  27
ENDBRANCH  17  23
ENDBRANCH   1  17
TORSDOF 4
ENDMDL
