MODEL 1
REMARK VINA RESULT:      -7.7      0.000      0.000
REMARK  Name = 
REMARK  8 active torsions:
REMARK  status: ('A' for Active; 'I' for Inactive)
REMARK    1  A    between atoms: C_1  and  C_2
REMARK    2  A    between atoms: C_2  and  C_3
REMARK    3  A    between atoms: C_2  and  N_4
REMARK    4  A    between atoms: C_6  and  C_7
REMARK    5  A    between atoms: N_12  and  C_13
REMARK    6  A    between atoms: C_18  and  C_19
REMARK    7  A    between atoms: C_19  and  N_20
REMARK    8  A    between atoms: C_27  and  C_28
REMARK                            x       y       z     vdW  Elec       q    Type
REMARK                         _______ _______ _______ _____ _____    ______ ____
ROOT
ATOM      1  C   UNL     1       0.142  10.635  18.688  0.00  0.00    +0.000 C 
ATOM      2  O   UNL     1      -0.122  10.946  17.529  0.00  0.00    +0.000 OA
ATOM      3  N   UNL     1       0.859   9.495  19.013  0.00  0.00    +0.000 N 
ATOM      4  C   UNL     1       1.461   8.674  17.941  0.00  0.00    +0.000 C 
ATOM      5  C   UNL     1       2.613   7.764  18.456  0.00  0.00    +0.000 C 
ATOM      6  N   UNL     1       2.200   7.068  19.702  0.00  0.00    +0.000 N 
ATOM      7  C   UNL     1       1.817   8.004  20.749  0.00  0.00    +0.000 C 
ATOM      8  C   UNL     1       0.595   8.764  20.255  0.00  0.00    +0.000 C 
ENDROOT
BRANCH   6   9
ATOM      9  C   UNL     1       2.360   5.716  19.933  0.00  0.00    +0.000 A 
ATOM     10  C   UNL     1       1.274   5.004  20.483  0.00  0.00    +0.000 A 
ATOM     11  C   UNL     1       1.354   3.662  20.852  0.00  0.00    +0.000 A 
ATOM     12  C   UNL     1       2.536   2.969  20.658  0.00  0.00    +0.000 A 
ATOM     13  C   UNL     1       3.619   3.616  20.082  0.00  0.00    +0.000 A 
ATOM     14  C   UNL     1       3.565   4.982  19.707  0.00  0.00    +0.000 A 
BRANCH  14  15
ATOM     15  C   UNL     1       4.895   5.558  19.241  0.00  0.00    +0.000 C 
BRANCH  15  16
ATOM     16  N   UNL     1       5.338   5.212  17.886  0.00  0.00    +0.000 N 
ATOM     17  C   UNL     1       4.596   5.050  16.752  0.00  0.00    +0.000 A 
ATOM     18  C   UNL     1       5.426   4.487  15.811  0.00  0.00    +0.000 A 
ATOM     19  C   UNL     1       6.662   4.352  16.461  0.00  0.00    +0.000 A 
ATOM     20  N   UNL     1       6.628   4.818  17.713  0.00  0.00    +0.000 NA
ENDBRANCH  15  16
ENDBRANCH  14  15
ENDBRANCH   6   9
BRANCH   1  23
ATOM     21  N   UNL     1      -1.869  12.602  21.206  0.00  0.00    +0.000 NA
ATOM     22  C   UNL     1      -1.652  11.427  20.351  0.00  0.00    +0.000 C 
ATOM     23  C   UNL     1      -0.205  11.538  19.881  0.00  0.00    +0.000 C 
ATOM     24  C   UNL     1      -0.072  13.037  19.608  0.00  0.00    +0.000 C 
ATOM     25  C   UNL     1      -1.007  13.668  20.667  0.00  0.00    +0.000 C 
BRANCH  24  26
ATOM     26  C   UNL     1       1.386  13.472  19.627  0.00  0.00    +0.000 A 
ATOM     27  C   UNL     1       2.036  13.622  20.862  0.00  0.00    +0.000 A 
ATOM     28  C   UNL     1       3.336  14.131  20.936  0.00  0.00    +0.000 A 
ATOM     29  C   UNL     1       4.003  14.492  19.769  0.00  0.00    +0.000 A 
ATOM     30 CL   UNL     1       5.586  15.157  19.852  0.00  0.00    +0.000 Cl
ATOM     31  C   UNL     1       3.385  14.335  18.534  0.00  0.00    +0.000 A 
ATOM     32  C   UNL     1       2.084  13.832  18.466  0.00  0.00    +0.000 A 
ENDBRANCH  24  26
BRANCH  21  34
ATOM     33  C   UNL     1      -1.144  11.019  23.103  0.00  0.00    +0.000 C 
ATOM     34  C   UNL     1      -1.790  12.338  22.657  0.00  0.00    +0.000 C 
ATOM     35  C   UNL     1      -1.116  13.506  23.391  0.00  0.00    +0.000 C 
ENDBRANCH  21  34
ENDBRANCH   1  23
TORSDOF 6
ENDMDL
MODEL 2
REMARK VINA RESULT:      -7.7      2.849      8.909
REMARK  Name = 
REMARK  8 active torsions:
REMARK  status: ('A' for Active; 'I' for Inactive)
REMARK    1  A    between atoms: C_1  and  C_2
REMARK    2  A    between atoms: C_2  and  C_3
REMARK    3  A    between atoms: C_2  and  N_4
REMARK    4  A    between atoms: C_6  and  C_7
REMARK    5  A    between atoms: N_12  and  C_13
REMARK    6  A    between atoms: C_18  and  C_19
REMARK    7  A    between atoms: C_19  and  N_20
REMARK    8  A    between atoms: C_27  and  C_28
REMARK                            x       y       z     vdW  Elec       q    Type
REMARK                         _______ _______ _______ _____ _____    ______ ____
ROOT
ATOM      1  C   UNL     1       2.250   7.977  18.301  0.00  0.00    +0.000 C 
ATOM      2  O   UNL     1       2.813   8.313  17.261  0.00  0.00    +0.000 OA
ATOM      3  N   UNL     1       1.429   8.831  19.018  0.00  0.00    +0.000 N 
ATOM      4  C   UNL     1       1.084  10.157  18.465  0.00  0.00    +0.000 C 
ATOM      5  C   UNL     1      -0.197  10.763  19.108  0.00  0.00    +0.000 C 
ATOM      6  N   UNL     1      -0.142  10.629  20.587  0.00  0.00    +0.000 N 
ATOM      7  C   UNL     1       0.001   9.243  21.005  0.00  0.00    +0.000 C 
ATOM      8  C   UNL     1       1.338   8.745  20.478  0.00  0.00    +0.000 C 
ENDROOT
BRANCH   6   9
ATOM      9  C   UNL     1      -0.411  11.653  21.474  0.00  0.00    +0.000 A 
ATOM     10  C   UNL     1      -1.431  11.452  22.427  0.00  0.00    +0.000 A 
ATOM     11  C   UNL     1      -1.859  12.449  23.304  0.00  0.00    +0.000 A 
ATOM     12  C   UNL     1      -1.253  13.692  23.272  0.00  0.00    +0.000 A 
ATOM     13  C   UNL     1      -0.217  13.925  22.379  0.00  0.00    +0.000 A 
ATOM     14  C   UNL     1       0.229  12.930  21.472  0.00  0.00    +0.000 A 
BRANCH  14  15
ATOM     15  C   UNL     1       1.261  13.417  20.465  0.00  0.00    +0.000 C 
BRANCH  15  16
ATOM     16  N   UNL     1       0.969  14.668  19.756  0.00  0.00    +0.000 N 
ATOM     17  C   UNL     1       1.527  15.902  19.920  0.00  0.00    +0.000 A 
ATOM     18  C   UNL     1       0.749  16.788  19.211  0.00  0.00    +0.000 A 
ATOM     19  C   UNL     1      -0.258  15.997  18.636  0.00  0.00    +0.000 A 
ATOM     20  N   UNL     1      -0.116  14.703  18.936  0.00  0.00    +0.000 NA
ENDBRANCH  15  16
ENDBRANCH  14  15
ENDBRANCH   6   9
BRANCH   1  23
ATOM     21  N   UNL     1       2.210   5.073  20.713  0.00  0.00    +0.000 NA
ATOM     22  C   UNL     1       1.713   6.369  20.234  0.00  0.00    +0.000 C 
ATOM     23  C   UNL     1       2.321   6.543  18.847  0.00  0.00    +0.000 C 
ATOM     24  C   UNL     1       3.739   6.006  19.051  0.00  0.00    +0.000 C 
ATOM     25  C   UNL     1       3.542   4.894  20.109  0.00  0.00    +0.000 C 
BRANCH  24  26
ATOM     26  C   UNL     1       4.369   5.597  17.728  0.00  0.00    +0.000 A 
ATOM     27  C   UNL     1       4.018   4.362  17.160  0.00  0.00    +0.000 A 
ATOM     28  C   UNL     1       4.656   3.890  16.009  0.00  0.00    +0.000 A 
ATOM     29  C   UNL     1       5.650   4.656  15.408  0.00  0.00    +0.000 A 
ATOM     30 CL   UNL     1       6.468   4.068  14.015  0.00  0.00    +0.000 Cl
ATOM     31  C   UNL     1       6.000   5.890  15.942  0.00  0.00    +0.000 A 
ATOM     32  C   UNL     1       5.365   6.354  17.096  0.00  0.00    +0.000 A 
ENDBRANCH  24  26
BRANCH  21  34
ATOM     33  C   UNL     1       1.089   3.320  19.195  0.00  0.00    +0.000 C 
ATOM     34  C   UNL     1       1.254   3.954  20.583  0.00  0.00    +0.000 C 
ATOM     35  C   UNL     1       1.555   2.854  21.611  0.00  0.00    +0.000 C 
ENDBRANCH  21  34
ENDBRANCH   1  23
TORSDOF 6
ENDMDL
MODEL 3
REMARK VINA RESULT:      -7.6      2.808      8.692
REMARK  Name = 
REMARK  8 active torsions:
REMARK  status: ('A' for Active; 'I' for Inactive)
REMARK    1  A    between atoms: C_1  and  C_2
REMARK    2  A    between atoms: C_2  and  C_3
REMARK    3  A    between atoms: C_2  and  N_4
REMARK    4  A    between atoms: C_6  and  C_7
REMARK    5  A    between atoms: N_12  and  C_13
REMARK    6  A    between atoms: C_18  and  C_19
REMARK    7  A    between atoms: C_19  and  N_20
REMARK    8  A    between atoms: C_27  and  C_28
REMARK                            x       y       z     vdW  Elec       q    Type
REMARK                         _______ _______ _______ _____ _____    ______ ____
ROOT
ATOM      1  C   UNL     1       2.310   7.936  18.313  0.00  0.00    +0.000 C 
ATOM      2  O   UNL     1       2.884   8.268  17.279  0.00  0.00    +0.000 OA
ATOM      3  N   UNL     1       1.484   8.793  19.021  0.00  0.00    +0.000 N 
ATOM      4  C   UNL     1       1.151  10.121  18.463  0.00  0.00    +0.000 C 
ATOM      5  C   UNL     1      -0.134  10.733  19.091  0.00  0.00    +0.000 C 
ATOM      6  N   UNL     1      -0.095  10.601  20.570  0.00  0.00    +0.000 N 
ATOM      7  C   UNL     1       0.037   9.214  20.992  0.00  0.00    +0.000 C 
ATOM      8  C   UNL     1       1.378   8.710  20.479  0.00  0.00    +0.000 C 
ENDROOT
BRANCH   6   9
ATOM      9  C   UNL     1      -0.369  11.626  21.454  0.00  0.00    +0.000 A 
ATOM     10  C   UNL     1      -1.367  11.414  22.428  0.00  0.00    +0.000 A 
ATOM     11  C   UNL     1      -1.798  12.409  23.303  0.00  0.00    +0.000 A 
ATOM     12  C   UNL     1      -1.220  13.665  23.250  0.00  0.00    +0.000 A 
ATOM     13  C   UNL     1      -0.205  13.910  22.335  0.00  0.00    +0.000 A 
ATOM     14  C   UNL     1       0.245  12.917  21.429  0.00  0.00    +0.000 A 
BRANCH  14  15
ATOM     15  C   UNL     1       1.249  13.415  20.399  0.00  0.00    +0.000 C 
BRANCH  15  16
ATOM     16  N   UNL     1       2.373  14.218  20.893  0.00  0.00    +0.000 N 
ATOM     17  C   UNL     1       2.726  15.497  20.572  0.00  0.00    +0.000 A 
ATOM     18  C   UNL     1       3.979  15.708  21.097  0.00  0.00    +0.000 A 
ATOM     19  C   UNL     1       4.307  14.500  21.732  0.00  0.00    +0.000 A 
ATOM     20  N   UNL     1       3.326  13.598  21.641  0.00  0.00    +0.000 NA
ENDBRANCH  15  16
ENDBRANCH  14  15
ENDBRANCH   6   9
BRANCH   1  23
ATOM     21  N   UNL     1       2.245   5.036  20.730  0.00  0.00    +0.000 NA
ATOM     22  C   UNL     1       1.759   6.335  20.249  0.00  0.00    +0.000 C 
ATOM     23  C   UNL     1       2.368   6.502  18.861  0.00  0.00    +0.000 C 
ATOM     24  C   UNL     1       3.782   5.953  19.066  0.00  0.00    +0.000 C 
ATOM     25  C   UNL     1       3.575   4.845  20.126  0.00  0.00    +0.000 C 
BRANCH  24  26
ATOM     26  C   UNL     1       4.408   5.537  17.744  0.00  0.00    +0.000 A 
ATOM     27  C   UNL     1       4.004   4.330  17.150  0.00  0.00    +0.000 A 
ATOM     28  C   UNL     1       4.633   3.848  15.998  0.00  0.00    +0.000 A 
ATOM     29  C   UNL     1       5.672   4.574  15.423  0.00  0.00    +0.000 A 
ATOM     30 CL   UNL     1       6.478   3.970  14.030  0.00  0.00    +0.000 Cl
ATOM     31  C   UNL     1       6.075   5.780  15.984  0.00  0.00    +0.000 A 
ATOM     32  C   UNL     1       5.448   6.255  17.138  0.00  0.00    +0.000 A 
ENDBRANCH  24  26
BRANCH  21  34
ATOM     33  C   UNL     1       1.120   3.279  19.219  0.00  0.00    +0.000 C 
ATOM     34  C   UNL     1       1.280   3.925  20.602  0.00  0.00    +0.000 C 
ATOM     35  C   UNL     1       1.561   2.831  21.643  0.00  0.00    +0.000 C 
ENDBRANCH  21  34
ENDBRANCH   1  23
TORSDOF 6
ENDMDL
MODEL 4
REMARK VINA RESULT:      -7.6      2.873      4.643
REMARK  Name = 
REMARK  8 active torsions:
REMARK  status: ('A' for Active; 'I' for Inactive)
REMARK    1  A    between atoms: C_1  and  C_2
REMARK    2  A    between atoms: C_2  and  C_3
REMARK    3  A    between atoms: C_2  and  N_4
REMARK    4  A    between atoms: C_6  and  C_7
REMARK    5  A    between atoms: N_12  and  C_13
REMARK    6  A    between atoms: C_18  and  C_19
REMARK    7  A    between atoms: C_19  and  N_20
REMARK    8  A    between atoms: C_27  and  C_28
REMARK                            x       y       z     vdW  Elec       q    Type
REMARK                         _______ _______ _______ _____ _____    ______ ____
ROOT
ATOM      1  C   UNL     1       0.508  10.039  20.762  0.00  0.00    +0.000 C 
ATOM      2  O   UNL     1       0.737  10.278  21.945  0.00  0.00    +0.000 OA
ATOM      3  N   UNL     1       1.099   8.988  20.081  0.00  0.00    +0.000 N 
ATOM      4  C   UNL     1       1.936   8.015  20.814  0.00  0.00    +0.000 C 
ATOM      5  C   UNL     1       2.098   6.667  20.054  0.00  0.00    +0.000 C 
ATOM      6  N   UNL     1       2.429   6.919  18.627  0.00  0.00    +0.000 N 
ATOM      7  C   UNL     1       1.417   7.730  17.966  0.00  0.00    +0.000 C 
ATOM      8  C   UNL     1       1.405   9.088  18.651  0.00  0.00    +0.000 C 
ENDROOT
BRANCH   6   9
ATOM      9  C   UNL     1       3.449   6.291  17.939  0.00  0.00    +0.000 A 
ATOM     10  C   UNL     1       4.566   7.064  17.560  0.00  0.00    +0.000 A 
ATOM     11  C   UNL     1       5.605   6.565  16.775  0.00  0.00    +0.000 A 
ATOM     12  C   UNL     1       5.573   5.246  16.358  0.00  0.00    +0.000 A 
ATOM     13  C   UNL     1       4.514   4.434  16.741  0.00  0.00    +0.000 A 
ATOM     14  C   UNL     1       3.442   4.923  17.530  0.00  0.00    +0.000 A 
BRANCH  14  15
ATOM     15  C   UNL     1       2.298   3.935  17.714  0.00  0.00    +0.000 C 
BRANCH  15  16
ATOM     16  N   UNL     1       2.102   3.379  19.058  0.00  0.00    +0.000 N 
ATOM     17  C   UNL     1       0.943   3.194  19.754  0.00  0.00    +0.000 A 
ATOM     18  C   UNL     1       1.300   2.885  21.046  0.00  0.00    +0.000 A 
ATOM     19  C   UNL     1       2.703   2.894  21.040  0.00  0.00    +0.000 A 
ATOM     20  N   UNL     1       3.202   3.163  19.830  0.00  0.00    +0.000 NA
ENDBRANCH  15  16
ENDBRANCH  14  15
ENDBRANCH   6   9
BRANCH   1  23
ATOM     21  N   UNL     1      -1.242  11.706  17.861  0.00  0.00    +0.000 NA
ATOM     22  C   UNL     1      -0.444  10.620  18.444  0.00  0.00    +0.000 C 
ATOM     23  C   UNL     1      -0.539  10.821  19.953  0.00  0.00    +0.000 C 
ATOM     24  C   UNL     1      -0.438  12.342  20.079  0.00  0.00    +0.000 C 
ATOM     25  C   UNL     1      -1.128  12.845  18.788  0.00  0.00    +0.000 C 
BRANCH  24  26
ATOM     26  C   UNL     1      -1.012  12.825  21.402  0.00  0.00    +0.000 A 
ATOM     27  C   UNL     1      -2.297  12.402  21.781  0.00  0.00    +0.000 A 
ATOM     28  C   UNL     1      -2.914  12.910  22.928  0.00  0.00    +0.000 A 
ATOM     29  C   UNL     1      -2.247  13.844  23.714  0.00  0.00    +0.000 A 
ATOM     30 CL   UNL     1      -3.013  14.504  25.105  0.00  0.00    +0.000 Cl
ATOM     31  C   UNL     1      -0.967  14.261  23.369  0.00  0.00    +0.000 A 
ATOM     32  C   UNL     1      -0.358  13.757  22.219  0.00  0.00    +0.000 A 
ENDBRANCH  24  26
BRANCH  21  34
ATOM     33  C   UNL     1      -2.821   9.861  17.005  0.00  0.00    +0.000 C 
ATOM     34  C   UNL     1      -2.602  11.318  17.432  0.00  0.00    +0.000 C 
ATOM     35  C   UNL     1      -3.641  11.697  18.497  0.00  0.00    +0.000 C 
ENDBRANCH  21  34
ENDBRANCH   1  23
TORSDOF 6
ENDMDL
MODEL 5
REMARK VINA RESULT:      -7.6      1.020      1.205
REMARK  Name = 
REMARK  8 active torsions:
REMARK  status: ('A' for Active; 'I' for Inactive)
REMARK    1  A    between atoms: C_1  and  C_2
REMARK    2  A    between atoms: C_2  and  C_3
REMARK    3  A    between atoms: C_2  and  N_4
REMARK    4  A    between atoms: C_6  and  C_7
REMARK    5  A    between atoms: N_12  and  C_13
REMARK    6  A    between atoms: C_18  and  C_19
REMARK    7  A    between atoms: C_19  and  N_20
REMARK    8  A    between atoms: C_27  and  C_28
REMARK                            x       y       z     vdW  Elec       q    Type
REMARK                         _______ _______ _______ _____ _____    ______ ____
ROOT
ATOM      1  C   UNL     1       1.455  10.178  18.522  0.00  0.00    +0.000 C 
ATOM      2  O   UNL     1       1.599  10.661  17.403  0.00  0.00    +0.000 OA
ATOM      3  N   UNL     1       1.870   8.897  18.846  0.00  0.00    +0.000 N 
ATOM      4  C   UNL     1       2.647   8.107  17.867  0.00  0.00    +0.000 C 
ATOM      5  C   UNL     1       3.449   6.949  18.529  0.00  0.00    +0.000 C 
ATOM      6  N   UNL     1       2.584   6.204  19.481  0.00  0.00    +0.000 N 
ATOM      7  C   UNL     1       2.039   7.070  20.516  0.00  0.00    +0.000 C 
ATOM      8  C   UNL     1       1.144   8.091  19.830  0.00  0.00    +0.000 C 
ENDROOT
BRANCH   6   9
ATOM      9  C   UNL     1       2.474   4.828  19.524  0.00  0.00    +0.000 A 
ATOM     10  C   UNL     1       1.211   4.273  19.813  0.00  0.00    +0.000 A 
ATOM     11  C   UNL     1       1.003   2.905  19.985  0.00  0.00    +0.000 A 
ATOM     12  C   UNL     1       2.066   2.029  19.846  0.00  0.00    +0.000 A 
ATOM     13  C   UNL     1       3.321   2.525  19.522  0.00  0.00    +0.000 A 
ATOM     14  C   UNL     1       3.558   3.913  19.352  0.00  0.00    +0.000 A 
BRANCH  14  15
ATOM     15  C   UNL     1       5.023   4.280  19.158  0.00  0.00    +0.000 C 
BRANCH  15  16
ATOM     16  N   UNL     1       5.514   4.369  17.778  0.00  0.00    +0.000 N 
ATOM     17  C   UNL     1       4.869   4.073  16.612  0.00  0.00    +0.000 A 
ATOM     18  C   UNL     1       5.820   4.075  15.619  0.00  0.00    +0.000 A 
ATOM     19  C   UNL     1       7.019   4.394  16.275  0.00  0.00    +0.000 A 
ATOM     20  N   UNL     1       6.839   4.605  17.582  0.00  0.00    +0.000 NA
ENDBRANCH  15  16
ENDBRANCH  14  15
ENDBRANCH   6   9
BRANCH   1  23
ATOM     21  N   UNL     1      -0.990  11.666  20.985  0.00  0.00    +0.000 NA
ATOM     22  C   UNL     1      -0.502  10.564  20.146  0.00  0.00    +0.000 C 
ATOM     23  C   UNL     1       0.893  10.988  19.701  0.00  0.00    +0.000 C 
ATOM     24  C   UNL     1       0.699  12.479  19.417  0.00  0.00    +0.000 C 
ATOM     25  C   UNL     1      -0.373  12.894  20.452  0.00  0.00    +0.000 C 
BRANCH  24  26
ATOM     26  C   UNL     1       2.024  13.224  19.457  0.00  0.00    +0.000 A 
ATOM     27  C   UNL     1       2.595  13.531  20.704  0.00  0.00    +0.000 A 
ATOM     28  C   UNL     1       3.748  14.316  20.795  0.00  0.00    +0.000 A 
ATOM     29  C   UNL     1       4.348  14.798  19.635  0.00  0.00    +0.000 A 
ATOM     30 CL   UNL     1       5.744  15.796  19.738  0.00  0.00    +0.000 Cl
ATOM     31  C   UNL     1       3.811  14.490  18.391  0.00  0.00    +0.000 A 
ATOM     32  C   UNL     1       2.655  13.712  18.305  0.00  0.00    +0.000 A 
ENDBRANCH  24  26
BRANCH  21  34
ATOM     33  C   UNL     1      -2.058  11.884  23.319  0.00  0.00    +0.000 C 
ATOM     34  C   UNL     1      -0.883  11.433  22.440  0.00  0.00    +0.000 C 
ATOM     35  C   UNL     1      -0.563   9.961  22.738  0.00  0.00    +0.000 C 
ENDBRANCH  21  34
ENDBRANCH   1  23
TORSDOF 6
ENDMDL
MODEL 6
REMARK VINA RESULT:      -7.5      0.880      1.319
REMARK  Name = 
REMARK  8 active torsions:
REMARK  status: ('A' for Active; 'I' for Inactive)
REMARK    1  A    between atoms: C_1  and  C_2
REMARK    2  A    between atoms: C_2  and  C_3
REMARK    3  A    between atoms: C_2  and  N_4
REMARK    4  A    between atoms: C_6  and  C_7
REMARK    5  A    between atoms: N_12  and  C_13
REMARK    6  A    between atoms: C_18  and  C_19
REMARK    7  A    between atoms: C_19  and  N_20
REMARK    8  A    between atoms: C_27  and  C_28
REMARK                            x       y       z     vdW  Elec       q    Type
REMARK                         _______ _______ _______ _____ _____    ______ ____
ROOT
ATOM      1  C   UNL     1      -0.363  11.223  18.792  0.00  0.00    +0.000 C 
ATOM      2  O   UNL     1      -0.748  11.542  17.670  0.00  0.00    +0.000 OA
ATOM      3  N   UNL     1       0.455  10.128  19.022  0.00  0.00    +0.000 N 
ATOM      4  C   UNL     1       1.015   9.377  17.879  0.00  0.00    +0.000 C 
ATOM      5  C   UNL     1       2.267   8.538  18.266  0.00  0.00    +0.000 C 
ATOM      6  N   UNL     1       2.012   7.786  19.522  0.00  0.00    +0.000 N 
ATOM      7  C   UNL     1       1.660   8.668  20.625  0.00  0.00    +0.000 C 
ATOM      8  C   UNL     1       0.351   9.352  20.260  0.00  0.00    +0.000 C 
ENDROOT
BRANCH   6   9
ATOM      9  C   UNL     1       2.283   6.443  19.698  0.00  0.00    +0.000 A 
ATOM     10  C   UNL     1       1.522   5.733  20.651  0.00  0.00    +0.000 A 
ATOM     11  C   UNL     1       1.775   4.404  20.986  0.00  0.00    +0.000 A 
ATOM     12  C   UNL     1       2.798   3.721  20.352  0.00  0.00    +0.000 A 
ATOM     13  C   UNL     1       3.547   4.365  19.378  0.00  0.00    +0.000 A 
ATOM     14  C   UNL     1       3.315   5.719  19.026  0.00  0.00    +0.000 A 
BRANCH  14  15
ATOM     15  C   UNL     1       4.335   6.300  18.057  0.00  0.00    +0.000 C 
BRANCH  15  16
ATOM     16  N   UNL     1       5.598   5.569  17.896  0.00  0.00    +0.000 N 
ATOM     17  C   UNL     1       6.690   5.545  18.713  0.00  0.00    +0.000 A 
ATOM     18  C   UNL     1       7.699   4.926  18.012  0.00  0.00    +0.000 A 
ATOM     19  C   UNL     1       7.122   4.596  16.776  0.00  0.00    +0.000 A 
ATOM     20  N   UNL     1       5.837   4.955  16.706  0.00  0.00    +0.000 NA
ENDBRANCH  15  16
ENDBRANCH  14  15
ENDBRANCH   6   9
BRANCH   1  23
ATOM     21  N   UNL     1      -2.277  13.085  21.461  0.00  0.00    +0.000 NA
ATOM     22  C   UNL     1      -2.097  11.951  20.546  0.00  0.00    +0.000 C 
ATOM     23  C   UNL     1      -0.665  12.071  20.037  0.00  0.00    +0.000 C 
ATOM     24  C   UNL     1      -0.525  13.581  19.831  0.00  0.00    +0.000 C 
ATOM     25  C   UNL     1      -1.421  14.169  20.947  0.00  0.00    +0.000 C 
BRANCH  24  26
ATOM     26  C   UNL     1       0.936  14.003  19.824  0.00  0.00    +0.000 A 
ATOM     27  C   UNL     1       1.461  14.622  18.678  0.00  0.00    +0.000 A 
ATOM     28  C   UNL     1       2.823  14.920  18.579  0.00  0.00    +0.000 A 
ATOM     29  C   UNL     1       3.676  14.608  19.634  0.00  0.00    +0.000 A 
ATOM     30 CL   UNL     1       5.359  14.935  19.506  0.00  0.00    +0.000 Cl
ATOM     31  C   UNL     1       3.175  14.013  20.785  0.00  0.00    +0.000 A 
ATOM     32  C   UNL     1       1.815  13.710  20.876  0.00  0.00    +0.000 A 
ENDBRANCH  24  26
BRANCH  21  34
ATOM     33  C   UNL     1      -1.621  11.359  23.258  0.00  0.00    +0.000 C 
ATOM     34  C   UNL     1      -2.155  12.752  22.896  0.00  0.00    +0.000 C 
ATOM     35  C   UNL     1      -1.337  13.818  23.639  0.00  0.00    +0.000 C 
ENDBRANCH  21  34
ENDBRANCH   1  23
TORSDOF 6
ENDMDL
MODEL 7
REMARK VINA RESULT:      -7.5      0.458      1.212
REMARK  Name = 
REMARK  8 active torsions:
REMARK  status: ('A' for Active; 'I' for Inactive)
REMARK    1  A    between atoms: C_1  and  C_2
REMARK    2  A    between atoms: C_2  and  C_3
REMARK    3  A    between atoms: C_2  and  N_4
REMARK    4  A    between atoms: C_6  and  C_7
REMARK    5  A    between atoms: N_12  and  C_13
REMARK    6  A    between atoms: C_18  and  C_19
REMARK    7  A    between atoms: C_19  and  N_20
REMARK    8  A    between atoms: C_27  and  C_28
REMARK                            x       y       z     vdW  Elec       q    Type
REMARK                         _______ _______ _______ _____ _____    ______ ____
ROOT
ATOM      1  C   UNL     1       0.271  10.690  18.818  0.00  0.00    +0.000 C 
ATOM      2  O   UNL     1       0.083  11.067  17.664  0.00  0.00    +0.000 OA
ATOM      3  N   UNL     1       0.943   9.519  19.125  0.00  0.00    +0.000 N 
ATOM      4  C   UNL     1       1.594   8.742  18.049  0.00  0.00    +0.000 C 
ATOM      5  C   UNL     1       2.695   7.780  18.583  0.00  0.00    +0.000 C 
ATOM      6  N   UNL     1       2.193   7.030  19.764  0.00  0.00    +0.000 N 
ATOM      7  C   UNL     1       1.765   7.919  20.834  0.00  0.00    +0.000 C 
ATOM      8  C   UNL     1       0.591   8.731  20.308  0.00  0.00    +0.000 C 
ENDROOT
BRANCH   6   9
ATOM      9  C   UNL     1       2.312   5.665  19.931  0.00  0.00    +0.000 A 
ATOM     10  C   UNL     1       1.207   4.962  20.455  0.00  0.00    +0.000 A 
ATOM     11  C   UNL     1       1.248   3.603  20.762  0.00  0.00    +0.000 A 
ATOM     12  C   UNL     1       2.406   2.883  20.529  0.00  0.00    +0.000 A 
ATOM     13  C   UNL     1       3.507   3.522  19.977  0.00  0.00    +0.000 A 
ATOM     14  C   UNL     1       3.493   4.906  19.664  0.00  0.00    +0.000 A 
BRANCH  14  15
ATOM     15  C   UNL     1       4.838   5.462  19.218  0.00  0.00    +0.000 C 
BRANCH  15  16
ATOM     16  N   UNL     1       5.393   4.945  17.962  0.00  0.00    +0.000 N 
ATOM     17  C   UNL     1       6.688   4.650  17.648  0.00  0.00    +0.000 A 
ATOM     18  C   UNL     1       6.732   4.444  16.289  0.00  0.00    +0.000 A 
ATOM     19  C   UNL     1       5.408   4.623  15.859  0.00  0.00    +0.000 A 
ATOM     20  N   UNL     1       4.581   4.898  16.871  0.00  0.00    +0.000 NA
ENDBRANCH  15  16
ENDBRANCH  14  15
ENDBRANCH   6   9
BRANCH   1  23
ATOM     21  N   UNL     1      -1.855  12.404  21.426  0.00  0.00    +0.000 NA
ATOM     22  C   UNL     1      -1.542  11.269  20.548  0.00  0.00    +0.000 C 
ATOM     23  C   UNL     1      -0.131  11.538  20.035  0.00  0.00    +0.000 C 
ATOM     24  C   UNL     1      -0.167  13.046  19.780  0.00  0.00    +0.000 C 
ATOM     25  C   UNL     1      -1.129  13.562  20.876  0.00  0.00    +0.000 C 
BRANCH  24  26
ATOM     26  C   UNL     1       1.236  13.634  19.759  0.00  0.00    +0.000 A 
ATOM     27  C   UNL     1       1.764  14.092  18.540  0.00  0.00    +0.000 A 
ATOM     28  C   UNL     1       3.088  14.531  18.448  0.00  0.00    +0.000 A 
ATOM     29  C   UNL     1       3.899  14.522  19.580  0.00  0.00    +0.000 A 
ATOM     30 CL   UNL     1       5.540  15.022  19.468  0.00  0.00    +0.000 Cl
ATOM     31  C   UNL     1       3.391  14.091  20.799  0.00  0.00    +0.000 A 
ATOM     32  C   UNL     1       2.070  13.647  20.885  0.00  0.00    +0.000 A 
ENDBRANCH  24  26
BRANCH  21  34
ATOM     33  C   UNL     1      -2.942  12.293  23.758  0.00  0.00    +0.000 C 
ATOM     34  C   UNL     1      -1.700  12.134  22.870  0.00  0.00    +0.000 C 
ATOM     35  C   UNL     1      -1.082  10.748  23.106  0.00  0.00    +0.000 C 
ENDBRANCH  21  34
ENDBRANCH   1  23
TORSDOF 6
ENDMDL
MODEL 8
REMARK VINA RESULT:      -7.4      2.889      8.855
REMARK  Name = 
REMARK  8 active torsions:
REMARK  status: ('A' for Active; 'I' for Inactive)
REMARK    1  A    between atoms: C_1  and  C_2
REMARK    2  A    between atoms: C_2  and  C_3
REMARK    3  A    between atoms: C_2  and  N_4
REMARK    4  A    between atoms: C_6  and  C_7
REMARK    5  A    between atoms: N_12  and  C_13
REMARK    6  A    between atoms: C_18  and  C_19
REMARK    7  A    between atoms: C_19  and  N_20
REMARK    8  A    between atoms: C_27  and  C_28
REMARK                            x       y       z     vdW  Elec       q    Type
REMARK                         _______ _______ _______ _____ _____    ______ ____
ROOT
ATOM      1  C   UNL     1       3.552   7.014  17.822  0.00  0.00    +0.000 C 
ATOM      2  O   UNL     1       4.269   7.505  16.953  0.00  0.00    +0.000 OA
ATOM      3  N   UNL     1       2.562   7.733  18.471  0.00  0.00    +0.000 N 
ATOM      4  C   UNL     1       2.238   9.105  18.026  0.00  0.00    +0.000 C 
ATOM      5  C   UNL     1       0.826   9.569  18.487  0.00  0.00    +0.000 C 
ATOM      6  N   UNL     1       0.623   9.247  19.923  0.00  0.00    +0.000 N 
ATOM      7  C   UNL     1       0.777   7.825  20.192  0.00  0.00    +0.000 C 
ATOM      8  C   UNL     1       2.217   7.455  19.867  0.00  0.00    +0.000 C 
ENDROOT
BRANCH   6   9
ATOM      9  C   UNL     1       0.134  10.135  20.862  0.00  0.00    +0.000 A 
ATOM     10  C   UNL     1      -0.148   9.645  22.154  0.00  0.00    +0.000 A 
ATOM     11  C   UNL     1      -0.740  10.422  23.148  0.00  0.00    +0.000 A 
ATOM     12  C   UNL     1      -1.052  11.745  22.888  0.00  0.00    +0.000 A 
ATOM     13  C   UNL     1      -0.755  12.283  21.644  0.00  0.00    +0.000 A 
ATOM     14  C   UNL     1      -0.162  11.510  20.613  0.00  0.00    +0.000 A 
BRANCH  14  15
ATOM     15  C   UNL     1      -0.060  12.225  19.273  0.00  0.00    +0.000 C 
BRANCH  15  16
ATOM     16  N   UNL     1       1.006  13.223  19.126  0.00  0.00    +0.000 N 
ATOM     17  C   UNL     1       0.904  14.576  18.976  0.00  0.00    +0.000 A 
ATOM     18  C   UNL     1       2.154  15.032  18.627  0.00  0.00    +0.000 A 
ATOM     19  C   UNL     1       2.958  13.883  18.599  0.00  0.00    +0.000 A 
ATOM     20  N   UNL     1       2.278  12.782  18.930  0.00  0.00    +0.000 NA
ENDBRANCH  15  16
ENDBRANCH  14  15
ENDBRANCH   6   9
BRANCH   1  23
ATOM     21  N   UNL     1       3.563   3.852  19.884  0.00  0.00    +0.000 NA
ATOM     22  C   UNL     1       3.074   5.204  19.584  0.00  0.00    +0.000 C 
ATOM     23  C   UNL     1       3.616   5.525  18.196  0.00  0.00    +0.000 C 
ATOM     24  C   UNL     1       5.029   4.943  18.262  0.00  0.00    +0.000 C 
ATOM     25  C   UNL     1       4.858   3.720  19.194  0.00  0.00    +0.000 C 
BRANCH  24  26
ATOM     26  C   UNL     1       5.581   4.678  16.870  0.00  0.00    +0.000 A 
ATOM     27  C   UNL     1       6.866   5.145  16.546  0.00  0.00    +0.000 A 
ATOM     28  C   UNL     1       7.369   5.030  15.247  0.00  0.00    +0.000 A 
ATOM     29  C   UNL     1       6.592   4.438  14.256  0.00  0.00    +0.000 A 
ATOM     30 CL   UNL     1       7.186   4.328  12.646  0.00  0.00    +0.000 Cl
ATOM     31  C   UNL     1       5.326   3.952  14.558  0.00  0.00    +0.000 A 
ATOM     32  C   UNL     1       4.825   4.075  15.856  0.00  0.00    +0.000 A 
ENDBRANCH  24  26
BRANCH  21  34
ATOM     33  C   UNL     1       1.093   3.169  19.628  0.00  0.00    +0.000 C 
ATOM     34  C   UNL     1       2.575   2.773  19.678  0.00  0.00    +0.000 C 
ATOM     35  C   UNL     1       2.921   1.944  18.432  0.00  0.00    +0.000 C 
ENDBRANCH  21  34
ENDBRANCH   1  23
TORSDOF 6
ENDMDL
MODEL 9
REMARK VINA RESULT:      -7.4      1.276      1.790
REMARK  Name = 
REMARK  8 active torsions:
REMARK  status: ('A' for Active; 'I' for Inactive)
REMARK    1  A    between atoms: C_1  and  C_2
REMARK    2  A    between atoms: C_2  and  C_3
REMARK    3  A    between atoms: C_2  and  N_4
REMARK    4  A    between atoms: C_6  and  C_7
REMARK    5  A    between atoms: N_12  and  C_13
REMARK    6  A    between atoms: C_18  and  C_19
REMARK    7  A    between atoms: C_19  and  N_20
REMARK    8  A    between atoms: C_27  and  C_28
REMARK                            x       y       z     vdW  Elec       q    Type
REMARK                         _______ _______ _______ _____ _____    ______ ____
ROOT
ATOM      1  C   UNL     1       1.695  10.094  18.421  0.00  0.00    +0.000 C 
ATOM      2  O   UNL     1       1.934  10.663  17.359  0.00  0.00    +0.000 OA
ATOM      3  N   UNL     1       2.076   8.787  18.675  0.00  0.00    +0.000 N 
ATOM      4  C   UNL     1       2.926   8.068  17.703  0.00  0.00    +0.000 C 
ATOM      5  C   UNL     1       3.665   6.852  18.334  0.00  0.00    +0.000 C 
ATOM      6  N   UNL     1       2.721   6.045  19.150  0.00  0.00    +0.000 N 
ATOM      7  C   UNL     1       2.097   6.832  20.203  0.00  0.00    +0.000 C 
ATOM      8  C   UNL     1       1.267   7.915  19.529  0.00  0.00    +0.000 C 
ENDROOT
BRANCH   6   9
ATOM      9  C   UNL     1       2.601   4.671  19.075  0.00  0.00    +0.000 A 
ATOM     10  C   UNL     1       1.314   4.110  19.208  0.00  0.00    +0.000 A 
ATOM     11  C   UNL     1       1.085   2.735  19.252  0.00  0.00    +0.000 A 
ATOM     12  C   UNL     1       2.151   1.861  19.139  0.00  0.00    +0.000 A 
ATOM     13  C   UNL     1       3.432   2.365  18.965  0.00  0.00    +0.000 A 
ATOM     14  C   UNL     1       3.691   3.759  18.927  0.00  0.00    +0.000 A 
BRANCH  14  15
ATOM     15  C   UNL     1       5.169   4.122  18.891  0.00  0.00    +0.000 C 
BRANCH  15  16
ATOM     16  N   UNL     1       5.807   4.202  17.573  0.00  0.00    +0.000 N 
ATOM     17  C   UNL     1       7.049   4.662  17.243  0.00  0.00    +0.000 A 
ATOM     18  C   UNL     1       7.084   4.767  15.872  0.00  0.00    +0.000 A 
ATOM     19  C   UNL     1       5.817   4.337  15.450  0.00  0.00    +0.000 A 
ATOM     20  N   UNL     1       5.043   3.962  16.473  0.00  0.00    +0.000 NA
ENDBRANCH  15  16
ENDBRANCH  14  15
ENDBRANCH   6   9
BRANCH   1  23
ATOM     21  N   UNL     1      -0.896  11.218  20.927  0.00  0.00    +0.000 NA
ATOM     22  C   UNL     1      -0.270  10.197  20.077  0.00  0.00    +0.000 C 
ATOM     23  C   UNL     1       1.043  10.816  19.611  0.00  0.00    +0.000 C 
ATOM     24  C   UNL     1       0.633  12.264  19.333  0.00  0.00    +0.000 C 
ATOM     25  C   UNL     1      -0.470  12.521  20.388  0.00  0.00    +0.000 C 
BRANCH  24  26
ATOM     26  C   UNL     1       1.838  13.191  19.354  0.00  0.00    +0.000 A 
ATOM     27  C   UNL     1       2.312  13.719  18.142  0.00  0.00    +0.000 A 
ATOM     28  C   UNL     1       3.484  14.480  18.096  0.00  0.00    +0.000 A 
ATOM     29  C   UNL     1       4.193  14.726  19.268  0.00  0.00    +0.000 A 
ATOM     30 CL   UNL     1       5.657  15.627  19.217  0.00  0.00    +0.000 Cl
ATOM     31  C   UNL     1       3.732  14.230  20.481  0.00  0.00    +0.000 A 
ATOM     32  C   UNL     1       2.565  13.465  20.521  0.00  0.00    +0.000 A 
ENDBRANCH  24  26
BRANCH  21  34
ATOM     33  C   UNL     1      -1.828  11.550  23.305  0.00  0.00    +0.000 C 
ATOM     34  C   UNL     1      -0.733  11.003  22.380  0.00  0.00    +0.000 C 
ATOM     35  C   UNL     1      -0.501   9.517  22.691  0.00  0.00    +0.000 C 
ENDBRANCH  21  34
ENDBRANCH   1  23
TORSDOF 6
ENDMDL
