MODEL 1
REMARK VINA RESULT:      -6.0      0.000      0.000
REMARK  Name = 
REMARK  4 active torsions:
REMARK  status: ('A' for Active; 'I' for Inactive)
REMARK    1  A    between atoms: C_1  and  O_2
REMARK    2  A    between atoms: O_2  and  C_3
REMARK    3  A    between atoms: C_6  and  N_7
REMARK    4  A    between atoms: C_10  and  C_11
REMARK                            x       y       z     vdW  Elec       q    Type
REMARK                         _______ _______ _______ _____ _____    ______ ____
ROOT
ATOM      1  C   UNL     1       2.639   6.533  19.307  0.00  0.00    +0.000 A 
ATOM      2  C   UNL     1       3.611   6.137  18.390  0.00  0.00    +0.000 A 
ATOM      3  C   UNL     1       4.080   4.824  18.388  0.00  0.00    +0.000 A 
ATOM      4  C   UNL     1       3.541   3.895  19.296  0.00  0.00    +0.000 A 
ATOM      5  C   UNL     1       2.531   4.256  20.192  0.00  0.00    +0.000 A 
ATOM      6  C   UNL     1       2.093   5.594  20.188  0.00  0.00    +0.000 A 
ENDROOT
BRANCH   5   7
ATOM      7  C   UNL     1       1.878   3.379  21.207  0.00  0.00    +0.000 C 
ATOM      8  N   UNL     1       0.668   2.817  20.944  0.00  0.00    +0.000 N 
ATOM      9  O   UNL     1       2.403   3.210  22.302  0.00  0.00    +0.000 OA
ATOM     10  H   UNL     1       0.111   2.970  20.109  0.00  0.00    +0.000 HD
ATOM     11  H   UNL     1       0.229   2.296  21.696  0.00  0.00    +0.000 HD
ENDBRANCH   5   7
BRANCH   4  12
ATOM     12  N   UNL     1       4.127   2.574  19.284  0.00  0.00    +0.000 N 
ATOM     13  O   UNL     1       3.645   1.754  18.492  0.00  0.00    +0.000 OA
ATOM     14  O   UNL     1       5.021   2.344  20.112  0.00  0.00    +0.000 OA
ENDBRANCH   4  12
BRANCH   1  16
ATOM     15  C   UNL     1       2.322   8.424  17.929  0.00  0.00    +0.000 C 
ATOM     16  O   UNL     1       2.262   7.846  19.232  0.00  0.00    +0.000 OA
ENDBRANCH   1  16
TORSDOF 3
ENDMDL
MODEL 2
REMARK VINA RESULT:      -6.0      1.305      3.018
REMARK  Name = 
REMARK  4 active torsions:
REMARK  status: ('A' for Active; 'I' for Inactive)
REMARK    1  A    between atoms: C_1  and  O_2
REMARK    2  A    between atoms: O_2  and  C_3
REMARK    3  A    between atoms: C_6  and  N_7
REMARK    4  A    between atoms: C_10  and  C_11
REMARK                            x       y       z     vdW  Elec       q    Type
REMARK                         _______ _______ _______ _____ _____    ______ ____
ROOT
ATOM      1  C   UNL     1       3.462   6.022  18.420  0.00  0.00    +0.000 A 
ATOM      2  C   UNL     1       2.568   6.446  19.401  0.00  0.00    +0.000 A 
ATOM      3  C   UNL     1       2.064   5.536  20.330  0.00  0.00    +0.000 A 
ATOM      4  C   UNL     1       2.489   4.197  20.289  0.00  0.00    +0.000 A 
ATOM      5  C   UNL     1       3.422   3.759  19.345  0.00  0.00    +0.000 A 
ATOM      6  C   UNL     1       3.897   4.693  18.404  0.00  0.00    +0.000 A 
ENDROOT
BRANCH   5   7
ATOM      7  C   UNL     1       3.953   2.374  19.185  0.00  0.00    +0.000 C 
ATOM      8  N   UNL     1       4.996   1.951  19.950  0.00  0.00    +0.000 N 
ATOM      9  O   UNL     1       3.489   1.634  18.325  0.00  0.00    +0.000 OA
ATOM     10  H   UNL     1       5.507   2.516  20.621  0.00  0.00    +0.000 HD
ATOM     11  H   UNL     1       5.372   1.032  19.747  0.00  0.00    +0.000 HD
ENDBRANCH   5   7
BRANCH   4  12
ATOM     12  N   UNL     1       1.870   3.299  21.237  0.00  0.00    +0.000 N 
ATOM     13  O   UNL     1       0.800   2.776  20.898  0.00  0.00    +0.000 OA
ATOM     14  O   UNL     1       2.423   3.171  22.339  0.00  0.00    +0.000 OA
ENDBRANCH   4  12
BRANCH   1  16
ATOM     15  C   UNL     1       4.948   6.611  16.681  0.00  0.00    +0.000 C 
ATOM     16  O   UNL     1       3.882   6.992  17.550  0.00  0.00    +0.000 OA
ENDBRANCH   1  16
TORSDOF 3
ENDMDL
MODEL 3
REMARK VINA RESULT:      -5.9      3.900      5.431
REMARK  Name = 
REMARK  4 active torsions:
REMARK  status: ('A' for Active; 'I' for Inactive)
REMARK    1  A    between atoms: C_1  and  O_2
REMARK    2  A    between atoms: O_2  and  C_3
REMARK    3  A    between atoms: C_6  and  N_7
REMARK    4  A    between atoms: C_10  and  C_11
REMARK                            x       y       z     vdW  Elec       q    Type
REMARK                         _______ _______ _______ _____ _____    ______ ____
ROOT
ATOM      1  C   UNL     1       3.437   3.705  17.484  0.00  0.00    +0.000 A 
ATOM      2  C   UNL     1       4.035   3.466  18.721  0.00  0.00    +0.000 A 
ATOM      3  C   UNL     1       5.343   3.886  18.959  0.00  0.00    +0.000 A 
ATOM      4  C   UNL     1       6.042   4.579  17.955  0.00  0.00    +0.000 A 
ATOM      5  C   UNL     1       5.446   4.873  16.725  0.00  0.00    +0.000 A 
ATOM      6  C   UNL     1       4.133   4.417  16.503  0.00  0.00    +0.000 A 
ENDROOT
BRANCH   5   7
ATOM      7  C   UNL     1       6.070   5.591  15.577  0.00  0.00    +0.000 C 
ATOM      8  N   UNL     1       7.246   5.150  15.053  0.00  0.00    +0.000 N 
ATOM      9  O   UNL     1       5.556   6.615  15.140  0.00  0.00    +0.000 OA
ATOM     10  H   UNL     1       7.795   4.371  15.403  0.00  0.00    +0.000 HD
ATOM     11  H   UNL     1       7.669   5.718  14.329  0.00  0.00    +0.000 HD
ENDBRANCH   5   7
BRANCH   4  12
ATOM     12  N   UNL     1       7.415   4.918  18.248  0.00  0.00    +0.000 N 
ATOM     13  O   UNL     1       7.614   5.966  18.877  0.00  0.00    +0.000 OA
ATOM     14  O   UNL     1       8.292   4.169  17.792  0.00  0.00    +0.000 OA
ENDBRANCH   4  12
BRANCH   1  16
ATOM     15  C   UNL     1       1.687   2.432  18.432  0.00  0.00    +0.000 C 
ATOM     16  O   UNL     1       2.157   3.238  17.352  0.00  0.00    +0.000 OA
ENDBRANCH   1  16
TORSDOF 3
ENDMDL
MODEL 4
REMARK VINA RESULT:      -5.9      3.989      5.602
REMARK  Name = 
REMARK  4 active torsions:
REMARK  status: ('A' for Active; 'I' for Inactive)
REMARK    1  A    between atoms: C_1  and  O_2
REMARK    2  A    between atoms: O_2  and  C_3
REMARK    3  A    between atoms: C_6  and  N_7
REMARK    4  A    between atoms: C_10  and  C_11
REMARK                            x       y       z     vdW  Elec       q    Type
REMARK                         _______ _______ _______ _____ _____    ______ ____
ROOT
ATOM      1  C   UNL     1       6.640   4.951  15.265  0.00  0.00    +0.000 A 
ATOM      2  C   UNL     1       5.433   4.290  15.482  0.00  0.00    +0.000 A 
ATOM      3  C   UNL     1       4.930   4.158  16.776  0.00  0.00    +0.000 A 
ATOM      4  C   UNL     1       5.632   4.724  17.854  0.00  0.00    +0.000 A 
ATOM      5  C   UNL     1       6.821   5.434  17.655  0.00  0.00    +0.000 A 
ATOM      6  C   UNL     1       7.318   5.531  16.341  0.00  0.00    +0.000 A 
ENDROOT
BRANCH   5   7
ATOM      7  C   UNL     1       7.666   6.076  18.702  0.00  0.00    +0.000 C 
ATOM      8  N   UNL     1       7.835   5.472  19.909  0.00  0.00    +0.000 N 
ATOM      9  O   UNL     1       8.163   7.179  18.499  0.00  0.00    +0.000 OA
ATOM     10  H   UNL     1       7.392   4.608  20.207  0.00  0.00    +0.000 HD
ATOM     11  H   UNL     1       8.351   5.987  20.613  0.00  0.00    +0.000 HD
ENDBRANCH   5   7
BRANCH   4  12
ATOM     12  N   UNL     1       5.088   4.485  19.171  0.00  0.00    +0.000 N 
ATOM     13  O   UNL     1       5.265   3.360  19.655  0.00  0.00    +0.000 OA
ATOM     14  O   UNL     1       4.431   5.402  19.686  0.00  0.00    +0.000 OA
ENDBRANCH   4  12
BRANCH   1  16
ATOM     15  C   UNL     1       6.508   4.004  13.105  0.00  0.00    +0.000 C 
ATOM     16  O   UNL     1       7.050   5.010  13.960  0.00  0.00    +0.000 OA
ENDBRANCH   1  16
TORSDOF 3
ENDMDL
MODEL 5
REMARK VINA RESULT:      -5.9      1.335      3.039
REMARK  Name = 
REMARK  4 active torsions:
REMARK  status: ('A' for Active; 'I' for Inactive)
REMARK    1  A    between atoms: C_1  and  O_2
REMARK    2  A    between atoms: O_2  and  C_3
REMARK    3  A    between atoms: C_6  and  N_7
REMARK    4  A    between atoms: C_10  and  C_11
REMARK                            x       y       z     vdW  Elec       q    Type
REMARK                         _______ _______ _______ _____ _____    ______ ____
ROOT
ATOM      1  C   UNL     1       3.646   5.921  18.399  0.00  0.00    +0.000 A 
ATOM      2  C   UNL     1       2.639   6.356  19.260  0.00  0.00    +0.000 A 
ATOM      3  C   UNL     1       2.089   5.478  20.194  0.00  0.00    +0.000 A 
ATOM      4  C   UNL     1       2.579   4.164  20.283  0.00  0.00    +0.000 A 
ATOM      5  C   UNL     1       3.622   3.720  19.464  0.00  0.00    +0.000 A 
ATOM      6  C   UNL     1       4.142   4.619  18.514  0.00  0.00    +0.000 A 
ENDROOT
BRANCH   5   7
ATOM      7  C   UNL     1       4.231   2.359  19.448  0.00  0.00    +0.000 C 
ATOM      8  N   UNL     1       3.922   1.485  18.452  0.00  0.00    +0.000 N 
ATOM      9  O   UNL     1       4.965   2.003  20.364  0.00  0.00    +0.000 OA
ATOM     10  H   UNL     1       3.257   1.650  17.703  0.00  0.00    +0.000 HD
ATOM     11  H   UNL     1       4.298   0.547  18.531  0.00  0.00    +0.000 HD
ENDBRANCH   5   7
BRANCH   4  12
ATOM     12  N   UNL     1       1.912   3.293  21.224  0.00  0.00    +0.000 N 
ATOM     13  O   UNL     1       2.414   3.196  22.351  0.00  0.00    +0.000 OA
ATOM     14  O   UNL     1       0.929   2.662  20.810  0.00  0.00    +0.000 OA
ENDBRANCH   4  12
BRANCH   1  16
ATOM     15  C   UNL     1       5.484   6.746  17.166  0.00  0.00    +0.000 C 
ATOM     16  O   UNL     1       4.103   6.857  17.512  0.00  0.00    +0.000 OA
ENDBRANCH   1  16
TORSDOF 3
ENDMDL
MODEL 6
REMARK VINA RESULT:      -5.8      3.664      5.308
REMARK  Name = 
REMARK  4 active torsions:
REMARK  status: ('A' for Active; 'I' for Inactive)
REMARK    1  A    between atoms: C_1  and  O_2
REMARK    2  A    between atoms: O_2  and  C_3
REMARK    3  A    between atoms: C_6  and  N_7
REMARK    4  A    between atoms: C_10  and  C_11
REMARK                            x       y       z     vdW  Elec       q    Type
REMARK                         _______ _______ _______ _____ _____    ______ ____
ROOT
ATOM      1  C   UNL     1       3.473   3.961  17.492  0.00  0.00    +0.000 A 
ATOM      2  C   UNL     1       3.515   4.485  18.783  0.00  0.00    +0.000 A 
ATOM      3  C   UNL     1       4.671   5.113  19.248  0.00  0.00    +0.000 A 
ATOM      4  C   UNL     1       5.780   5.241  18.393  0.00  0.00    +0.000 A 
ATOM      5  C   UNL     1       5.744   4.767  17.079  0.00  0.00    +0.000 A 
ATOM      6  C   UNL     1       4.573   4.117  16.644  0.00  0.00    +0.000 A 
ENDROOT
BRANCH   5   7
ATOM      7  C   UNL     1       6.844   4.831  16.073  0.00  0.00    +0.000 C 
ATOM      8  N   UNL     1       6.636   5.437  14.873  0.00  0.00    +0.000 N 
ATOM      9  O   UNL     1       7.918   4.286  16.302  0.00  0.00    +0.000 OA
ATOM     10  H   UNL     1       5.758   5.834  14.553  0.00  0.00    +0.000 HD
ATOM     11  H   UNL     1       7.387   5.383  14.194  0.00  0.00    +0.000 HD
ENDBRANCH   5   7
BRANCH   4  12
ATOM     12  N   UNL     1       6.964   5.837  18.967  0.00  0.00    +0.000 N 
ATOM     13  O   UNL     1       7.384   5.348  20.023  0.00  0.00    +0.000 OA
ATOM     14  O   UNL     1       7.432   6.832  18.392  0.00  0.00    +0.000 OA
ENDBRANCH   4  12
BRANCH   1  16
ATOM     15  C   UNL     1       1.404   3.088  18.226  0.00  0.00    +0.000 C 
ATOM     16  O   UNL     1       2.297   3.353  17.144  0.00  0.00    +0.000 OA
ENDBRANCH   1  16
TORSDOF 3
ENDMDL
MODEL 7
REMARK VINA RESULT:      -5.8      0.928      1.309
REMARK  Name = 
REMARK  4 active torsions:
REMARK  status: ('A' for Active; 'I' for Inactive)
REMARK    1  A    between atoms: C_1  and  O_2
REMARK    2  A    between atoms: O_2  and  C_3
REMARK    3  A    between atoms: C_6  and  N_7
REMARK    4  A    between atoms: C_10  and  C_11
REMARK                            x       y       z     vdW  Elec       q    Type
REMARK                         _______ _______ _______ _____ _____    ______ ____
ROOT
ATOM      1  C   UNL     1       2.307   6.849  19.704  0.00  0.00    +0.000 A 
ATOM      2  C   UNL     1       3.245   6.641  18.694  0.00  0.00    +0.000 A 
ATOM      3  C   UNL     1       3.795   5.374  18.499  0.00  0.00    +0.000 A 
ATOM      4  C   UNL     1       3.372   4.304  19.306  0.00  0.00    +0.000 A 
ATOM      5  C   UNL     1       2.398   4.478  20.294  0.00  0.00    +0.000 A 
ATOM      6  C   UNL     1       1.877   5.772  20.485  0.00  0.00    +0.000 A 
ENDROOT
BRANCH   5   7
ATOM      7  C   UNL     1       1.866   3.437  21.220  0.00  0.00    +0.000 C 
ATOM      8  N   UNL     1       0.699   2.800  20.931  0.00  0.00    +0.000 N 
ATOM      9  O   UNL     1       2.446   3.196  22.273  0.00  0.00    +0.000 OA
ATOM     10  H   UNL     1       0.098   2.994  20.136  0.00  0.00    +0.000 HD
ATOM     11  H   UNL     1       0.338   2.161  21.631  0.00  0.00    +0.000 HD
ENDBRANCH   5   7
BRANCH   4  12
ATOM     12  N   UNL     1       4.038   3.039  19.094  0.00  0.00    +0.000 N 
ATOM     13  O   UNL     1       5.009   2.786  19.820  0.00  0.00    +0.000 OA
ATOM     14  O   UNL     1       3.627   2.334  18.160  0.00  0.00    +0.000 OA
ENDBRANCH   4  12
BRANCH   1  16
ATOM     15  C   UNL     1       1.148   8.422  21.031  0.00  0.00    +0.000 C 
ATOM     16  O   UNL     1       1.844   8.132  19.819  0.00  0.00    +0.000 OA
ENDBRANCH   1  16
TORSDOF 3
ENDMDL
MODEL 8
REMARK VINA RESULT:      -5.8      3.741      5.393
REMARK  Name = 
REMARK  4 active torsions:
REMARK  status: ('A' for Active; 'I' for Inactive)
REMARK    1  A    between atoms: C_1  and  O_2
REMARK    2  A    between atoms: O_2  and  C_3
REMARK    3  A    between atoms: C_6  and  N_7
REMARK    4  A    between atoms: C_10  and  C_11
REMARK                            x       y       z     vdW  Elec       q    Type
REMARK                         _______ _______ _______ _____ _____    ______ ____
ROOT
ATOM      1  C   UNL     1       6.600   4.680  15.520  0.00  0.00    +0.000 A 
ATOM      2  C   UNL     1       5.343   4.091  15.650  0.00  0.00    +0.000 A 
ATOM      3  C   UNL     1       4.746   3.986  16.906  0.00  0.00    +0.000 A 
ATOM      4  C   UNL     1       5.404   4.508  18.032  0.00  0.00    +0.000 A 
ATOM      5  C   UNL     1       6.643   5.147  17.920  0.00  0.00    +0.000 A 
ATOM      6  C   UNL     1       7.234   5.218  16.644  0.00  0.00    +0.000 A 
ENDROOT
BRANCH   5   7
ATOM      7  C   UNL     1       7.450   5.738  19.025  0.00  0.00    +0.000 C 
ATOM      8  N   UNL     1       8.167   6.875  18.815  0.00  0.00    +0.000 N 
ATOM      9  O   UNL     1       7.518   5.168  20.109  0.00  0.00    +0.000 OA
ATOM     10  H   UNL     1       8.251   7.368  17.931  0.00  0.00    +0.000 HD
ATOM     11  H   UNL     1       8.762   7.190  19.572  0.00  0.00    +0.000 HD
ENDBRANCH   5   7
BRANCH   4  12
ATOM     12  N   UNL     1       4.758   4.299  19.307  0.00  0.00    +0.000 N 
ATOM     13  O   UNL     1       4.139   5.258  19.787  0.00  0.00    +0.000 OA
ATOM     14  O   UNL     1       4.926   3.198  19.853  0.00  0.00    +0.000 OA
ENDBRANCH   4  12
BRANCH   1  16
ATOM     15  C   UNL     1       6.394   3.929  13.290  0.00  0.00    +0.000 C 
ATOM     16  O   UNL     1       7.101   4.717  14.247  0.00  0.00    +0.000 OA
ENDBRANCH   1  16
TORSDOF 3
ENDMDL
MODEL 9
REMARK VINA RESULT:      -5.8      3.471      4.893
REMARK  Name = 
REMARK  4 active torsions:
REMARK  status: ('A' for Active; 'I' for Inactive)
REMARK    1  A    between atoms: C_1  and  O_2
REMARK    2  A    between atoms: O_2  and  C_3
REMARK    3  A    between atoms: C_6  and  N_7
REMARK    4  A    between atoms: C_10  and  C_11
REMARK                            x       y       z     vdW  Elec       q    Type
REMARK                         _______ _______ _______ _____ _____    ______ ____
ROOT
ATOM      1  C   UNL     1       3.807   3.854  18.913  0.00  0.00    +0.000 A 
ATOM      2  C   UNL     1       3.620   3.606  17.554  0.00  0.00    +0.000 A 
ATOM      3  C   UNL     1       4.551   4.067  16.623  0.00  0.00    +0.000 A 
ATOM      4  C   UNL     1       5.693   4.754  17.068  0.00  0.00    +0.000 A 
ATOM      5  C   UNL     1       5.927   4.972  18.429  0.00  0.00    +0.000 A 
ATOM      6  C   UNL     1       4.960   4.517  19.345  0.00  0.00    +0.000 A 
ENDROOT
BRANCH   5   7
ATOM      7  C   UNL     1       7.087   5.686  19.036  0.00  0.00    +0.000 C 
ATOM      8  N   UNL     1       7.741   6.648  18.330  0.00  0.00    +0.000 N 
ATOM      9  O   UNL     1       7.492   5.368  20.149  0.00  0.00    +0.000 OA
ATOM     10  H   UNL     1       7.544   6.917  17.371  0.00  0.00    +0.000 HD
ATOM     11  H   UNL     1       8.572   7.046  18.754  0.00  0.00    +0.000 HD
ENDBRANCH   5   7
BRANCH   4  12
ATOM     12  N   UNL     1       6.575   5.263  16.043  0.00  0.00    +0.000 N 
ATOM     13  O   UNL     1       6.204   6.276  15.436  0.00  0.00    +0.000 OA
ATOM     14  O   UNL     1       7.602   4.610  15.805  0.00  0.00    +0.000 OA
ENDBRANCH   4  12
BRANCH   1  16
ATOM     15  C   UNL     1       2.367   4.284  20.736  0.00  0.00    +0.000 C 
ATOM     16  O   UNL     1       2.827   3.372  19.738  0.00  0.00    +0.000 OA
ENDBRANCH   1  16
TORSDOF 3
ENDMDL
