MODEL 1
REMARK VINA RESULT:      -6.4      0.000      0.000
REMARK  Name = 
REMARK  7 active torsions:
REMARK  status: ('A' for Active; 'I' for Inactive)
REMARK    1  A    between atoms: C_1  and  N_2
REMARK    2  A    between atoms: N_2  and  C_3
REMARK    3  A    between atoms: N_2  and  N_4
REMARK    4  A    between atoms: N_5  and  C_6
REMARK    5  A    between atoms: C_11  and  C_12
REMARK    6  A    between atoms: N_14  and  C_15
REMARK    7  A    between atoms: C_15  and  C_16
REMARK                            x       y       z     vdW  Elec       q    Type
REMARK                         _______ _______ _______ _____ _____    ______ ____
ROOT
ATOM      1  C   UNL     1       2.235   4.957  19.698  0.00  0.00    +0.000 A 
ATOM      2  C   UNL     1       1.242   4.490  20.592  0.00  0.00    +0.000 A 
ATOM      3  C   UNL     1       1.366   3.268  21.256  0.00  0.00    +0.000 A 
ATOM      4  C   UNL     1       2.475   2.473  21.026  0.00  0.00    +0.000 A 
ATOM      5  C   UNL     1       3.458   2.895  20.132  0.00  0.00    +0.000 A 
ATOM      6  C   UNL     1       3.350   4.134  19.466  0.00  0.00    +0.000 A 
ENDROOT
BRANCH   6   7
ATOM      7  C   UNL     1       4.464   4.458  18.530  0.00  0.00    +0.000 C 
ATOM      8  O   UNL     1       4.803   3.645  17.675  0.00  0.00    +0.000 OA
ATOM      9  N   UNL     1       5.095   5.670  18.668  0.00  0.00    +0.000 N 
ATOM     10  H   UNL     1       4.689   6.378  19.271  0.00  0.00    +0.000 HD
BRANCH   9  11
ATOM     11  C   UNL     1       6.276   6.016  17.888  0.00  0.00    +0.000 C 
BRANCH  11  12
ATOM     12  C   UNL     1       7.514   5.192  18.240  0.00  0.00    +0.000 C 
ATOM     13  N   UNL     1       7.921   4.287  17.302  0.00  0.00    +0.000 N 
ATOM     14  O   UNL     1       8.066   5.240  19.337  0.00  0.00    +0.000 OA
ATOM     15  H   UNL     1       7.246   3.972  16.614  0.00  0.00    +0.000 HD
ATOM     16  H   UNL     1       8.624   3.617  17.599  0.00  0.00    +0.000 HD
ENDBRANCH  11  12
ENDBRANCH   9  11
ENDBRANCH   6   7
BRANCH   1  18
ATOM     17  N   UNL     1       2.372   7.155  19.707  0.00  0.00    +0.000 NA
ATOM     18  N   UNL     1       2.048   6.180  18.999  0.00  0.00    +0.000 NA
BRANCH  17  20
ATOM     19  C   UNL     1       2.182   8.508  17.773  0.00  0.00    +0.000 C 
ATOM     20  N   UNL     1       2.004   8.373  19.209  0.00  0.00    +0.000 N 
ATOM     21  C   UNL     1       1.003   9.187  19.875  0.00  0.00    +0.000 C 
ENDBRANCH  17  20
ENDBRANCH   1  18
TORSDOF 5
ENDMDL
MODEL 2
REMARK VINA RESULT:      -6.4      2.132      2.199
REMARK  Name = 
REMARK  7 active torsions:
REMARK  status: ('A' for Active; 'I' for Inactive)
REMARK    1  A    between atoms: C_1  and  N_2
REMARK    2  A    between atoms: N_2  and  C_3
REMARK    3  A    between atoms: N_2  and  N_4
REMARK    4  A    between atoms: N_5  and  C_6
REMARK    5  A    between atoms: C_11  and  C_12
REMARK    6  A    between atoms: N_14  and  C_15
REMARK    7  A    between atoms: C_15  and  C_16
REMARK                            x       y       z     vdW  Elec       q    Type
REMARK                         _______ _______ _______ _____ _____    ______ ____
ROOT
ATOM      1  C   UNL     1       2.536   4.476  18.501  0.00  0.00    +0.000 A 
ATOM      2  C   UNL     1       1.293   3.864  18.791  0.00  0.00    +0.000 A 
ATOM      3  C   UNL     1       1.164   2.478  18.904  0.00  0.00    +0.000 A 
ATOM      4  C   UNL     1       2.271   1.669  18.709  0.00  0.00    +0.000 A 
ATOM      5  C   UNL     1       3.503   2.241  18.398  0.00  0.00    +0.000 A 
ATOM      6  C   UNL     1       3.648   3.641  18.294  0.00  0.00    +0.000 A 
ENDROOT
BRANCH   6   7
ATOM      7  C   UNL     1       5.016   4.120  17.946  0.00  0.00    +0.000 C 
ATOM      8  O   UNL     1       5.899   4.123  18.798  0.00  0.00    +0.000 OA
ATOM      9  N   UNL     1       5.240   4.566  16.667  0.00  0.00    +0.000 N 
ATOM     10  H   UNL     1       4.540   4.400  15.950  0.00  0.00    +0.000 HD
BRANCH   9  11
ATOM     11  C   UNL     1       6.504   5.174  16.275  0.00  0.00    +0.000 C 
BRANCH  11  12
ATOM     12  C   UNL     1       6.941   4.833  14.850  0.00  0.00    +0.000 C 
ATOM     13  N   UNL     1       6.391   3.708  14.305  0.00  0.00    +0.000 N 
ATOM     14  O   UNL     1       7.814   5.452  14.247  0.00  0.00    +0.000 OA
ATOM     15  H   UNL     1       6.014   3.007  14.932  0.00  0.00    +0.000 HD
ATOM     16  H   UNL     1       6.808   3.378  13.439  0.00  0.00    +0.000 HD
ENDBRANCH  11  12
ENDBRANCH   9  11
ENDBRANCH   6   7
BRANCH   1  18
ATOM     17  N   UNL     1       2.388   6.474  19.414  0.00  0.00    +0.000 NA
ATOM     18  N   UNL     1       2.617   5.885  18.339  0.00  0.00    +0.000 NA
BRANCH  17  20
ATOM     19  C   UNL     1       2.309   8.327  17.943  0.00  0.00    +0.000 C 
ATOM     20  N   UNL     1       2.209   7.824  19.303  0.00  0.00    +0.000 N 
ATOM     21  C   UNL     1       1.418   8.561  20.271  0.00  0.00    +0.000 C 
ENDBRANCH  17  20
ENDBRANCH   1  18
TORSDOF 5
ENDMDL
MODEL 3
REMARK VINA RESULT:      -6.4      2.134      4.180
REMARK  Name = 
REMARK  7 active torsions:
REMARK  status: ('A' for Active; 'I' for Inactive)
REMARK    1  A    between atoms: C_1  and  N_2
REMARK    2  A    between atoms: N_2  and  C_3
REMARK    3  A    between atoms: N_2  and  N_4
REMARK    4  A    between atoms: N_5  and  C_6
REMARK    5  A    between atoms: C_11  and  C_12
REMARK    6  A    between atoms: N_14  and  C_15
REMARK    7  A    between atoms: C_15  and  C_16
REMARK                            x       y       z     vdW  Elec       q    Type
REMARK                         _______ _______ _______ _____ _____    ______ ____
ROOT
ATOM      1  C   UNL     1       3.116   6.269  19.042  0.00  0.00    +0.000 A 
ATOM      2  C   UNL     1       2.190   7.022  19.803  0.00  0.00    +0.000 A 
ATOM      3  C   UNL     1       1.705   8.254  19.361  0.00  0.00    +0.000 A 
ATOM      4  C   UNL     1       2.150   8.775  18.158  0.00  0.00    +0.000 A 
ATOM      5  C   UNL     1       3.080   8.067  17.398  0.00  0.00    +0.000 A 
ATOM      6  C   UNL     1       3.567   6.815  17.828  0.00  0.00    +0.000 A 
ENDROOT
BRANCH   6   7
ATOM      7  C   UNL     1       4.565   6.171  16.927  0.00  0.00    +0.000 C 
ATOM      8  O   UNL     1       5.121   6.833  16.056  0.00  0.00    +0.000 OA
ATOM      9  N   UNL     1       4.821   4.832  17.094  0.00  0.00    +0.000 N 
ATOM     10  H   UNL     1       4.469   4.356  17.920  0.00  0.00    +0.000 HD
BRANCH   9  11
ATOM     11  C   UNL     1       5.678   4.092  16.178  0.00  0.00    +0.000 C 
BRANCH  11  12
ATOM     12  C   UNL     1       7.124   4.585  16.148  0.00  0.00    +0.000 C 
ATOM     13  N   UNL     1       7.520   5.221  15.006  0.00  0.00    +0.000 N 
ATOM     14  O   UNL     1       7.938   4.342  17.036  0.00  0.00    +0.000 OA
ATOM     15  H   UNL     1       6.993   5.052  14.156  0.00  0.00    +0.000 HD
ATOM     16  H   UNL     1       8.517   5.388  14.907  0.00  0.00    +0.000 HD
ENDBRANCH  11  12
ENDBRANCH   9  11
ENDBRANCH   6   7
BRANCH   1  18
ATOM     17  N   UNL     1       2.769   4.142  19.498  0.00  0.00    +0.000 NA
ATOM     18  N   UNL     1       3.629   5.045  19.550  0.00  0.00    +0.000 NA
BRANCH  17  20
ATOM     19  C   UNL     1       4.407   2.472  19.861  0.00  0.00    +0.000 C 
ATOM     20  N   UNL     1       3.092   3.003  20.179  0.00  0.00    +0.000 N 
ATOM     21  C   UNL     1       2.508   2.710  21.476  0.00  0.00    +0.000 C 
ENDBRANCH  17  20
ENDBRANCH   1  18
TORSDOF 5
ENDMDL
MODEL 4
REMARK VINA RESULT:      -6.4      1.437      1.680
REMARK  Name = 
REMARK  7 active torsions:
REMARK  status: ('A' for Active; 'I' for Inactive)
REMARK    1  A    between atoms: C_1  and  N_2
REMARK    2  A    between atoms: N_2  and  C_3
REMARK    3  A    between atoms: N_2  and  N_4
REMARK    4  A    between atoms: N_5  and  C_6
REMARK    5  A    between atoms: C_11  and  C_12
REMARK    6  A    between atoms: N_14  and  C_15
REMARK    7  A    between atoms: C_15  and  C_16
REMARK                            x       y       z     vdW  Elec       q    Type
REMARK                         _______ _______ _______ _____ _____    ______ ____
ROOT
ATOM      1  C   UNL     1       2.772   5.069  19.777  0.00  0.00    +0.000 A 
ATOM      2  C   UNL     1       1.664   4.802  20.616  0.00  0.00    +0.000 A 
ATOM      3  C   UNL     1       1.487   3.560  21.228  0.00  0.00    +0.000 A 
ATOM      4  C   UNL     1       2.402   2.546  20.999  0.00  0.00    +0.000 A 
ATOM      5  C   UNL     1       3.491   2.772  20.158  0.00  0.00    +0.000 A 
ATOM      6  C   UNL     1       3.687   4.027  19.544  0.00  0.00    +0.000 A 
ENDROOT
BRANCH   6   7
ATOM      7  C   UNL     1       4.883   4.130  18.661  0.00  0.00    +0.000 C 
ATOM      8  O   UNL     1       6.006   4.179  19.154  0.00  0.00    +0.000 OA
ATOM      9  N   UNL     1       4.684   4.183  17.303  0.00  0.00    +0.000 N 
ATOM     10  H   UNL     1       3.764   3.978  16.926  0.00  0.00    +0.000 HD
BRANCH   9  11
ATOM     11  C   UNL     1       5.780   4.417  16.373  0.00  0.00    +0.000 C 
BRANCH  11  12
ATOM     12  C   UNL     1       6.085   5.895  16.133  0.00  0.00    +0.000 C 
ATOM     13  N   UNL     1       7.321   6.326  16.521  0.00  0.00    +0.000 N 
ATOM     14  O   UNL     1       5.249   6.696  15.720  0.00  0.00    +0.000 OA
ATOM     15  H   UNL     1       7.823   5.781  17.212  0.00  0.00    +0.000 HD
ATOM     16  H   UNL     1       7.464   7.331  16.532  0.00  0.00    +0.000 HD
ENDBRANCH  11  12
ENDBRANCH   9  11
ENDBRANCH   6   7
BRANCH   1  18
ATOM     17  N   UNL     1       2.234   7.204  19.726  0.00  0.00    +0.000 NA
ATOM     18  N   UNL     1       2.890   6.327  19.127  0.00  0.00    +0.000 NA
BRANCH  17  20
ATOM     19  C   UNL     1       2.513   8.318  17.656  0.00  0.00    +0.000 C 
ATOM     20  N   UNL     1       2.095   8.380  19.046  0.00  0.00    +0.000 N 
ATOM     21  C   UNL     1       1.102   9.365  19.441  0.00  0.00    +0.000 C 
ENDBRANCH  17  20
ENDBRANCH   1  18
TORSDOF 5
ENDMDL
MODEL 5
REMARK VINA RESULT:      -6.3      1.214      1.262
REMARK  Name = 
REMARK  7 active torsions:
REMARK  status: ('A' for Active; 'I' for Inactive)
REMARK    1  A    between atoms: C_1  and  N_2
REMARK    2  A    between atoms: N_2  and  C_3
REMARK    3  A    between atoms: N_2  and  N_4
REMARK    4  A    between atoms: N_5  and  C_6
REMARK    5  A    between atoms: C_11  and  C_12
REMARK    6  A    between atoms: N_14  and  C_15
REMARK    7  A    between atoms: C_15  and  C_16
REMARK                            x       y       z     vdW  Elec       q    Type
REMARK                         _______ _______ _______ _____ _____    ______ ____
ROOT
ATOM      1  C   UNL     1       2.594   5.242  19.482  0.00  0.00    +0.000 A 
ATOM      2  C   UNL     1       1.417   4.614  19.952  0.00  0.00    +0.000 A 
ATOM      3  C   UNL     1       1.430   3.315  20.465  0.00  0.00    +0.000 A 
ATOM      4  C   UNL     1       2.618   2.605  20.501  0.00  0.00    +0.000 A 
ATOM      5  C   UNL     1       3.790   3.189  20.023  0.00  0.00    +0.000 A 
ATOM      6  C   UNL     1       3.791   4.505  19.515  0.00  0.00    +0.000 A 
ENDROOT
BRANCH   6   7
ATOM      7  C   UNL     1       5.108   5.004  19.026  0.00  0.00    +0.000 C 
ATOM      8  O   UNL     1       6.081   4.999  19.775  0.00  0.00    +0.000 OA
ATOM      9  N   UNL     1       5.186   5.474  17.739  0.00  0.00    +0.000 N 
ATOM     10  H   UNL     1       4.412   5.314  17.101  0.00  0.00    +0.000 HD
BRANCH   9  11
ATOM     11  C   UNL     1       6.394   6.101  17.221  0.00  0.00    +0.000 C 
BRANCH  11  12
ATOM     12  C   UNL     1       7.320   5.141  16.474  0.00  0.00    +0.000 C 
ATOM     13  N   UNL     1       7.317   5.239  15.112  0.00  0.00    +0.000 N 
ATOM     14  O   UNL     1       7.957   4.250  17.031  0.00  0.00    +0.000 OA
ATOM     15  H   UNL     1       6.515   5.667  14.664  0.00  0.00    +0.000 HD
ATOM     16  H   UNL     1       7.786   4.493  14.607  0.00  0.00    +0.000 HD
ENDBRANCH  11  12
ENDBRANCH   9  11
ENDBRANCH   6   7
BRANCH   1  18
ATOM     17  N   UNL     1       2.165   7.384  19.763  0.00  0.00    +0.000 NA
ATOM     18  N   UNL     1       2.532   6.544  18.916  0.00  0.00    +0.000 NA
BRANCH  17  20
ATOM     19  C   UNL     1       2.072   8.738  17.823  0.00  0.00    +0.000 C 
ATOM     20  N   UNL     1       1.848   8.611  19.254  0.00  0.00    +0.000 N 
ATOM     21  C   UNL     1       0.853   9.456  19.890  0.00  0.00    +0.000 C 
ENDBRANCH  17  20
ENDBRANCH   1  18
TORSDOF 5
ENDMDL
MODEL 6
REMARK VINA RESULT:      -6.3      1.689      1.780
REMARK  Name = 
REMARK  7 active torsions:
REMARK  status: ('A' for Active; 'I' for Inactive)
REMARK    1  A    between atoms: C_1  and  N_2
REMARK    2  A    between atoms: N_2  and  C_3
REMARK    3  A    between atoms: N_2  and  N_4
REMARK    4  A    between atoms: N_5  and  C_6
REMARK    5  A    between atoms: C_11  and  C_12
REMARK    6  A    between atoms: N_14  and  C_15
REMARK    7  A    between atoms: C_15  and  C_16
REMARK                            x       y       z     vdW  Elec       q    Type
REMARK                         _______ _______ _______ _____ _____    ______ ____
ROOT
ATOM      1  C   UNL     1       2.577   4.575  18.575  0.00  0.00    +0.000 A 
ATOM      2  C   UNL     1       1.342   3.883  18.550  0.00  0.00    +0.000 A 
ATOM      3  C   UNL     1       1.274   2.495  18.683  0.00  0.00    +0.000 A 
ATOM      4  C   UNL     1       2.441   1.762  18.824  0.00  0.00    +0.000 A 
ATOM      5  C   UNL     1       3.673   2.414  18.828  0.00  0.00    +0.000 A 
ATOM      6  C   UNL     1       3.753   3.817  18.707  0.00  0.00    +0.000 A 
ENDROOT
BRANCH   6   7
ATOM      7  C   UNL     1       5.132   4.384  18.715  0.00  0.00    +0.000 C 
ATOM      8  O   UNL     1       5.492   5.104  19.642  0.00  0.00    +0.000 OA
ATOM      9  N   UNL     1       5.960   4.090  17.661  0.00  0.00    +0.000 N 
ATOM     10  H   UNL     1       5.690   3.367  17.001  0.00  0.00    +0.000 HD
BRANCH   9  11
ATOM     11  C   UNL     1       7.272   4.705  17.518  0.00  0.00    +0.000 C 
BRANCH  11  12
ATOM     12  C   UNL     1       7.313   5.854  16.511  0.00  0.00    +0.000 C 
ATOM     13  N   UNL     1       7.428   5.499  15.198  0.00  0.00    +0.000 N 
ATOM     14  O   UNL     1       7.351   7.037  16.841  0.00  0.00    +0.000 OA
ATOM     15  H   UNL     1       7.802   4.583  14.980  0.00  0.00    +0.000 HD
ATOM     16  H   UNL     1       7.636   6.250  14.546  0.00  0.00    +0.000 HD
ENDBRANCH  11  12
ENDBRANCH   9  11
ENDBRANCH   6   7
BRANCH   1  18
ATOM     17  N   UNL     1       2.352   6.588  19.441  0.00  0.00    +0.000 NA
ATOM     18  N   UNL     1       2.611   5.983  18.381  0.00  0.00    +0.000 NA
BRANCH  17  20
ATOM     19  C   UNL     1       2.196   8.398  17.923  0.00  0.00    +0.000 C 
ATOM     20  N   UNL     1       2.128   7.927  19.296  0.00  0.00    +0.000 N 
ATOM     21  C   UNL     1       1.324   8.664  20.255  0.00  0.00    +0.000 C 
ENDBRANCH  17  20
ENDBRANCH   1  18
TORSDOF 5
ENDMDL
MODEL 7
REMARK VINA RESULT:      -6.3      1.345      1.368
REMARK  Name = 
REMARK  7 active torsions:
REMARK  status: ('A' for Active; 'I' for Inactive)
REMARK    1  A    between atoms: C_1  and  N_2
REMARK    2  A    between atoms: N_2  and  C_3
REMARK    3  A    between atoms: N_2  and  N_4
REMARK    4  A    between atoms: N_5  and  C_6
REMARK    5  A    between atoms: C_11  and  C_12
REMARK    6  A    between atoms: N_14  and  C_15
REMARK    7  A    between atoms: C_15  and  C_16
REMARK                            x       y       z     vdW  Elec       q    Type
REMARK                         _______ _______ _______ _____ _____    ______ ____
ROOT
ATOM      1  C   UNL     1       2.190   4.803  19.375  0.00  0.00    +0.000 A 
ATOM      2  C   UNL     1       1.122   4.183  20.066  0.00  0.00    +0.000 A 
ATOM      3  C   UNL     1       0.871   2.813  19.956  0.00  0.00    +0.000 A 
ATOM      4  C   UNL     1       1.669   2.034  19.136  0.00  0.00    +0.000 A 
ATOM      5  C   UNL     1       2.714   2.621  18.424  0.00  0.00    +0.000 A 
ATOM      6  C   UNL     1       2.985   4.001  18.538  0.00  0.00    +0.000 A 
ENDROOT
BRANCH   6   7
ATOM      7  C   UNL     1       4.122   4.501  17.714  0.00  0.00    +0.000 C 
ATOM      8  O   UNL     1       4.286   4.077  16.574  0.00  0.00    +0.000 OA
ATOM      9  N   UNL     1       4.972   5.423  18.273  0.00  0.00    +0.000 N 
ATOM     10  H   UNL     1       4.716   5.870  19.149  0.00  0.00    +0.000 HD
BRANCH   9  11
ATOM     11  C   UNL     1       6.181   5.867  17.595  0.00  0.00    +0.000 C 
BRANCH  11  12
ATOM     12  C   UNL     1       7.419   5.032  17.924  0.00  0.00    +0.000 C 
ATOM     13  N   UNL     1       7.933   5.187  19.179  0.00  0.00    +0.000 N 
ATOM     14  O   UNL     1       8.003   4.338  17.095  0.00  0.00    +0.000 OA
ATOM     15  H   UNL     1       7.708   6.034  19.688  0.00  0.00    +0.000 HD
ATOM     16  H   UNL     1       8.849   4.779  19.343  0.00  0.00    +0.000 HD
ENDBRANCH  11  12
ENDBRANCH   9  11
ENDBRANCH   6   7
BRANCH   1  18
ATOM     17  N   UNL     1       1.785   6.677  20.458  0.00  0.00    +0.000 NA
ATOM     18  N   UNL     1       2.381   6.208  19.467  0.00  0.00    +0.000 NA
BRANCH  17  20
ATOM     19  C   UNL     1       1.636   8.666  19.182  0.00  0.00    +0.000 C 
ATOM     20  N   UNL     1       1.714   8.041  20.492  0.00  0.00    +0.000 N 
ATOM     21  C   UNL     1       1.160   8.737  21.640  0.00  0.00    +0.000 C 
ENDBRANCH  17  20
ENDBRANCH   1  18
TORSDOF 5
ENDMDL
MODEL 8
REMARK VINA RESULT:      -6.3      2.305      4.692
REMARK  Name = 
REMARK  7 active torsions:
REMARK  status: ('A' for Active; 'I' for Inactive)
REMARK    1  A    between atoms: C_1  and  N_2
REMARK    2  A    between atoms: N_2  and  C_3
REMARK    3  A    between atoms: N_2  and  N_4
REMARK    4  A    between atoms: N_5  and  C_6
REMARK    5  A    between atoms: C_11  and  C_12
REMARK    6  A    between atoms: N_14  and  C_15
REMARK    7  A    between atoms: C_15  and  C_16
REMARK                            x       y       z     vdW  Elec       q    Type
REMARK                         _______ _______ _______ _____ _____    ______ ____
ROOT
ATOM      1  C   UNL     1       4.607   5.750  17.211  0.00  0.00    +0.000 A 
ATOM      2  C   UNL     1       5.072   6.312  15.999  0.00  0.00    +0.000 A 
ATOM      3  C   UNL     1       5.672   5.531  15.008  0.00  0.00    +0.000 A 
ATOM      4  C   UNL     1       5.842   4.173  15.216  0.00  0.00    +0.000 A 
ATOM      5  C   UNL     1       5.416   3.595  16.410  0.00  0.00    +0.000 A 
ATOM      6  C   UNL     1       4.796   4.371  17.412  0.00  0.00    +0.000 A 
ENDROOT
BRANCH   6   7
ATOM      7  C   UNL     1       4.399   3.631  18.644  0.00  0.00    +0.000 C 
ATOM      8  O   UNL     1       5.249   3.327  19.476  0.00  0.00    +0.000 OA
ATOM      9  N   UNL     1       3.078   3.295  18.801  0.00  0.00    +0.000 N 
ATOM     10  H   UNL     1       2.383   3.699  18.181  0.00  0.00    +0.000 HD
BRANCH   9  11
ATOM     11  C   UNL     1       2.622   2.459  19.903  0.00  0.00    +0.000 C 
BRANCH  11  12
ATOM     12  C   UNL     1       1.800   3.210  20.952  0.00  0.00    +0.000 C 
ATOM     13  N   UNL     1       0.712   3.892  20.488  0.00  0.00    +0.000 N 
ATOM     14  O   UNL     1       2.137   3.303  22.130  0.00  0.00    +0.000 OA
ATOM     15  H   UNL     1       0.687   4.144  19.507  0.00  0.00    +0.000 HD
ATOM     16  H   UNL     1       0.272   4.533  21.142  0.00  0.00    +0.000 HD
ENDBRANCH  11  12
ENDBRANCH   9  11
ENDBRANCH   6   7
BRANCH   1  18
ATOM     17  N   UNL     1       2.882   6.912  17.934  0.00  0.00    +0.000 NA
ATOM     18  N   UNL     1       4.051   6.584  18.219  0.00  0.00    +0.000 NA
BRANCH  17  20
ATOM     19  C   UNL     1       1.733   8.982  17.977  0.00  0.00    +0.000 C 
ATOM     20  N   UNL     1       2.356   7.899  18.719  0.00  0.00    +0.000 N 
ATOM     21  C   UNL     1       1.912   7.626  20.074  0.00  0.00    +0.000 C 
ENDBRANCH  17  20
ENDBRANCH   1  18
TORSDOF 5
ENDMDL
MODEL 9
REMARK VINA RESULT:      -6.3      1.667      1.743
REMARK  Name = 
REMARK  7 active torsions:
REMARK  status: ('A' for Active; 'I' for Inactive)
REMARK    1  A    between atoms: C_1  and  N_2
REMARK    2  A    between atoms: N_2  and  C_3
REMARK    3  A    between atoms: N_2  and  N_4
REMARK    4  A    between atoms: N_5  and  C_6
REMARK    5  A    between atoms: C_11  and  C_12
REMARK    6  A    between atoms: N_14  and  C_15
REMARK    7  A    between atoms: C_15  and  C_16
REMARK                            x       y       z     vdW  Elec       q    Type
REMARK                         _______ _______ _______ _____ _____    ______ ____
ROOT
ATOM      1  C   UNL     1       2.504   4.441  18.354  0.00  0.00    +0.000 A 
ATOM      2  C   UNL     1       1.287   3.877  18.805  0.00  0.00    +0.000 A 
ATOM      3  C   UNL     1       1.111   2.496  18.912  0.00  0.00    +0.000 A 
ATOM      4  C   UNL     1       2.141   1.644  18.551  0.00  0.00    +0.000 A 
ATOM      5  C   UNL     1       3.343   2.170  18.081  0.00  0.00    +0.000 A 
ATOM      6  C   UNL     1       3.537   3.564  17.981  0.00  0.00    +0.000 A 
ENDROOT
BRANCH   6   7
ATOM      7  C   UNL     1       4.863   3.992  17.453  0.00  0.00    +0.000 C 
ATOM      8  O   UNL     1       5.203   3.670  16.317  0.00  0.00    +0.000 OA
ATOM      9  N   UNL     1       5.681   4.729  18.272  0.00  0.00    +0.000 N 
ATOM     10  H   UNL     1       5.307   5.112  19.135  0.00  0.00    +0.000 HD
BRANCH   9  11
ATOM     11  C   UNL     1       7.043   5.076  17.891  0.00  0.00    +0.000 C 
BRANCH  11  12
ATOM     12  C   UNL     1       7.129   6.173  16.829  0.00  0.00    +0.000 C 
ATOM     13  N   UNL     1       7.434   5.762  15.563  0.00  0.00    +0.000 N 
ATOM     14  O   UNL     1       7.044   7.371  17.090  0.00  0.00    +0.000 OA
ATOM     15  H   UNL     1       7.895   4.867  15.448  0.00  0.00    +0.000 HD
ATOM     16  H   UNL     1       7.669   6.493  14.898  0.00  0.00    +0.000 HD
ENDBRANCH  11  12
ENDBRANCH   9  11
ENDBRANCH   6   7
BRANCH   1  18
ATOM     17  N   UNL     1       2.428   6.433  19.290  0.00  0.00    +0.000 NA
ATOM     18  N   UNL     1       2.627   5.849  18.205  0.00  0.00    +0.000 NA
BRANCH  17  20
ATOM     19  C   UNL     1       2.474   8.313  17.851  0.00  0.00    +0.000 C 
ATOM     20  N   UNL     1       2.290   7.789  19.194  0.00  0.00    +0.000 N 
ATOM     21  C   UNL     1       1.466   8.530  20.133  0.00  0.00    +0.000 C 
ENDBRANCH  17  20
ENDBRANCH   1  18
TORSDOF 5
ENDMDL
