MODEL 1
REMARK VINA RESULT:      -7.0      0.000      0.000
REMARK  Name = 
REMARK  2 active torsions:
REMARK  status: ('A' for Active; 'I' for Inactive)
REMARK    1  A    between atoms: C_7  and  C_8
REMARK    2  A    between atoms: C_11  and  O_12
REMARK                            x       y       z     vdW  Elec       q    Type
REMARK                         _______ _______ _______ _____ _____    ______ ____
ROOT
ATOM      1  N   UNL     1       8.086   4.185  17.563  0.00  0.00    +0.000 NA
ATOM      2  C   UNL     1       7.021   4.701  18.062  0.00  0.00    +0.000 C 
ATOM      3  N   UNL     1       7.002   6.110  18.290  0.00  0.00    +0.000 N 
ATOM      4  N   UNL     1       5.933   3.846  18.455  0.00  0.00    +0.000 N 
ATOM      5  C   UNL     1       4.675   4.320  18.904  0.00  0.00    +0.000 A 
ATOM      6  N   UNL     1       4.224   5.565  18.668  0.00  0.00    +0.000 NA
ATOM      7  C   UNL     1       3.045   5.827  19.279  0.00  0.00    +0.000 A 
ATOM      8  C   UNL     1       2.536   4.752  20.017  0.00  0.00    +0.000 A 
ATOM      9  S   UNL     1       3.597   3.447  19.848  0.00  0.00    +0.000 S 
ATOM     10  H   UNL     1       8.182   3.177  17.410  0.00  0.00    +0.000 HD
ATOM     11  H   UNL     1       7.815   6.677  18.015  0.00  0.00    +0.000 HD
ATOM     12  H   UNL     1       6.268   6.591  18.819  0.00  0.00    +0.000 HD
ATOM     13  H   UNL     1       6.093   2.826  18.473  0.00  0.00    +0.000 HD
ENDROOT
BRANCH   7  14
ATOM     14  C   UNL     1       2.441   7.178  19.170  0.00  0.00    +0.000 A 
ATOM     15  C   UNL     1       1.768   7.722  20.284  0.00  0.00    +0.000 A 
ATOM     16  C   UNL     1       1.161   8.977  20.207  0.00  0.00    +0.000 A 
ATOM     17  C   UNL     1       1.209   9.708  19.015  0.00  0.00    +0.000 A 
ATOM     18  C   UNL     1       1.878   9.180  17.907  0.00  0.00    +0.000 A 
ATOM     19  C   UNL     1       2.495   7.926  17.981  0.00  0.00    +0.000 A 
BRANCH  17  20
ATOM     20  O   UNL     1       0.613  10.913  18.922  0.00  0.00    +0.000 OA
ATOM     21  H   UNL     1       0.943  11.686  19.403  0.00  0.00    +0.000 HD
ENDBRANCH  17  20
ENDBRANCH   7  14
TORSDOF 2
ENDMDL
MODEL 2
REMARK VINA RESULT:      -7.0      3.935      4.800
REMARK  Name = 
REMARK  2 active torsions:
REMARK  status: ('A' for Active; 'I' for Inactive)
REMARK    1  A    between atoms: C_7  and  C_8
REMARK    2  A    between atoms: C_11  and  O_12
REMARK                            x       y       z     vdW  Elec       q    Type
REMARK                         _______ _______ _______ _____ _____    ______ ____
ROOT
ATOM      1  N   UNL     1       7.740   5.139  13.595  0.00  0.00    +0.000 NA
ATOM      2  C   UNL     1       6.995   5.094  14.640  0.00  0.00    +0.000 C 
ATOM      3  N   UNL     1       5.582   5.038  14.454  0.00  0.00    +0.000 N 
ATOM      4  N   UNL     1       7.595   5.195  15.944  0.00  0.00    +0.000 N 
ATOM      5  C   UNL     1       6.880   5.039  17.159  0.00  0.00    +0.000 A 
ATOM      6  N   UNL     1       5.686   4.428  17.243  0.00  0.00    +0.000 NA
ATOM      7  C   UNL     1       5.145   4.488  18.483  0.00  0.00    +0.000 A 
ATOM      8  C   UNL     1       5.941   5.161  19.417  0.00  0.00    +0.000 A 
ATOM      9  S   UNL     1       7.365   5.645  18.646  0.00  0.00    +0.000 S 
ATOM     10  H   UNL     1       8.759   5.219  13.655  0.00  0.00    +0.000 HD
ATOM     11  H   UNL     1       5.199   4.994  13.501  0.00  0.00    +0.000 HD
ATOM     12  H   UNL     1       4.903   5.153  15.215  0.00  0.00    +0.000 HD
ATOM     13  H   UNL     1       8.592   5.456  16.006  0.00  0.00    +0.000 HD
ENDROOT
BRANCH   7  14
ATOM     14  C   UNL     1       3.799   3.915  18.731  0.00  0.00    +0.000 A 
ATOM     15  C   UNL     1       2.724   4.300  17.901  0.00  0.00    +0.000 A 
ATOM     16  C   UNL     1       1.438   3.803  18.125  0.00  0.00    +0.000 A 
ATOM     17  C   UNL     1       1.201   2.921  19.184  0.00  0.00    +0.000 A 
ATOM     18  C   UNL     1       2.261   2.529  20.008  0.00  0.00    +0.000 A 
ATOM     19  C   UNL     1       3.553   3.017  19.784  0.00  0.00    +0.000 A 
BRANCH  17  20
ATOM     20  O   UNL     1      -0.038   2.448  19.420  0.00  0.00    +0.000 OA
ATOM     21  H   UNL     1      -0.233   1.876  20.177  0.00  0.00    +0.000 HD
ENDBRANCH  17  20
ENDBRANCH   7  14
TORSDOF 2
ENDMDL
MODEL 3
REMARK VINA RESULT:      -6.9      0.235      1.231
REMARK  Name = 
REMARK  2 active torsions:
REMARK  status: ('A' for Active; 'I' for Inactive)
REMARK    1  A    between atoms: C_7  and  C_8
REMARK    2  A    between atoms: C_11  and  O_12
REMARK                            x       y       z     vdW  Elec       q    Type
REMARK                         _______ _______ _______ _____ _____    ______ ____
ROOT
ATOM      1  N   UNL     1       8.000   4.221  17.175  0.00  0.00    +0.000 NA
ATOM      2  C   UNL     1       6.966   4.737  17.736  0.00  0.00    +0.000 C 
ATOM      3  N   UNL     1       6.914   6.157  17.871  0.00  0.00    +0.000 N 
ATOM      4  N   UNL     1       5.953   3.876  18.287  0.00  0.00    +0.000 N 
ATOM      5  C   UNL     1       4.723   4.340  18.820  0.00  0.00    +0.000 A 
ATOM      6  N   UNL     1       4.206   5.550  18.545  0.00  0.00    +0.000 NA
ATOM      7  C   UNL     1       3.078   5.816  19.246  0.00  0.00    +0.000 A 
ATOM      8  C   UNL     1       2.681   4.780  20.098  0.00  0.00    +0.000 A 
ATOM      9  S   UNL     1       3.771   3.500  19.916  0.00  0.00    +0.000 S 
ATOM     10  H   UNL     1       8.120   3.208  17.081  0.00  0.00    +0.000 HD
ATOM     11  H   UNL     1       7.676   6.729  17.484  0.00  0.00    +0.000 HD
ATOM     12  H   UNL     1       6.213   6.650  18.434  0.00  0.00    +0.000 HD
ATOM     13  H   UNL     1       6.153   2.866  18.356  0.00  0.00    +0.000 HD
ENDROOT
BRANCH   7  14
ATOM     14  C   UNL     1       2.415   7.136  19.104  0.00  0.00    +0.000 A 
ATOM     15  C   UNL     1       2.441   7.788  17.853  0.00  0.00    +0.000 A 
ATOM     16  C   UNL     1       1.853   9.044  17.692  0.00  0.00    +0.000 A 
ATOM     17  C   UNL     1       1.237   9.675  18.777  0.00  0.00    +0.000 A 
ATOM     18  C   UNL     1       1.201   9.035  20.020  0.00  0.00    +0.000 A 
ATOM     19  C   UNL     1       1.781   7.772  20.186  0.00  0.00    +0.000 A 
BRANCH  17  20
ATOM     20  O   UNL     1       0.681  10.895  18.639  0.00  0.00    +0.000 OA
ATOM     21  H   UNL     1       1.213  11.684  18.466  0.00  0.00    +0.000 HD
ENDBRANCH  17  20
ENDBRANCH   7  14
TORSDOF 2
ENDMDL
MODEL 4
REMARK VINA RESULT:      -6.8      1.123      1.125
REMARK  Name = 
REMARK  2 active torsions:
REMARK  status: ('A' for Active; 'I' for Inactive)
REMARK    1  A    between atoms: C_7  and  C_8
REMARK    2  A    between atoms: C_11  and  O_12
REMARK                            x       y       z     vdW  Elec       q    Type
REMARK                         _______ _______ _______ _____ _____    ______ ____
ROOT
ATOM      1  N   UNL     1       8.151   4.186  17.659  0.00  0.00    +0.000 NA
ATOM      2  C   UNL     1       6.969   4.590  17.958  0.00  0.00    +0.000 C 
ATOM      3  N   UNL     1       6.840   5.623  18.934  0.00  0.00    +0.000 N 
ATOM      4  N   UNL     1       5.826   3.934  17.380  0.00  0.00    +0.000 N 
ATOM      5  C   UNL     1       4.489   4.374  17.550  0.00  0.00    +0.000 A 
ATOM      6  N   UNL     1       4.163   5.619  17.939  0.00  0.00    +0.000 NA
ATOM      7  C   UNL     1       2.833   5.783  18.135  0.00  0.00    +0.000 A 
ATOM      8  C   UNL     1       2.077   4.632  17.885  0.00  0.00    +0.000 A 
ATOM      9  S   UNL     1       3.127   3.411  17.372  0.00  0.00    +0.000 S 
ATOM     10  H   UNL     1       8.314   3.421  16.997  0.00  0.00    +0.000 HD
ATOM     11  H   UNL     1       7.687   6.044  19.338  0.00  0.00    +0.000 HD
ATOM     12  H   UNL     1       5.946   5.906  19.349  0.00  0.00    +0.000 HD
ATOM     13  H   UNL     1       5.977   3.055  16.859  0.00  0.00    +0.000 HD
ENDROOT
BRANCH   7  14
ATOM     14  C   UNL     1       2.313   7.083  18.625  0.00  0.00    +0.000 A 
ATOM     15  C   UNL     1       1.966   7.216  19.986  0.00  0.00    +0.000 A 
ATOM     16  C   UNL     1       1.444   8.415  20.475  0.00  0.00    +0.000 A 
ATOM     17  C   UNL     1       1.253   9.500  19.614  0.00  0.00    +0.000 A 
ATOM     18  C   UNL     1       1.599   9.381  18.264  0.00  0.00    +0.000 A 
ATOM     19  C   UNL     1       2.130   8.183  17.770  0.00  0.00    +0.000 A 
BRANCH  17  20
ATOM     20  O   UNL     1       0.736  10.658  20.069  0.00  0.00    +0.000 OA
ATOM     21  H   UNL     1       1.119  11.516  19.840  0.00  0.00    +0.000 HD
ENDBRANCH  17  20
ENDBRANCH   7  14
TORSDOF 2
ENDMDL
MODEL 5
REMARK VINA RESULT:      -6.8      3.908      4.696
REMARK  Name = 
REMARK  2 active torsions:
REMARK  status: ('A' for Active; 'I' for Inactive)
REMARK    1  A    between atoms: C_7  and  C_8
REMARK    2  A    between atoms: C_11  and  O_12
REMARK                            x       y       z     vdW  Elec       q    Type
REMARK                         _______ _______ _______ _____ _____    ______ ____
ROOT
ATOM      1  N   UNL     1       7.629   4.704  13.354  0.00  0.00    +0.000 NA
ATOM      2  C   UNL     1       6.915   4.767  14.419  0.00  0.00    +0.000 C 
ATOM      3  N   UNL     1       5.495   4.785  14.276  0.00  0.00    +0.000 N 
ATOM      4  N   UNL     1       7.559   4.911  15.698  0.00  0.00    +0.000 N 
ATOM      5  C   UNL     1       6.874   4.872  16.939  0.00  0.00    +0.000 A 
ATOM      6  N   UNL     1       5.649   4.340  17.093  0.00  0.00    +0.000 NA
ATOM      7  C   UNL     1       5.151   4.507  18.341  0.00  0.00    +0.000 A 
ATOM      8  C   UNL     1       6.012   5.186  19.210  0.00  0.00    +0.000 A 
ATOM      9  S   UNL     1       7.438   5.537  18.372  0.00  0.00    +0.000 S 
ATOM     10  H   UNL     1       8.652   4.727  13.382  0.00  0.00    +0.000 HD
ATOM     11  H   UNL     1       5.082   4.706  13.338  0.00  0.00    +0.000 HD
ATOM     12  H   UNL     1       4.848   4.986  15.045  0.00  0.00    +0.000 HD
ATOM     13  H   UNL     1       8.571   5.115  15.717  0.00  0.00    +0.000 HD
ENDROOT
BRANCH   7  14
ATOM     14  C   UNL     1       3.782   4.032  18.660  0.00  0.00    +0.000 A 
ATOM     15  C   UNL     1       3.592   3.174  19.764  0.00  0.00    +0.000 A 
ATOM     16  C   UNL     1       2.322   2.682  20.074  0.00  0.00    +0.000 A 
ATOM     17  C   UNL     1       1.222   3.032  19.286  0.00  0.00    +0.000 A 
ATOM     18  C   UNL     1       1.398   3.887  18.192  0.00  0.00    +0.000 A 
ATOM     19  C   UNL     1       2.667   4.389  17.881  0.00  0.00    +0.000 A 
BRANCH  17  20
ATOM     20  O   UNL     1      -0.006   2.552  19.565  0.00  0.00    +0.000 OA
ATOM     21  H   UNL     1      -0.532   2.889  20.304  0.00  0.00    +0.000 HD
ENDBRANCH  17  20
ENDBRANCH   7  14
TORSDOF 2
ENDMDL
MODEL 6
REMARK VINA RESULT:      -6.8      4.070      4.981
REMARK  Name = 
REMARK  2 active torsions:
REMARK  status: ('A' for Active; 'I' for Inactive)
REMARK    1  A    between atoms: C_7  and  C_8
REMARK    2  A    between atoms: C_11  and  O_12
REMARK                            x       y       z     vdW  Elec       q    Type
REMARK                         _______ _______ _______ _____ _____    ______ ____
ROOT
ATOM      1  N   UNL     1       8.648   7.480  18.936  0.00  0.00    +0.000 NA
ATOM      2  C   UNL     1       7.790   6.602  18.560  0.00  0.00    +0.000 C 
ATOM      3  N   UNL     1       7.127   5.837  19.566  0.00  0.00    +0.000 N 
ATOM      4  N   UNL     1       7.595   6.354  17.156  0.00  0.00    +0.000 N 
ATOM      5  C   UNL     1       6.595   5.496  16.633  0.00  0.00    +0.000 A 
ATOM      6  N   UNL     1       5.507   5.118  17.326  0.00  0.00    +0.000 NA
ATOM      7  C   UNL     1       4.744   4.215  16.666  0.00  0.00    +0.000 A 
ATOM      8  C   UNL     1       5.237   3.871  15.402  0.00  0.00    +0.000 A 
ATOM      9  S   UNL     1       6.644   4.767  15.123  0.00  0.00    +0.000 S 
ATOM     10  H   UNL     1       9.188   8.035  18.266  0.00  0.00    +0.000 HD
ATOM     11  H   UNL     1       7.319   6.033  20.557  0.00  0.00    +0.000 HD
ATOM     12  H   UNL     1       6.545   5.016  19.367  0.00  0.00    +0.000 HD
ATOM     13  H   UNL     1       8.259   6.776  16.487  0.00  0.00    +0.000 HD
ENDROOT
BRANCH   7  14
ATOM     14  C   UNL     1       3.537   3.649  17.318  0.00  0.00    +0.000 A 
ATOM     15  C   UNL     1       2.411   4.476  17.517  0.00  0.00    +0.000 A 
ATOM     16  C   UNL     1       1.271   3.985  18.155  0.00  0.00    +0.000 A 
ATOM     17  C   UNL     1       1.235   2.664  18.612  0.00  0.00    +0.000 A 
ATOM     18  C   UNL     1       2.344   1.834  18.415  0.00  0.00    +0.000 A 
ATOM     19  C   UNL     1       3.488   2.319  17.769  0.00  0.00    +0.000 A 
BRANCH  17  20
ATOM     20  O   UNL     1       0.147   2.183  19.244  0.00  0.00    +0.000 OA
ATOM     21  H   UNL     1      -0.418   2.746  19.792  0.00  0.00    +0.000 HD
ENDBRANCH  17  20
ENDBRANCH   7  14
TORSDOF 2
ENDMDL
MODEL 7
REMARK VINA RESULT:      -6.7      1.856      2.802
REMARK  Name = 
REMARK  2 active torsions:
REMARK  status: ('A' for Active; 'I' for Inactive)
REMARK    1  A    between atoms: C_7  and  C_8
REMARK    2  A    between atoms: C_11  and  O_12
REMARK                            x       y       z     vdW  Elec       q    Type
REMARK                         _______ _______ _______ _____ _____    ______ ____
ROOT
ATOM      1  N   UNL     1       5.042   1.594  20.369  0.00  0.00    +0.000 NA
ATOM      2  C   UNL     1       4.551   2.660  19.846  0.00  0.00    +0.000 C 
ATOM      3  N   UNL     1       3.239   3.058  20.242  0.00  0.00    +0.000 N 
ATOM      4  N   UNL     1       5.288   3.355  18.825  0.00  0.00    +0.000 N 
ATOM      5  C   UNL     1       4.894   4.598  18.269  0.00  0.00    +0.000 A 
ATOM      6  N   UNL     1       4.025   5.434  18.865  0.00  0.00    +0.000 NA
ATOM      7  C   UNL     1       3.718   6.511  18.105  0.00  0.00    +0.000 A 
ATOM      8  C   UNL     1       4.371   6.537  16.867  0.00  0.00    +0.000 A 
ATOM      9  S   UNL     1       5.378   5.182  16.773  0.00  0.00    +0.000 S 
ATOM     10  H   UNL     1       5.961   1.230  20.101  0.00  0.00    +0.000 HD
ATOM     11  H   UNL     1       2.741   2.514  20.958  0.00  0.00    +0.000 HD
ATOM     12  H   UNL     1       2.704   3.798  19.775  0.00  0.00    +0.000 HD
ATOM     13  H   UNL     1       6.123   2.897  18.425  0.00  0.00    +0.000 HD
ENDROOT
BRANCH   7  14
ATOM     14  C   UNL     1       2.726   7.501  18.592  0.00  0.00    +0.000 A 
ATOM     15  C   UNL     1       2.341   8.563  17.746  0.00  0.00    +0.000 A 
ATOM     16  C   UNL     1       1.434   9.529  18.183  0.00  0.00    +0.000 A 
ATOM     17  C   UNL     1       0.899   9.458  19.473  0.00  0.00    +0.000 A 
ATOM     18  C   UNL     1       1.270   8.406  20.318  0.00  0.00    +0.000 A 
ATOM     19  C   UNL     1       2.173   7.430  19.883  0.00  0.00    +0.000 A 
BRANCH  17  20
ATOM     20  O   UNL     1       0.035  10.393  19.913  0.00  0.00    +0.000 OA
ATOM     21  H   UNL     1      -0.892  10.406  19.635  0.00  0.00    +0.000 HD
ENDBRANCH  17  20
ENDBRANCH   7  14
TORSDOF 2
ENDMDL
MODEL 8
REMARK VINA RESULT:      -6.7      1.122      1.624
REMARK  Name = 
REMARK  2 active torsions:
REMARK  status: ('A' for Active; 'I' for Inactive)
REMARK    1  A    between atoms: C_7  and  C_8
REMARK    2  A    between atoms: C_11  and  O_12
REMARK                            x       y       z     vdW  Elec       q    Type
REMARK                         _______ _______ _______ _____ _____    ______ ____
ROOT
ATOM      1  N   UNL     1       8.160   4.199  17.730  0.00  0.00    +0.000 NA
ATOM      2  C   UNL     1       6.968   4.574  18.024  0.00  0.00    +0.000 C 
ATOM      3  N   UNL     1       6.809   5.578  19.026  0.00  0.00    +0.000 N 
ATOM      4  N   UNL     1       5.845   3.917  17.412  0.00  0.00    +0.000 N 
ATOM      5  C   UNL     1       4.498   4.329  17.576  0.00  0.00    +0.000 A 
ATOM      6  N   UNL     1       4.145   5.557  17.995  0.00  0.00    +0.000 NA
ATOM      7  C   UNL     1       2.811   5.693  18.177  0.00  0.00    +0.000 A 
ATOM      8  C   UNL     1       2.077   4.537  17.884  0.00  0.00    +0.000 A 
ATOM      9  S   UNL     1       3.155   3.349  17.352  0.00  0.00    +0.000 S 
ATOM     10  H   UNL     1       8.345   3.456  17.050  0.00  0.00    +0.000 HD
ATOM     11  H   UNL     1       7.643   6.001  19.454  0.00  0.00    +0.000 HD
ATOM     12  H   UNL     1       5.905   5.834  19.437  0.00  0.00    +0.000 HD
ATOM     13  H   UNL     1       6.017   3.055  16.869  0.00  0.00    +0.000 HD
ENDROOT
BRANCH   7  14
ATOM     14  C   UNL     1       2.262   6.970  18.696  0.00  0.00    +0.000 A 
ATOM     15  C   UNL     1       2.079   8.051  17.808  0.00  0.00    +0.000 A 
ATOM     16  C   UNL     1       1.594   9.277  18.268  0.00  0.00    +0.000 A 
ATOM     17  C   UNL     1       1.289   9.448  19.622  0.00  0.00    +0.000 A 
ATOM     18  C   UNL     1       1.461   8.381  20.509  0.00  0.00    +0.000 A 
ATOM     19  C   UNL     1       1.940   7.148  20.053  0.00  0.00    +0.000 A 
BRANCH  17  20
ATOM     20  O   UNL     1       0.836  10.631  20.081  0.00  0.00    +0.000 OA
ATOM     21  H   UNL     1       0.881  10.868  21.019  0.00  0.00    +0.000 HD
ENDBRANCH  17  20
ENDBRANCH   7  14
TORSDOF 2
ENDMDL
MODEL 9
REMARK VINA RESULT:      -6.7      3.397      5.824
REMARK  Name = 
REMARK  2 active torsions:
REMARK  status: ('A' for Active; 'I' for Inactive)
REMARK    1  A    between atoms: C_7  and  C_8
REMARK    2  A    between atoms: C_11  and  O_12
REMARK                            x       y       z     vdW  Elec       q    Type
REMARK                         _______ _______ _______ _____ _____    ______ ____
ROOT
ATOM      1  N   UNL     1       1.267   8.081  21.331  0.00  0.00    +0.000 NA
ATOM      2  C   UNL     1       1.872   7.281  20.529  0.00  0.00    +0.000 C 
ATOM      3  N   UNL     1       2.196   7.758  19.223  0.00  0.00    +0.000 N 
ATOM      4  N   UNL     1       2.117   5.921  20.932  0.00  0.00    +0.000 N 
ATOM      5  C   UNL     1       2.876   4.994  20.174  0.00  0.00    +0.000 A 
ATOM      6  N   UNL     1       3.744   5.357  19.213  0.00  0.00    +0.000 NA
ATOM      7  C   UNL     1       4.278   4.302  18.553  0.00  0.00    +0.000 A 
ATOM      8  C   UNL     1       3.825   3.059  19.011  0.00  0.00    +0.000 A 
ATOM      9  S   UNL     1       2.762   3.325  20.298  0.00  0.00    +0.000 S 
ATOM     10  H   UNL     1       0.971   7.791  22.268  0.00  0.00    +0.000 HD
ATOM     11  H   UNL     1       1.977   8.730  18.973  0.00  0.00    +0.000 HD
ATOM     12  H   UNL     1       2.536   7.156  18.466  0.00  0.00    +0.000 HD
ATOM     13  H   UNL     1       1.664   5.576  21.793  0.00  0.00    +0.000 HD
ENDROOT
BRANCH   7  14
ATOM     14  C   UNL     1       5.209   4.533  17.422  0.00  0.00    +0.000 A 
ATOM     15  C   UNL     1       6.199   5.531  17.538  0.00  0.00    +0.000 A 
ATOM     16  C   UNL     1       7.072   5.796  16.481  0.00  0.00    +0.000 A 
ATOM     17  C   UNL     1       6.969   5.074  15.288  0.00  0.00    +0.000 A 
ATOM     18  C   UNL     1       5.994   4.079  15.164  0.00  0.00    +0.000 A 
ATOM     19  C   UNL     1       5.121   3.804  16.223  0.00  0.00    +0.000 A 
BRANCH  17  20
ATOM     20  O   UNL     1       7.794   5.331  14.254  0.00  0.00    +0.000 OA
ATOM     21  H   UNL     1       7.464   5.646  13.400  0.00  0.00    +0.000 HD
ENDBRANCH  17  20
ENDBRANCH   7  14
TORSDOF 2
ENDMDL
