MODEL 1
REMARK VINA RESULT:      -8.4      0.000      0.000
REMARK  Name = 
REMARK  7 active torsions:
REMARK  status: ('A' for Active; 'I' for Inactive)
REMARK    1  A    between atoms: C_1  and  C_2
REMARK    2  A    between atoms: C_3  and  O_4
REMARK    3  A    between atoms: O_4  and  C_5
REMARK    4  A    between atoms: C_5  and  C_6
REMARK    5  A    between atoms: C_6  and  O_7
REMARK    6  A    between atoms: O_7  and  C_8
REMARK    7  A    between atoms: C_17  and  N_18
REMARK                            x       y       z     vdW  Elec       q    Type
REMARK                         _______ _______ _______ _____ _____    ______ ____
ROOT
ATOM      1  C   UNL     1       1.162   6.892  20.999  0.00  0.00    +0.000 C 
ATOM      2  C   UNL     1       2.121   6.853  19.839  0.00  0.00    +0.000 A 
ATOM      3  C   UNL     1       2.225   7.911  18.919  0.00  0.00    +0.000 A 
ATOM      4  C   UNL     1       3.106   7.794  17.842  0.00  0.00    +0.000 A 
ATOM      5  C   UNL     1       3.897   6.655  17.682  0.00  0.00    +0.000 A 
ATOM      6  C   UNL     1       3.847   5.606  18.603  0.00  0.00    +0.000 A 
ATOM      7  C   UNL     1       4.677   4.395  18.469  0.00  0.00    +0.000 A 
ATOM      8  C   UNL     1       4.402   3.368  19.288  0.00  0.00    +0.000 A 
ATOM      9  C   UNL     1       3.390   3.424  20.348  0.00  0.00    +0.000 A 
ATOM     10  O   UNL     1       3.161   2.441  21.046  0.00  0.00    +0.000 OA
ATOM     11  O   UNL     1       2.749   4.633  20.543  0.00  0.00    +0.000 OA
ATOM     12  C   UNL     1       2.931   5.713  19.651  0.00  0.00    +0.000 A 
ENDROOT
BRANCH   7  13
ATOM     13  N   UNL     1       5.679   4.364  17.502  0.00  0.00    +0.000 N 
ATOM     14  C   UNL     1       5.446   3.918  16.110  0.00  0.00    +0.000 C 
ATOM     15  C   UNL     1       5.788   5.040  15.108  0.00  0.00    +0.000 C 
ATOM     16  N   UNL     1       7.152   5.577  15.277  0.00  0.00    +0.000 NA
ATOM     17  C   UNL     1       7.332   6.027  16.670  0.00  0.00    +0.000 C 
ATOM     18  C   UNL     1       7.024   4.931  17.710  0.00  0.00    +0.000 C 
ATOM     19  H   UNL     1       7.278   6.371  14.650  0.00  0.00    +0.000 HD
ENDBRANCH   7  13
BRANCH   3  20
ATOM     20  O   UNL     1       1.424   9.001  19.143  0.00  0.00    +0.000 OA
BRANCH  20  21
ATOM     21  C   UNL     1       1.572  10.150  18.303  0.00  0.00    +0.000 C 
BRANCH  21  22
ATOM     22  C   UNL     1       0.545  11.223  18.656  0.00  0.00    +0.000 C 
BRANCH  22  23
ATOM     23  O   UNL     1      -0.654  10.600  19.122  0.00  0.00    +0.000 OA
BRANCH  23  24
ATOM     24  C   UNL     1      -1.734  10.713  18.284  0.00  0.00    +0.000 A 
ATOM     25  C   UNL     1      -1.703   9.895  17.153  0.00  0.00    +0.000 A 
ATOM     26  C   UNL     1      -2.749   9.930  16.226  0.00  0.00    +0.000 A 
ATOM     27  C   UNL     1      -3.838  10.771  16.437  0.00  0.00    +0.000 A 
ATOM     28  C   UNL     1      -3.886  11.571  17.578  0.00  0.00    +0.000 A 
ATOM     29  C   UNL     1      -2.837  11.541  18.501  0.00  0.00    +0.000 A 
ENDBRANCH  23  24
ENDBRANCH  22  23
ENDBRANCH  21  22
ENDBRANCH  20  21
ENDBRANCH   3  20
TORSDOF 6
ENDMDL
MODEL 2
REMARK VINA RESULT:      -8.2      1.038      1.561
REMARK  Name = 
REMARK  7 active torsions:
REMARK  status: ('A' for Active; 'I' for Inactive)
REMARK    1  A    between atoms: C_1  and  C_2
REMARK    2  A    between atoms: C_3  and  O_4
REMARK    3  A    between atoms: O_4  and  C_5
REMARK    4  A    between atoms: C_5  and  C_6
REMARK    5  A    between atoms: C_6  and  O_7
REMARK    6  A    between atoms: O_7  and  C_8
REMARK    7  A    between atoms: C_17  and  N_18
REMARK                            x       y       z     vdW  Elec       q    Type
REMARK                         _______ _______ _______ _____ _____    ______ ____
ROOT
ATOM      1  C   UNL     1       0.694   7.951  21.384  0.00  0.00    +0.000 C 
ATOM      2  C   UNL     1       1.487   8.005  20.106  0.00  0.00    +0.000 A 
ATOM      3  C   UNL     1       1.446   9.119  19.248  0.00  0.00    +0.000 A 
ATOM      4  C   UNL     1       2.175   9.089  18.056  0.00  0.00    +0.000 A 
ATOM      5  C   UNL     1       2.957   7.982  17.721  0.00  0.00    +0.000 A 
ATOM      6  C   UNL     1       3.051   6.879  18.573  0.00  0.00    +0.000 A 
ATOM      7  C   UNL     1       3.876   5.700  18.253  0.00  0.00    +0.000 A 
ATOM      8  C   UNL     1       3.733   4.620  19.036  0.00  0.00    +0.000 A 
ATOM      9  C   UNL     1       2.874   4.586  20.224  0.00  0.00    +0.000 A 
ATOM     10  O   UNL     1       2.760   3.558  20.883  0.00  0.00    +0.000 OA
ATOM     11  O   UNL     1       2.244   5.765  20.578  0.00  0.00    +0.000 OA
ATOM     12  C   UNL     1       2.284   6.900  19.739  0.00  0.00    +0.000 A 
ENDROOT
BRANCH   7  13
ATOM     13  N   UNL     1       4.739   5.753  17.160  0.00  0.00    +0.000 N 
ATOM     14  C   UNL     1       5.830   6.745  17.039  0.00  0.00    +0.000 C 
ATOM     15  C   UNL     1       7.199   6.045  16.915  0.00  0.00    +0.000 C 
ATOM     16  N   UNL     1       7.252   5.054  15.823  0.00  0.00    +0.000 NA
ATOM     17  C   UNL     1       6.162   4.076  15.997  0.00  0.00    +0.000 C 
ATOM     18  C   UNL     1       4.767   4.728  16.100  0.00  0.00    +0.000 C 
ATOM     19  H   UNL     1       8.146   4.568  15.857  0.00  0.00    +0.000 HD
ENDBRANCH   7  13
BRANCH   3  20
ATOM     20  O   UNL     1       0.665  10.172  19.645  0.00  0.00    +0.000 OA
BRANCH  20  21
ATOM     21  C   UNL     1       0.871  11.451  19.039  0.00  0.00    +0.000 C 
BRANCH  21  22
ATOM     22  C   UNL     1      -0.460  12.127  18.715  0.00  0.00    +0.000 C 
BRANCH  22  23
ATOM     23  O   UNL     1      -1.529  11.207  18.946  0.00  0.00    +0.000 OA
BRANCH  23  24
ATOM     24  C   UNL     1      -2.370  11.010  17.880  0.00  0.00    +0.000 A 
ATOM     25  C   UNL     1      -1.925  10.093  16.926  0.00  0.00    +0.000 A 
ATOM     26  C   UNL     1      -2.698   9.817  15.796  0.00  0.00    +0.000 A 
ATOM     27  C   UNL     1      -3.929  10.446  15.623  0.00  0.00    +0.000 A 
ATOM     28  C   UNL     1      -4.389  11.344  16.585  0.00  0.00    +0.000 A 
ATOM     29  C   UNL     1      -3.612  11.625  17.712  0.00  0.00    +0.000 A 
ENDBRANCH  23  24
ENDBRANCH  22  23
ENDBRANCH  21  22
ENDBRANCH  20  21
ENDBRANCH   3  20
TORSDOF 6
ENDMDL
MODEL 3
REMARK VINA RESULT:      -8.2      3.283      8.026
REMARK  Name = 
REMARK  7 active torsions:
REMARK  status: ('A' for Active; 'I' for Inactive)
REMARK    1  A    between atoms: C_1  and  C_2
REMARK    2  A    between atoms: C_3  and  O_4
REMARK    3  A    between atoms: O_4  and  C_5
REMARK    4  A    between atoms: C_5  and  C_6
REMARK    5  A    between atoms: C_6  and  O_7
REMARK    6  A    between atoms: O_7  and  C_8
REMARK    7  A    between atoms: C_17  and  N_18
REMARK                            x       y       z     vdW  Elec       q    Type
REMARK                         _______ _______ _______ _____ _____    ______ ____
ROOT
ATOM      1  C   UNL     1       2.315   5.462  21.294  0.00  0.00    +0.000 C 
ATOM      2  C   UNL     1       2.181   6.471  20.184  0.00  0.00    +0.000 A 
ATOM      3  C   UNL     1       2.618   6.204  18.875  0.00  0.00    +0.000 A 
ATOM      4  C   UNL     1       2.501   7.198  17.900  0.00  0.00    +0.000 A 
ATOM      5  C   UNL     1       1.938   8.438  18.205  0.00  0.00    +0.000 A 
ATOM      6  C   UNL     1       1.456   8.718  19.486  0.00  0.00    +0.000 A 
ATOM      7  C   UNL     1       0.846  10.013  19.837  0.00  0.00    +0.000 A 
ATOM      8  C   UNL     1       0.608  10.248  21.136  0.00  0.00    +0.000 A 
ATOM      9  C   UNL     1       0.841   9.261  22.196  0.00  0.00    +0.000 A 
ATOM     10  O   UNL     1       0.633   9.545  23.370  0.00  0.00    +0.000 OA
ATOM     11  O   UNL     1       1.261   8.004  21.802  0.00  0.00    +0.000 OA
ATOM     12  C   UNL     1       1.618   7.734  20.463  0.00  0.00    +0.000 A 
ENDROOT
BRANCH   7  13
ATOM     13  N   UNL     1       0.568  10.928  18.823  0.00  0.00    +0.000 N 
ATOM     14  C   UNL     1      -0.636  10.843  17.966  0.00  0.00    +0.000 C 
ATOM     15  C   UNL     1      -1.493  12.120  18.092  0.00  0.00    +0.000 C 
ATOM     16  N   UNL     1      -0.736  13.359  17.831  0.00  0.00    +0.000 NA
ATOM     17  C   UNL     1       0.440  13.411  18.720  0.00  0.00    +0.000 C 
ATOM     18  C   UNL     1       1.343  12.164  18.612  0.00  0.00    +0.000 C 
ATOM     19  H   UNL     1      -1.334  14.162  18.021  0.00  0.00    +0.000 HD
ENDBRANCH   7  13
BRANCH   3  20
ATOM     20  O   UNL     1       3.153   4.963  18.646  0.00  0.00    +0.000 OA
BRANCH  20  21
ATOM     21  C   UNL     1       2.966   4.356  17.364  0.00  0.00    +0.000 C 
BRANCH  21  22
ATOM     22  C   UNL     1       4.271   3.754  16.846  0.00  0.00    +0.000 C 
BRANCH  22  23
ATOM     23  O   UNL     1       5.028   4.765  16.178  0.00  0.00    +0.000 OA
BRANCH  23  24
ATOM     24  C   UNL     1       5.990   5.375  16.942  0.00  0.00    +0.000 A 
ATOM     25  C   UNL     1       6.133   6.749  16.741  0.00  0.00    +0.000 A 
ATOM     26  C   UNL     1       7.086   7.474  17.462  0.00  0.00    +0.000 A 
ATOM     27  C   UNL     1       7.888   6.829  18.400  0.00  0.00    +0.000 A 
ATOM     28  C   UNL     1       7.732   5.462  18.622  0.00  0.00    +0.000 A 
ATOM     29  C   UNL     1       6.783   4.736  17.897  0.00  0.00    +0.000 A 
ENDBRANCH  23  24
ENDBRANCH  22  23
ENDBRANCH  21  22
ENDBRANCH  20  21
ENDBRANCH   3  20
TORSDOF 6
ENDMDL
MODEL 4
REMARK VINA RESULT:      -8.1      1.845      2.483
REMARK  Name = 
REMARK  7 active torsions:
REMARK  status: ('A' for Active; 'I' for Inactive)
REMARK    1  A    between atoms: C_1  and  C_2
REMARK    2  A    between atoms: C_3  and  O_4
REMARK    3  A    between atoms: O_4  and  C_5
REMARK    4  A    between atoms: C_5  and  C_6
REMARK    5  A    between atoms: C_6  and  O_7
REMARK    6  A    between atoms: O_7  and  C_8
REMARK    7  A    between atoms: C_17  and  N_18
REMARK                            x       y       z     vdW  Elec       q    Type
REMARK                         _______ _______ _______ _____ _____    ______ ____
ROOT
ATOM      1  C   UNL     1       1.173   6.947  20.893  0.00  0.00    +0.000 C 
ATOM      2  C   UNL     1       2.138   6.884  19.741  0.00  0.00    +0.000 A 
ATOM      3  C   UNL     1       2.238   7.917  18.792  0.00  0.00    +0.000 A 
ATOM      4  C   UNL     1       3.127   7.779  17.723  0.00  0.00    +0.000 A 
ATOM      5  C   UNL     1       3.929   6.642  17.600  0.00  0.00    +0.000 A 
ATOM      6  C   UNL     1       3.884   5.619  18.550  0.00  0.00    +0.000 A 
ATOM      7  C   UNL     1       4.725   4.413  18.455  0.00  0.00    +0.000 A 
ATOM      8  C   UNL     1       4.455   3.407  19.300  0.00  0.00    +0.000 A 
ATOM      9  C   UNL     1       3.436   3.483  20.353  0.00  0.00    +0.000 A 
ATOM     10  O   UNL     1       3.212   2.518  21.076  0.00  0.00    +0.000 OA
ATOM     11  O   UNL     1       2.783   4.691  20.510  0.00  0.00    +0.000 OA
ATOM     12  C   UNL     1       2.960   5.748  19.589  0.00  0.00    +0.000 A 
ENDROOT
BRANCH   7  13
ATOM     13  N   UNL     1       5.734   4.364  17.494  0.00  0.00    +0.000 N 
ATOM     14  C   UNL     1       5.506   3.903  16.106  0.00  0.00    +0.000 C 
ATOM     15  C   UNL     1       5.862   5.010  15.093  0.00  0.00    +0.000 C 
ATOM     16  N   UNL     1       7.227   5.542  15.263  0.00  0.00    +0.000 NA
ATOM     17  C   UNL     1       7.401   6.008  16.652  0.00  0.00    +0.000 C 
ATOM     18  C   UNL     1       7.080   4.926  17.704  0.00  0.00    +0.000 C 
ATOM     19  H   UNL     1       7.362   6.327  14.628  0.00  0.00    +0.000 HD
ENDBRANCH   7  13
BRANCH   3  20
ATOM     20  O   UNL     1       1.426   9.005  18.980  0.00  0.00    +0.000 OA
BRANCH  20  21
ATOM     21  C   UNL     1       1.786  10.249  18.371  0.00  0.00    +0.000 C 
BRANCH  21  22
ATOM     22  C   UNL     1       1.186  11.428  19.134  0.00  0.00    +0.000 C 
BRANCH  22  23
ATOM     23  O   UNL     1      -0.222  11.236  19.276  0.00  0.00    +0.000 OA
BRANCH  23  24
ATOM     24  C   UNL     1      -0.693  11.298  20.563  0.00  0.00    +0.000 A 
ATOM     25  C   UNL     1      -1.684  12.255  20.792  0.00  0.00    +0.000 A 
ATOM     26  C   UNL     1      -2.234  12.411  22.068  0.00  0.00    +0.000 A 
ATOM     27  C   UNL     1      -1.806  11.599  23.115  0.00  0.00    +0.000 A 
ATOM     28  C   UNL     1      -0.835  10.625  22.885  0.00  0.00    +0.000 A 
ATOM     29  C   UNL     1      -0.281  10.473  21.611  0.00  0.00    +0.000 A 
ENDBRANCH  23  24
ENDBRANCH  22  23
ENDBRANCH  21  22
ENDBRANCH  20  21
ENDBRANCH   3  20
TORSDOF 6
ENDMDL
MODEL 5
REMARK VINA RESULT:      -8.1      3.551      8.071
REMARK  Name = 
REMARK  7 active torsions:
REMARK  status: ('A' for Active; 'I' for Inactive)
REMARK    1  A    between atoms: C_1  and  C_2
REMARK    2  A    between atoms: C_3  and  O_4
REMARK    3  A    between atoms: O_4  and  C_5
REMARK    4  A    between atoms: C_5  and  C_6
REMARK    5  A    between atoms: C_6  and  O_7
REMARK    6  A    between atoms: O_7  and  C_8
REMARK    7  A    between atoms: C_17  and  N_18
REMARK                            x       y       z     vdW  Elec       q    Type
REMARK                         _______ _______ _______ _____ _____    ______ ____
ROOT
ATOM      1  C   UNL     1       2.394   6.280  20.682  0.00  0.00    +0.000 C 
ATOM      2  C   UNL     1       1.954   7.501  19.919  0.00  0.00    +0.000 A 
ATOM      3  C   UNL     1       2.211   7.658  18.546  0.00  0.00    +0.000 A 
ATOM      4  C   UNL     1       1.809   8.834  17.907  0.00  0.00    +0.000 A 
ATOM      5  C   UNL     1       1.141   9.839  18.608  0.00  0.00    +0.000 A 
ATOM      6  C   UNL     1       0.834   9.694  19.963  0.00  0.00    +0.000 A 
ATOM      7  C   UNL     1       0.119  10.731  20.728  0.00  0.00    +0.000 A 
ATOM      8  C   UNL     1       0.059  10.581  22.059  0.00  0.00    +0.000 A 
ATOM      9  C   UNL     1       0.587   9.410  22.769  0.00  0.00    +0.000 A 
ATOM     10  O   UNL     1       0.531   9.343  23.992  0.00  0.00    +0.000 OA
ATOM     11  O   UNL     1       1.104   8.387  21.995  0.00  0.00    +0.000 OA
ATOM     12  C   UNL     1       1.278   8.535  20.602  0.00  0.00    +0.000 A 
ENDROOT
BRANCH   7  13
ATOM     13  N   UNL     1      -0.436  11.814  20.048  0.00  0.00    +0.000 N 
ATOM     14  C   UNL     1       0.285  13.087  19.831  0.00  0.00    +0.000 C 
ATOM     15  C   UNL     1       0.423  13.393  18.324  0.00  0.00    +0.000 C 
ATOM     16  N   UNL     1      -0.865  13.377  17.606  0.00  0.00    +0.000 NA
ATOM     17  C   UNL     1      -1.537  12.084  17.833  0.00  0.00    +0.000 C 
ATOM     18  C   UNL     1      -1.720  11.745  19.327  0.00  0.00    +0.000 C 
ATOM     19  H   UNL     1      -0.692  13.493  16.608  0.00  0.00    +0.000 HD
ENDBRANCH   7  13
BRANCH   3  20
ATOM     20  O   UNL     1       2.864   6.628  17.921  0.00  0.00    +0.000 OA
BRANCH  20  21
ATOM     21  C   UNL     1       4.185   6.851  17.421  0.00  0.00    +0.000 C 
BRANCH  21  22
ATOM     22  C   UNL     1       5.194   5.930  18.105  0.00  0.00    +0.000 C 
BRANCH  22  23
ATOM     23  O   UNL     1       5.171   4.648  17.475  0.00  0.00    +0.000 OA
BRANCH  23  24
ATOM     24  C   UNL     1       4.242   3.770  17.973  0.00  0.00    +0.000 A 
ATOM     25  C   UNL     1       4.394   3.437  19.321  0.00  0.00    +0.000 A 
ATOM     26  C   UNL     1       3.507   2.548  19.933  0.00  0.00    +0.000 A 
ATOM     27  C   UNL     1       2.454   2.000  19.204  0.00  0.00    +0.000 A 
ATOM     28  C   UNL     1       2.283   2.349  17.865  0.00  0.00    +0.000 A 
ATOM     29  C   UNL     1       3.174   3.234  17.251  0.00  0.00    +0.000 A 
ENDBRANCH  23  24
ENDBRANCH  22  23
ENDBRANCH  21  22
ENDBRANCH  20  21
ENDBRANCH   3  20
TORSDOF 6
ENDMDL
MODEL 6
REMARK VINA RESULT:      -8.0      1.714      2.399
REMARK  Name = 
REMARK  7 active torsions:
REMARK  status: ('A' for Active; 'I' for Inactive)
REMARK    1  A    between atoms: C_1  and  C_2
REMARK    2  A    between atoms: C_3  and  O_4
REMARK    3  A    between atoms: O_4  and  C_5
REMARK    4  A    between atoms: C_5  and  C_6
REMARK    5  A    between atoms: C_6  and  O_7
REMARK    6  A    between atoms: O_7  and  C_8
REMARK    7  A    between atoms: C_17  and  N_18
REMARK                            x       y       z     vdW  Elec       q    Type
REMARK                         _______ _______ _______ _____ _____    ______ ____
ROOT
ATOM      1  C   UNL     1       1.286   6.752  20.974  0.00  0.00    +0.000 C 
ATOM      2  C   UNL     1       2.230   6.723  19.802  0.00  0.00    +0.000 A 
ATOM      3  C   UNL     1       2.340   7.799  18.904  0.00  0.00    +0.000 A 
ATOM      4  C   UNL     1       3.207   7.692  17.813  0.00  0.00    +0.000 A 
ATOM      5  C   UNL     1       3.976   6.544  17.619  0.00  0.00    +0.000 A 
ATOM      6  C   UNL     1       3.920   5.475  18.517  0.00  0.00    +0.000 A 
ATOM      7  C   UNL     1       4.728   4.254  18.346  0.00  0.00    +0.000 A 
ATOM      8  C   UNL     1       4.446   3.214  19.144  0.00  0.00    +0.000 A 
ATOM      9  C   UNL     1       3.447   3.263  20.218  0.00  0.00    +0.000 A 
ATOM     10  O   UNL     1       3.211   2.269  20.896  0.00  0.00    +0.000 OA
ATOM     11  O   UNL     1       2.829   4.478  20.448  0.00  0.00    +0.000 OA
ATOM     12  C   UNL     1       3.018   5.575  19.578  0.00  0.00    +0.000 A 
ENDROOT
BRANCH   7  13
ATOM     13  N   UNL     1       5.718   4.229  17.365  0.00  0.00    +0.000 N 
ATOM     14  C   UNL     1       5.456   3.841  15.962  0.00  0.00    +0.000 C 
ATOM     15  C   UNL     1       5.820   4.987  14.996  0.00  0.00    +0.000 C 
ATOM     16  N   UNL     1       7.201   5.478  15.167  0.00  0.00    +0.000 NA
ATOM     17  C   UNL     1       7.410   5.872  16.572  0.00  0.00    +0.000 C 
ATOM     18  C   UNL     1       7.082   4.749  17.577  0.00  0.00    +0.000 C 
ATOM     19  H   UNL     1       7.343   6.289  14.567  0.00  0.00    +0.000 HD
ENDBRANCH   7  13
BRANCH   3  20
ATOM     20  O   UNL     1       1.561   8.897  19.162  0.00  0.00    +0.000 OA
BRANCH  20  21
ATOM     21  C   UNL     1       1.298   9.821  18.102  0.00  0.00    +0.000 C 
BRANCH  21  22
ATOM     22  C   UNL     1       0.224  10.829  18.507  0.00  0.00    +0.000 C 
BRANCH  22  23
ATOM     23  O   UNL     1      -0.719  10.197  19.373  0.00  0.00    +0.000 OA
BRANCH  23  24
ATOM     24  C   UNL     1      -0.978  10.867  20.542  0.00  0.00    +0.000 A 
ATOM     25  C   UNL     1      -0.553  10.225  21.707  0.00  0.00    +0.000 A 
ATOM     26  C   UNL     1      -0.768  10.813  22.956  0.00  0.00    +0.000 A 
ATOM     27  C   UNL     1      -1.396  12.054  23.044  0.00  0.00    +0.000 A 
ATOM     28  C   UNL     1      -1.799  12.709  21.882  0.00  0.00    +0.000 A 
ATOM     29  C   UNL     1      -1.590  12.119  20.633  0.00  0.00    +0.000 A 
ENDBRANCH  23  24
ENDBRANCH  22  23
ENDBRANCH  21  22
ENDBRANCH  20  21
ENDBRANCH   3  20
TORSDOF 6
ENDMDL
MODEL 7
REMARK VINA RESULT:      -8.0      3.568      7.932
REMARK  Name = 
REMARK  7 active torsions:
REMARK  status: ('A' for Active; 'I' for Inactive)
REMARK    1  A    between atoms: C_1  and  C_2
REMARK    2  A    between atoms: C_3  and  O_4
REMARK    3  A    between atoms: O_4  and  C_5
REMARK    4  A    between atoms: C_5  and  C_6
REMARK    5  A    between atoms: C_6  and  O_7
REMARK    6  A    between atoms: O_7  and  C_8
REMARK    7  A    between atoms: C_17  and  N_18
REMARK                            x       y       z     vdW  Elec       q    Type
REMARK                         _______ _______ _______ _____ _____    ______ ____
ROOT
ATOM      1  C   UNL     1       2.335   6.284  20.624  0.00  0.00    +0.000 C 
ATOM      2  C   UNL     1       1.912   7.521  19.877  0.00  0.00    +0.000 A 
ATOM      3  C   UNL     1       2.166   7.688  18.504  0.00  0.00    +0.000 A 
ATOM      4  C   UNL     1       1.783   8.878  17.879  0.00  0.00    +0.000 A 
ATOM      5  C   UNL     1       1.135   9.886  18.594  0.00  0.00    +0.000 A 
ATOM      6  C   UNL     1       0.831   9.732  19.948  0.00  0.00    +0.000 A 
ATOM      7  C   UNL     1       0.138  10.773  20.728  0.00  0.00    +0.000 A 
ATOM      8  C   UNL     1       0.081  10.609  22.058  0.00  0.00    +0.000 A 
ATOM      9  C   UNL     1       0.592   9.422  22.752  0.00  0.00    +0.000 A 
ATOM     10  O   UNL     1       0.540   9.342  23.975  0.00  0.00    +0.000 OA
ATOM     11  O   UNL     1       1.087   8.398  21.966  0.00  0.00    +0.000 OA
ATOM     12  C   UNL     1       1.258   8.558  20.573  0.00  0.00    +0.000 A 
ENDROOT
BRANCH   7  13
ATOM     13  N   UNL     1      -0.401  11.873  20.062  0.00  0.00    +0.000 N 
ATOM     14  C   UNL     1       0.348  13.129  19.839  0.00  0.00    +0.000 C 
ATOM     15  C   UNL     1       0.470  13.439  18.333  0.00  0.00    +0.000 C 
ATOM     16  N   UNL     1      -0.830  13.459  17.635  0.00  0.00    +0.000 NA
ATOM     17  C   UNL     1      -1.530  12.181  17.866  0.00  0.00    +0.000 C 
ATOM     18  C   UNL     1      -1.698  11.839  19.361  0.00  0.00    +0.000 C 
ATOM     19  H   UNL     1      -0.670  13.576  16.635  0.00  0.00    +0.000 HD
ENDBRANCH   7  13
BRANCH   3  20
ATOM     20  O   UNL     1       2.798   6.653  17.865  0.00  0.00    +0.000 OA
BRANCH  20  21
ATOM     21  C   UNL     1       4.209   6.737  17.644  0.00  0.00    +0.000 C 
BRANCH  21  22
ATOM     22  C   UNL     1       4.821   5.349  17.470  0.00  0.00    +0.000 C 
BRANCH  22  23
ATOM     23  O   UNL     1       3.803   4.426  17.080  0.00  0.00    +0.000 OA
BRANCH  23  24
ATOM     24  C   UNL     1       3.207   3.745  18.111  0.00  0.00    +0.000 A 
ATOM     25  C   UNL     1       1.839   3.505  17.959  0.00  0.00    +0.000 A 
ATOM     26  C   UNL     1       1.127   2.824  18.950  0.00  0.00    +0.000 A 
ATOM     27  C   UNL     1       1.783   2.366  20.090  0.00  0.00    +0.000 A 
ATOM     28  C   UNL     1       3.153   2.581  20.234  0.00  0.00    +0.000 A 
ATOM     29  C   UNL     1       3.865   3.267  19.246  0.00  0.00    +0.000 A 
ENDBRANCH  23  24
ENDBRANCH  22  23
ENDBRANCH  21  22
ENDBRANCH  20  21
ENDBRANCH   3  20
TORSDOF 6
ENDMDL
MODEL 8
REMARK VINA RESULT:      -7.9      3.616      8.050
REMARK  Name = 
REMARK  7 active torsions:
REMARK  status: ('A' for Active; 'I' for Inactive)
REMARK    1  A    between atoms: C_1  and  C_2
REMARK    2  A    between atoms: C_3  and  O_4
REMARK    3  A    between atoms: O_4  and  C_5
REMARK    4  A    between atoms: C_5  and  C_6
REMARK    5  A    between atoms: C_6  and  O_7
REMARK    6  A    between atoms: O_7  and  C_8
REMARK    7  A    between atoms: C_17  and  N_18
REMARK                            x       y       z     vdW  Elec       q    Type
REMARK                         _______ _______ _______ _____ _____    ______ ____
ROOT
ATOM      1  C   UNL     1       2.061   6.101  20.639  0.00  0.00    +0.000 C 
ATOM      2  C   UNL     1       1.924   7.320  19.766  0.00  0.00    +0.000 A 
ATOM      3  C   UNL     1       2.340   7.328  18.423  0.00  0.00    +0.000 A 
ATOM      4  C   UNL     1       2.221   8.505  17.679  0.00  0.00    +0.000 A 
ATOM      5  C   UNL     1       1.677   9.659  18.245  0.00  0.00    +0.000 A 
ATOM      6  C   UNL     1       1.216   9.670  19.563  0.00  0.00    +0.000 A 
ATOM      7  C   UNL     1       0.626  10.869  20.186  0.00  0.00    +0.000 A 
ATOM      8  C   UNL     1       0.408  10.830  21.509  0.00  0.00    +0.000 A 
ATOM      9  C   UNL     1       0.645   9.642  22.336  0.00  0.00    +0.000 A 
ATOM     10  O   UNL     1       0.456   9.676  23.547  0.00  0.00    +0.000 OA
ATOM     11  O   UNL     1       1.044   8.490  21.683  0.00  0.00    +0.000 OA
ATOM     12  C   UNL     1       1.379   8.502  20.311  0.00  0.00    +0.000 A 
ENDROOT
BRANCH   7  13
ATOM     13  N   UNL     1       0.344  11.977  19.389  0.00  0.00    +0.000 N 
ATOM     14  C   UNL     1      -1.013  12.287  18.887  0.00  0.00    +0.000 C 
ATOM     15  C   UNL     1      -1.477  13.675  19.376  0.00  0.00    +0.000 C 
ATOM     16  N   UNL     1      -0.526  14.756  19.053  0.00  0.00    +0.000 NA
ATOM     17  C   UNL     1       0.805  14.414  19.590  0.00  0.00    +0.000 C 
ATOM     18  C   UNL     1       1.324  13.043  19.109  0.00  0.00    +0.000 C 
ATOM     19  H   UNL     1      -0.847  15.622  19.483  0.00  0.00    +0.000 HD
ENDBRANCH   7  13
BRANCH   3  20
ATOM     20  O   UNL     1       2.857   6.157  17.933  0.00  0.00    +0.000 OA
BRANCH  20  21
ATOM     21  C   UNL     1       4.186   6.157  17.404  0.00  0.00    +0.000 C 
BRANCH  21  22
ATOM     22  C   UNL     1       4.863   4.806  17.620  0.00  0.00    +0.000 C 
BRANCH  22  23
ATOM     23  O   UNL     1       3.927   3.758  17.363  0.00  0.00    +0.000 OA
BRANCH  23  24
ATOM     24  C   UNL     1       3.227   3.319  18.458  0.00  0.00    +0.000 A 
ATOM     25  C   UNL     1       1.861   3.114  18.253  0.00  0.00    +0.000 A 
ATOM     26  C   UNL     1       1.048   2.672  19.301  0.00  0.00    +0.000 A 
ATOM     27  C   UNL     1       1.601   2.417  20.553  0.00  0.00    +0.000 A 
ATOM     28  C   UNL     1       2.969   2.597  20.755  0.00  0.00    +0.000 A 
ATOM     29  C   UNL     1       3.781   3.045  19.710  0.00  0.00    +0.000 A 
ENDBRANCH  23  24
ENDBRANCH  22  23
ENDBRANCH  21  22
ENDBRANCH  20  21
ENDBRANCH   3  20
TORSDOF 6
ENDMDL
MODEL 9
REMARK VINA RESULT:      -7.9      3.866      8.235
REMARK  Name = 
REMARK  7 active torsions:
REMARK  status: ('A' for Active; 'I' for Inactive)
REMARK    1  A    between atoms: C_1  and  C_2
REMARK    2  A    between atoms: C_3  and  O_4
REMARK    3  A    between atoms: O_4  and  C_5
REMARK    4  A    between atoms: C_5  and  C_6
REMARK    5  A    between atoms: C_6  and  O_7
REMARK    6  A    between atoms: O_7  and  C_8
REMARK    7  A    between atoms: C_17  and  N_18
REMARK                            x       y       z     vdW  Elec       q    Type
REMARK                         _______ _______ _______ _____ _____    ______ ____
ROOT
ATOM      1  C   UNL     1       2.031   6.459  20.545  0.00  0.00    +0.000 C 
ATOM      2  C   UNL     1       1.736   7.737  19.807  0.00  0.00    +0.000 A 
ATOM      3  C   UNL     1       2.069   7.912  18.452  0.00  0.00    +0.000 A 
ATOM      4  C   UNL     1       1.804   9.138  17.836  0.00  0.00    +0.000 A 
ATOM      5  C   UNL     1       1.196  10.178  18.542  0.00  0.00    +0.000 A 
ATOM      6  C   UNL     1       0.816  10.020  19.877  0.00  0.00    +0.000 A 
ATOM      7  C   UNL     1       0.162  11.095  20.646  0.00  0.00    +0.000 A 
ATOM      8  C   UNL     1       0.028  10.910  21.967  0.00  0.00    +0.000 A 
ATOM      9  C   UNL     1       0.417   9.675  22.658  0.00  0.00    +0.000 A 
ATOM     10  O   UNL     1       0.299   9.577  23.875  0.00  0.00    +0.000 OA
ATOM     11  O   UNL     1       0.875   8.633  21.873  0.00  0.00    +0.000 OA
ATOM     12  C   UNL     1       1.125   8.807  20.494  0.00  0.00    +0.000 A 
ENDROOT
BRANCH   7  13
ATOM     13  N   UNL     1      -0.262  12.243  19.979  0.00  0.00    +0.000 N 
ATOM     14  C   UNL     1      -1.657  12.448  19.531  0.00  0.00    +0.000 C 
ATOM     15  C   UNL     1      -2.263  13.712  20.176  0.00  0.00    +0.000 C 
ATOM     16  N   UNL     1      -1.448  14.924  19.963  0.00  0.00    +0.000 NA
ATOM     17  C   UNL     1      -0.075  14.680  20.443  0.00  0.00    +0.000 C 
ATOM     18  C   UNL     1       0.584  13.438  19.807  0.00  0.00    +0.000 C 
ATOM     19  H   UNL     1      -1.854  15.696  20.489  0.00  0.00    +0.000 HD
ENDBRANCH   7  13
BRANCH   3  20
ATOM     20  O   UNL     1       2.655   6.846  17.821  0.00  0.00    +0.000 OA
BRANCH  20  21
ATOM     21  C   UNL     1       4.081   6.809  17.708  0.00  0.00    +0.000 C 
BRANCH  21  22
ATOM     22  C   UNL     1       4.596   5.371  17.721  0.00  0.00    +0.000 C 
BRANCH  22  23
ATOM     23  O   UNL     1       3.570   4.494  17.252  0.00  0.00    +0.000 OA
BRANCH  23  24
ATOM     24  C   UNL     1       2.888   3.818  18.231  0.00  0.00    +0.000 A 
ATOM     25  C   UNL     1       3.654   3.419  19.329  0.00  0.00    +0.000 A 
ATOM     26  C   UNL     1       3.066   2.718  20.385  0.00  0.00    +0.000 A 
ATOM     27  C   UNL     1       1.704   2.428  20.355  0.00  0.00    +0.000 A 
ATOM     28  C   UNL     1       0.930   2.846  19.274  0.00  0.00    +0.000 A 
ATOM     29  C   UNL     1       1.519   3.542  18.215  0.00  0.00    +0.000 A 
ENDBRANCH  23  24
ENDBRANCH  22  23
ENDBRANCH  21  22
ENDBRANCH  20  21
ENDBRANCH   3  20
TORSDOF 6
ENDMDL
