MODEL 1
REMARK VINA RESULT:      -8.7      0.000      0.000
REMARK  Name = 
REMARK  6 active torsions:
REMARK  status: ('A' for Active; 'I' for Inactive)
REMARK    1  A    between atoms: C_1  and  C_2
REMARK    2  A    between atoms: C_2  and  C_3
REMARK    3  A    between atoms: C_2  and  C_4
REMARK    4  A    between atoms: C_8  and  N_9
REMARK    5  A    between atoms: C_10  and  C_12
REMARK    6  A    between atoms: C_18  and  O_19
REMARK                            x       y       z     vdW  Elec       q    Type
REMARK                         _______ _______ _______ _____ _____    ______ ____
ROOT
ATOM      1  C   UNL     1       5.167   4.328  17.912  0.00  0.00    +0.000 A 
ATOM      2  C   UNL     1       4.021   3.655  17.724  0.00  0.00    +0.000 A 
ATOM      3  C   UNL     1       3.000   3.620  18.753  0.00  0.00    +0.000 A 
ATOM      4  C   UNL     1       1.870   2.808  18.634  0.00  0.00    +0.000 A 
ATOM      5  C   UNL     1       0.859   2.877  19.593  0.00  0.00    +0.000 A 
ATOM      6  C   UNL     1       0.953   3.791  20.646  0.00  0.00    +0.000 A 
ATOM      7  C   UNL     1       2.088   4.593  20.767  0.00  0.00    +0.000 A 
ATOM      8  C   UNL     1       3.127   4.469  19.847  0.00  0.00    +0.000 A 
ATOM      9  O   UNL     1       4.333   5.171  20.056  0.00  0.00    +0.000 OA
ATOM     10  C   UNL     1       5.411   4.973  19.211  0.00  0.00    +0.000 A 
ATOM     11  N   UNL     1       6.570   5.381  19.613  0.00  0.00    +0.000 NA
ATOM     12  H   UNL     1       6.419   5.755  20.563  0.00  0.00    +0.000 HD
ENDROOT
BRANCH   1  14
ATOM     13  N   UNL     1       5.513   4.493  15.495  0.00  0.00    +0.000 N 
ATOM     14  C   UNL     1       6.099   4.351  16.739  0.00  0.00    +0.000 C 
ATOM     15  O   UNL     1       7.308   4.255  16.938  0.00  0.00    +0.000 OA
ATOM     16  H   UNL     1       4.513   4.708  15.479  0.00  0.00    +0.000 HD
BRANCH  13  21
ATOM     17  C   UNL     1       6.366   3.499  11.999  0.00  0.00    +0.000 A 
ATOM     18  C   UNL     1       7.476   4.317  11.753  0.00  0.00    +0.000 A 
ATOM     19  C   UNL     1       7.951   5.176  12.739  0.00  0.00    +0.000 A 
ATOM     20  C   UNL     1       7.319   5.233  13.980  0.00  0.00    +0.000 A 
ATOM     21  C   UNL     1       6.198   4.449  14.256  0.00  0.00    +0.000 A 
ATOM     22  C   UNL     1       5.744   3.567  13.266  0.00  0.00    +0.000 A 
BRANCH  17  24
ATOM     23  C   UNL     1       6.353   1.069  11.144  0.00  0.00    +0.000 C 
ATOM     24  C   UNL     1       5.852   2.509  10.964  0.00  0.00    +0.000 C 
ATOM     25  C   UNL     1       4.322   2.531  10.951  0.00  0.00    +0.000 C 
ENDBRANCH  17  24
ENDBRANCH  13  21
ENDBRANCH   1  14
BRANCH   7  26
ATOM     26  O   UNL     1       2.185   5.506  21.776  0.00  0.00    +0.000 OA
ATOM     27  H   UNL     1       1.474   5.336  22.417  0.00  0.00    +0.000 HD
ENDBRANCH   7  26
TORSDOF 4
ENDMDL
MODEL 2
REMARK VINA RESULT:      -8.6      5.254      7.096
REMARK  Name = 
REMARK  6 active torsions:
REMARK  status: ('A' for Active; 'I' for Inactive)
REMARK    1  A    between atoms: C_1  and  C_2
REMARK    2  A    between atoms: C_2  and  C_3
REMARK    3  A    between atoms: C_2  and  C_4
REMARK    4  A    between atoms: C_8  and  N_9
REMARK    5  A    between atoms: C_10  and  C_12
REMARK    6  A    between atoms: C_18  and  O_19
REMARK                            x       y       z     vdW  Elec       q    Type
REMARK                         _______ _______ _______ _____ _____    ______ ____
ROOT
ATOM      1  C   UNL     1       1.424   9.566  19.135  0.00  0.00    +0.000 A 
ATOM      2  C   UNL     1       0.940   9.081  20.289  0.00  0.00    +0.000 A 
ATOM      3  C   UNL     1       0.230   9.938  21.218  0.00  0.00    +0.000 A 
ATOM      4  C   UNL     1      -0.151   9.486  22.484  0.00  0.00    +0.000 A 
ATOM      5  C   UNL     1      -0.923  10.302  23.311  0.00  0.00    +0.000 A 
ATOM      6  C   UNL     1      -1.356  11.550  22.857  0.00  0.00    +0.000 A 
ATOM      7  C   UNL     1      -0.967  12.002  21.595  0.00  0.00    +0.000 A 
ATOM      8  C   UNL     1      -0.136  11.213  20.802  0.00  0.00    +0.000 A 
ATOM      9  O   UNL     1       0.378  11.734  19.596  0.00  0.00    +0.000 OA
ATOM     10  C   UNL     1       1.289  11.004  18.853  0.00  0.00    +0.000 A 
ATOM     11  N   UNL     1       1.961  11.632  17.944  0.00  0.00    +0.000 NA
ATOM     12  H   UNL     1       1.667  12.619  18.013  0.00  0.00    +0.000 HD
ENDROOT
BRANCH   1  14
ATOM     13  N   UNL     1       2.338   7.323  18.788  0.00  0.00    +0.000 N 
ATOM     14  C   UNL     1       2.064   8.558  18.230  0.00  0.00    +0.000 C 
ATOM     15  O   UNL     1       2.298   8.869  17.065  0.00  0.00    +0.000 OA
ATOM     16  H   UNL     1       1.961   7.147  19.723  0.00  0.00    +0.000 HD
BRANCH  13  21
ATOM     17  C   UNL     1       3.119   3.872  17.596  0.00  0.00    +0.000 A 
ATOM     18  C   UNL     1       4.286   4.104  16.857  0.00  0.00    +0.000 A 
ATOM     19  C   UNL     1       4.823   5.385  16.769  0.00  0.00    +0.000 A 
ATOM     20  C   UNL     1       4.196   6.451  17.411  0.00  0.00    +0.000 A 
ATOM     21  C   UNL     1       3.019   6.264  18.140  0.00  0.00    +0.000 A 
ATOM     22  C   UNL     1       2.502   4.966  18.246  0.00  0.00    +0.000 A 
BRANCH  17  24
ATOM     23  C   UNL     1       3.484   1.450  18.393  0.00  0.00    +0.000 C 
ATOM     24  C   UNL     1       2.535   2.477  17.759  0.00  0.00    +0.000 C 
ATOM     25  C   UNL     1       1.238   2.556  18.568  0.00  0.00    +0.000 C 
ENDBRANCH  17  24
ENDBRANCH  13  21
ENDBRANCH   1  14
BRANCH   7  26
ATOM     26  O   UNL     1      -1.401  13.208  21.128  0.00  0.00    +0.000 OA
ATOM     27  H   UNL     1      -2.015  13.590  21.779  0.00  0.00    +0.000 HD
ENDBRANCH   7  26
TORSDOF 4
ENDMDL
MODEL 3
REMARK VINA RESULT:      -8.5      5.520      8.728
REMARK  Name = 
REMARK  6 active torsions:
REMARK  status: ('A' for Active; 'I' for Inactive)
REMARK    1  A    between atoms: C_1  and  C_2
REMARK    2  A    between atoms: C_2  and  C_3
REMARK    3  A    between atoms: C_2  and  C_4
REMARK    4  A    between atoms: C_8  and  N_9
REMARK    5  A    between atoms: C_10  and  C_12
REMARK    6  A    between atoms: C_18  and  O_19
REMARK                            x       y       z     vdW  Elec       q    Type
REMARK                         _______ _______ _______ _____ _____    ______ ____
ROOT
ATOM      1  C   UNL     1       2.700   7.090  18.799  0.00  0.00    +0.000 A 
ATOM      2  C   UNL     1       3.424   7.276  17.685  0.00  0.00    +0.000 A 
ATOM      3  C   UNL     1       4.241   6.209  17.141  0.00  0.00    +0.000 A 
ATOM      4  C   UNL     1       5.111   6.428  16.070  0.00  0.00    +0.000 A 
ATOM      5  C   UNL     1       5.804   5.357  15.506  0.00  0.00    +0.000 A 
ATOM      6  C   UNL     1       5.593   4.059  15.978  0.00  0.00    +0.000 A 
ATOM      7  C   UNL     1       4.731   3.845  17.053  0.00  0.00    +0.000 A 
ATOM      8  C   UNL     1       4.097   4.927  17.660  0.00  0.00    +0.000 A 
ATOM      9  O   UNL     1       3.346   4.726  18.837  0.00  0.00    +0.000 OA
ATOM     10  C   UNL     1       2.802   5.806  19.510  0.00  0.00    +0.000 A 
ATOM     11  N   UNL     1       2.403   5.616  20.726  0.00  0.00    +0.000 NA
ATOM     12  H   UNL     1       2.636   4.634  20.944  0.00  0.00    +0.000 HD
ENDROOT
BRANCH   1  14
ATOM     13  N   UNL     1       1.421   9.086  18.191  0.00  0.00    +0.000 N 
ATOM     14  C   UNL     1       1.838   8.246  19.207  0.00  0.00    +0.000 C 
ATOM     15  O   UNL     1       1.544   8.379  20.393  0.00  0.00    +0.000 OA
ATOM     16  H   UNL     1       1.615   8.781  17.234  0.00  0.00    +0.000 HD
BRANCH  13  21
ATOM     17  C   UNL     1      -1.487  11.426  18.261  0.00  0.00    +0.000 A 
ATOM     18  C   UNL     1      -0.874  12.598  18.721  0.00  0.00    +0.000 A 
ATOM     19  C   UNL     1       0.491  12.623  18.988  0.00  0.00    +0.000 A 
ATOM     20  C   UNL     1       1.259  11.474  18.805  0.00  0.00    +0.000 A 
ATOM     21  C   UNL     1       0.682  10.280  18.367  0.00  0.00    +0.000 A 
ATOM     22  C   UNL     1      -0.689  10.274  18.076  0.00  0.00    +0.000 A 
BRANCH  17  24
ATOM     23  C   UNL     1      -3.504   9.979  17.571  0.00  0.00    +0.000 C 
ATOM     24  C   UNL     1      -2.966  11.377  17.908  0.00  0.00    +0.000 C 
ATOM     25  C   UNL     1      -3.785  11.989  19.048  0.00  0.00    +0.000 C 
ENDBRANCH  17  24
ENDBRANCH  13  21
ENDBRANCH   1  14
BRANCH   7  26
ATOM     26  O   UNL     1       4.496   2.581  17.511  0.00  0.00    +0.000 OA
ATOM     27  H   UNL     1       5.084   1.967  17.039  0.00  0.00    +0.000 HD
ENDBRANCH   7  26
TORSDOF 4
ENDMDL
MODEL 4
REMARK VINA RESULT:      -8.5      5.030      6.829
REMARK  Name = 
REMARK  6 active torsions:
REMARK  status: ('A' for Active; 'I' for Inactive)
REMARK    1  A    between atoms: C_1  and  C_2
REMARK    2  A    between atoms: C_2  and  C_3
REMARK    3  A    between atoms: C_2  and  C_4
REMARK    4  A    between atoms: C_8  and  N_9
REMARK    5  A    between atoms: C_10  and  C_12
REMARK    6  A    between atoms: C_18  and  O_19
REMARK                            x       y       z     vdW  Elec       q    Type
REMARK                         _______ _______ _______ _____ _____    ______ ____
ROOT
ATOM      1  C   UNL     1       1.552   9.251  19.106  0.00  0.00    +0.000 A 
ATOM      2  C   UNL     1       1.086   8.803  20.282  0.00  0.00    +0.000 A 
ATOM      3  C   UNL     1       0.384   9.688  21.191  0.00  0.00    +0.000 A 
ATOM      4  C   UNL     1       0.022   9.278  22.476  0.00  0.00    +0.000 A 
ATOM      5  C   UNL     1      -0.742  10.118  23.285  0.00  0.00    +0.000 A 
ATOM      6  C   UNL     1      -1.187  11.349  22.795  0.00  0.00    +0.000 A 
ATOM      7  C   UNL     1      -0.816  11.759  21.515  0.00  0.00    +0.000 A 
ATOM      8  C   UNL     1       0.008  10.947  20.738  0.00  0.00    +0.000 A 
ATOM      9  O   UNL     1       0.503  11.429  19.507  0.00  0.00    +0.000 OA
ATOM     10  C   UNL     1       1.407  10.678  18.778  0.00  0.00    +0.000 A 
ATOM     11  N   UNL     1       2.065  11.277  17.839  0.00  0.00    +0.000 NA
ATOM     12  H   UNL     1       1.768  12.265  17.879  0.00  0.00    +0.000 HD
ENDROOT
BRANCH   1  14
ATOM     13  N   UNL     1       2.400   6.976  18.801  0.00  0.00    +0.000 N 
ATOM     14  C   UNL     1       2.185   8.215  18.227  0.00  0.00    +0.000 C 
ATOM     15  O   UNL     1       2.465   8.510  17.068  0.00  0.00    +0.000 OA
ATOM     16  H   UNL     1       1.990   6.819  19.725  0.00  0.00    +0.000 HD
BRANCH  13  21
ATOM     17  C   UNL     1       5.155   4.952  17.301  0.00  0.00    +0.000 A 
ATOM     18  C   UNL     1       4.474   3.770  16.981  0.00  0.00    +0.000 A 
ATOM     19  C   UNL     1       3.112   3.650  17.240  0.00  0.00    +0.000 A 
ATOM     20  C   UNL     1       2.416   4.704  17.828  0.00  0.00    +0.000 A 
ATOM     21  C   UNL     1       3.064   5.890  18.181  0.00  0.00    +0.000 A 
ATOM     22  C   UNL     1       4.430   6.012  17.891  0.00  0.00    +0.000 A 
BRANCH  17  24
ATOM     23  C   UNL     1       7.029   4.796  15.540  0.00  0.00    +0.000 C 
ATOM     24  C   UNL     1       6.631   5.139  16.982  0.00  0.00    +0.000 C 
ATOM     25  C   UNL     1       7.046   6.576  17.309  0.00  0.00    +0.000 C 
ENDBRANCH  17  24
ENDBRANCH  13  21
ENDBRANCH   1  14
BRANCH   7  26
ATOM     26  O   UNL     1      -1.262  12.947  21.013  0.00  0.00    +0.000 OA
ATOM     27  H   UNL     1      -1.074  12.971  20.059  0.00  0.00    +0.000 HD
ENDBRANCH   7  26
TORSDOF 4
ENDMDL
MODEL 5
REMARK VINA RESULT:      -8.3      2.660      3.077
REMARK  Name = 
REMARK  6 active torsions:
REMARK  status: ('A' for Active; 'I' for Inactive)
REMARK    1  A    between atoms: C_1  and  C_2
REMARK    2  A    between atoms: C_2  and  C_3
REMARK    3  A    between atoms: C_2  and  C_4
REMARK    4  A    between atoms: C_8  and  N_9
REMARK    5  A    between atoms: C_10  and  C_12
REMARK    6  A    between atoms: C_18  and  O_19
REMARK                            x       y       z     vdW  Elec       q    Type
REMARK                         _______ _______ _______ _____ _____    ______ ____
ROOT
ATOM      1  C   UNL     1       3.837   5.807  17.910  0.00  0.00    +0.000 A 
ATOM      2  C   UNL     1       3.359   6.978  17.463  0.00  0.00    +0.000 A 
ATOM      3  C   UNL     1       2.473   7.783  18.281  0.00  0.00    +0.000 A 
ATOM      4  C   UNL     1       1.852   8.928  17.777  0.00  0.00    +0.000 A 
ATOM      5  C   UNL     1       1.089   9.734  18.622  0.00  0.00    +0.000 A 
ATOM      6  C   UNL     1       0.985   9.425  19.981  0.00  0.00    +0.000 A 
ATOM      7  C   UNL     1       1.598   8.276  20.479  0.00  0.00    +0.000 A 
ATOM      8  C   UNL     1       2.299   7.435  19.616  0.00  0.00    +0.000 A 
ATOM      9  O   UNL     1       2.790   6.200  20.091  0.00  0.00    +0.000 OA
ATOM     10  C   UNL     1       3.391   5.308  19.221  0.00  0.00    +0.000 A 
ATOM     11  N   UNL     1       3.536   4.087  19.620  0.00  0.00    +0.000 NA
ATOM     12  H   UNL     1       3.100   4.046  20.555  0.00  0.00    +0.000 HD
ENDROOT
BRANCH   1  14
ATOM     13  N   UNL     1       4.960   5.668  15.741  0.00  0.00    +0.000 N 
ATOM     14  C   UNL     1       4.807   5.117  17.000  0.00  0.00    +0.000 C 
ATOM     15  O   UNL     1       5.407   4.127  17.410  0.00  0.00    +0.000 OA
ATOM     16  H   UNL     1       4.513   6.573  15.577  0.00  0.00    +0.000 HD
BRANCH  13  21
ATOM     17  C   UNL     1       5.914   3.596  12.785  0.00  0.00    +0.000 A 
ATOM     18  C   UNL     1       7.236   4.013  12.583  0.00  0.00    +0.000 A 
ATOM     19  C   UNL     1       7.815   4.955  13.428  0.00  0.00    +0.000 A 
ATOM     20  C   UNL     1       7.078   5.498  14.478  0.00  0.00    +0.000 A 
ATOM     21  C   UNL     1       5.751   5.124  14.700  0.00  0.00    +0.000 A 
ATOM     22  C   UNL     1       5.186   4.154  13.861  0.00  0.00    +0.000 A 
BRANCH  17  24
ATOM     23  C   UNL     1       4.151   3.037  10.992  0.00  0.00    +0.000 C 
ATOM     24  C   UNL     1       5.267   2.529  11.916  0.00  0.00    +0.000 C 
ATOM     25  C   UNL     1       6.343   1.819  11.090  0.00  0.00    +0.000 C 
ENDBRANCH  17  24
ENDBRANCH  13  21
ENDBRANCH   1  14
BRANCH   7  26
ATOM     26  O   UNL     1       1.525   7.973  21.807  0.00  0.00    +0.000 OA
ATOM     27  H   UNL     1       0.666   7.552  21.982  0.00  0.00    +0.000 HD
ENDBRANCH   7  26
TORSDOF 4
ENDMDL
MODEL 6
REMARK VINA RESULT:      -8.3      5.250      7.060
REMARK  Name = 
REMARK  6 active torsions:
REMARK  status: ('A' for Active; 'I' for Inactive)
REMARK    1  A    between atoms: C_1  and  C_2
REMARK    2  A    between atoms: C_2  and  C_3
REMARK    3  A    between atoms: C_2  and  C_4
REMARK    4  A    between atoms: C_8  and  N_9
REMARK    5  A    between atoms: C_10  and  C_12
REMARK    6  A    between atoms: C_18  and  O_19
REMARK                            x       y       z     vdW  Elec       q    Type
REMARK                         _______ _______ _______ _____ _____    ______ ____
ROOT
ATOM      1  C   UNL     1       1.261   8.998  19.689  0.00  0.00    +0.000 A 
ATOM      2  C   UNL     1       0.704   9.190  20.895  0.00  0.00    +0.000 A 
ATOM      3  C   UNL     1      -0.079  10.378  21.173  0.00  0.00    +0.000 A 
ATOM      4  C   UNL     1      -0.542  10.663  22.459  0.00  0.00    +0.000 A 
ATOM      5  C   UNL     1      -1.379  11.759  22.671  0.00  0.00    +0.000 A 
ATOM      6  C   UNL     1      -1.794  12.543  21.591  0.00  0.00    +0.000 A 
ATOM      7  C   UNL     1      -1.322  12.260  20.309  0.00  0.00    +0.000 A 
ATOM      8  C   UNL     1      -0.429  11.209  20.114  0.00  0.00    +0.000 A 
ATOM      9  O   UNL     1       0.161  11.019  18.847  0.00  0.00    +0.000 OA
ATOM     10  C   UNL     1       1.130  10.048  18.667  0.00  0.00    +0.000 A 
ATOM     11  N   UNL     1       1.856  10.117  17.599  0.00  0.00    +0.000 NA
ATOM     12  H   UNL     1       1.547  10.970  17.107  0.00  0.00    +0.000 HD
ENDROOT
BRANCH   1  14
ATOM     13  N   UNL     1       2.353   7.375  18.217  0.00  0.00    +0.000 N 
ATOM     14  C   UNL     1       1.974   7.692  19.509  0.00  0.00    +0.000 C 
ATOM     15  O   UNL     1       2.188   6.991  20.495  0.00  0.00    +0.000 OA
ATOM     16  H   UNL     1       2.244   8.109  17.513  0.00  0.00    +0.000 HD
BRANCH  13  21
ATOM     17  C   UNL     1       4.926   4.996  16.930  0.00  0.00    +0.000 A 
ATOM     18  C   UNL     1       4.235   3.781  17.025  0.00  0.00    +0.000 A 
ATOM     19  C   UNL     1       2.924   3.749  17.490  0.00  0.00    +0.000 A 
ATOM     20  C   UNL     1       2.290   4.929  17.874  0.00  0.00    +0.000 A 
ATOM     21  C   UNL     1       2.952   6.157  17.815  0.00  0.00    +0.000 A 
ATOM     22  C   UNL     1       4.262   6.182  17.319  0.00  0.00    +0.000 A 
BRANCH  17  24
ATOM     23  C   UNL     1       7.440   4.612  17.341  0.00  0.00    +0.000 C 
ATOM     24  C   UNL     1       6.340   5.075  16.375  0.00  0.00    +0.000 C 
ATOM     25  C   UNL     1       6.423   4.279  15.071  0.00  0.00    +0.000 C 
ENDBRANCH  17  24
ENDBRANCH  13  21
ENDBRANCH   1  14
BRANCH   7  26
ATOM     26  O   UNL     1      -1.737  13.002  19.241  0.00  0.00    +0.000 OA
ATOM     27  H   UNL     1      -2.702  13.107  19.292  0.00  0.00    +0.000 HD
ENDBRANCH   7  26
TORSDOF 4
ENDMDL
MODEL 7
REMARK VINA RESULT:      -8.3      5.407      8.204
REMARK  Name = 
REMARK  6 active torsions:
REMARK  status: ('A' for Active; 'I' for Inactive)
REMARK    1  A    between atoms: C_1  and  C_2
REMARK    2  A    between atoms: C_2  and  C_3
REMARK    3  A    between atoms: C_2  and  C_4
REMARK    4  A    between atoms: C_8  and  N_9
REMARK    5  A    between atoms: C_10  and  C_12
REMARK    6  A    between atoms: C_18  and  O_19
REMARK                            x       y       z     vdW  Elec       q    Type
REMARK                         _______ _______ _______ _____ _____    ______ ____
ROOT
ATOM      1  C   UNL     1       2.642   6.910  18.599  0.00  0.00    +0.000 A 
ATOM      2  C   UNL     1       1.945   6.253  19.539  0.00  0.00    +0.000 A 
ATOM      3  C   UNL     1       2.330   4.919  19.957  0.00  0.00    +0.000 A 
ATOM      4  C   UNL     1       1.535   4.166  20.823  0.00  0.00    +0.000 A 
ATOM      5  C   UNL     1       1.987   2.930  21.285  0.00  0.00    +0.000 A 
ATOM      6  C   UNL     1       3.253   2.466  20.922  0.00  0.00    +0.000 A 
ATOM      7  C   UNL     1       4.042   3.216  20.049  0.00  0.00    +0.000 A 
ATOM      8  C   UNL     1       3.556   4.416  19.533  0.00  0.00    +0.000 A 
ATOM      9  O   UNL     1       4.289   5.096  18.538  0.00  0.00    +0.000 OA
ATOM     10  C   UNL     1       3.767   6.229  17.939  0.00  0.00    +0.000 A 
ATOM     11  N   UNL     1       4.312   6.629  16.837  0.00  0.00    +0.000 NA
ATOM     12  H   UNL     1       5.044   5.933  16.620  0.00  0.00    +0.000 HD
ENDROOT
BRANCH   1  14
ATOM     13  N   UNL     1       1.279   8.846  19.214  0.00  0.00    +0.000 N 
ATOM     14  C   UNL     1       2.187   8.310  18.320  0.00  0.00    +0.000 C 
ATOM     15  O   UNL     1       2.638   8.898  17.340  0.00  0.00    +0.000 OA
ATOM     16  H   UNL     1       1.096   8.307  20.063  0.00  0.00    +0.000 HD
BRANCH  13  21
ATOM     17  C   UNL     1      -1.227  11.431  18.222  0.00  0.00    +0.000 A 
ATOM     18  C   UNL     1      -0.676  12.576  18.812  0.00  0.00    +0.000 A 
ATOM     19  C   UNL     1       0.523  12.500  19.515  0.00  0.00    +0.000 A 
ATOM     20  C   UNL     1       1.182  11.278  19.643  0.00  0.00    +0.000 A 
ATOM     21  C   UNL     1       0.654  10.111  19.087  0.00  0.00    +0.000 A 
ATOM     22  C   UNL     1      -0.539  10.203  18.358  0.00  0.00    +0.000 A 
BRANCH  17  24
ATOM     23  C   UNL     1      -2.676  10.342  16.392  0.00  0.00    +0.000 C 
ATOM     24  C   UNL     1      -2.506  11.487  17.401  0.00  0.00    +0.000 C 
ATOM     25  C   UNL     1      -3.714  11.537  18.340  0.00  0.00    +0.000 C 
ENDBRANCH  17  24
ENDBRANCH  13  21
ENDBRANCH   1  14
BRANCH   7  26
ATOM     26  O   UNL     1       5.290   2.788  19.704  0.00  0.00    +0.000 OA
ATOM     27  H   UNL     1       5.720   2.417  20.493  0.00  0.00    +0.000 HD
ENDBRANCH   7  26
TORSDOF 4
ENDMDL
MODEL 8
REMARK VINA RESULT:      -8.3      5.422      7.407
REMARK  Name = 
REMARK  6 active torsions:
REMARK  status: ('A' for Active; 'I' for Inactive)
REMARK    1  A    between atoms: C_1  and  C_2
REMARK    2  A    between atoms: C_2  and  C_3
REMARK    3  A    between atoms: C_2  and  C_4
REMARK    4  A    between atoms: C_8  and  N_9
REMARK    5  A    between atoms: C_10  and  C_12
REMARK    6  A    between atoms: C_18  and  O_19
REMARK                            x       y       z     vdW  Elec       q    Type
REMARK                         _______ _______ _______ _____ _____    ______ ____
ROOT
ATOM      1  C   UNL     1       1.035   9.221  19.912  0.00  0.00    +0.000 A 
ATOM      2  C   UNL     1       0.482   9.324  21.131  0.00  0.00    +0.000 A 
ATOM      3  C   UNL     1      -0.389  10.434  21.462  0.00  0.00    +0.000 A 
ATOM      4  C   UNL     1      -0.855  10.634  22.764  0.00  0.00    +0.000 A 
ATOM      5  C   UNL     1      -1.773  11.650  23.026  0.00  0.00    +0.000 A 
ATOM      6  C   UNL     1      -2.266  12.437  21.981  0.00  0.00    +0.000 A 
ATOM      7  C   UNL     1      -1.792  12.240  20.684  0.00  0.00    +0.000 A 
ATOM      8  C   UNL     1      -0.820  11.272  20.440  0.00  0.00    +0.000 A 
ATOM      9  O   UNL     1      -0.236  11.177  19.159  0.00  0.00    +0.000 OA
ATOM     10  C   UNL     1       0.805  10.294  18.932  0.00  0.00    +0.000 A 
ATOM     11  N   UNL     1       1.509  10.461  17.859  0.00  0.00    +0.000 NA
ATOM     12  H   UNL     1       1.125  11.304  17.403  0.00  0.00    +0.000 HD
ENDROOT
BRANCH   1  14
ATOM     13  N   UNL     1       2.292   7.784  18.381  0.00  0.00    +0.000 N 
ATOM     14  C   UNL     1       1.848   7.985  19.675  0.00  0.00    +0.000 C 
ATOM     15  O   UNL     1       2.080   7.236  20.621  0.00  0.00    +0.000 OA
ATOM     16  H   UNL     1       2.153   8.554  17.722  0.00  0.00    +0.000 HD
BRANCH  13  21
ATOM     17  C   UNL     1       3.015   4.213  17.565  0.00  0.00    +0.000 A 
ATOM     18  C   UNL     1       4.295   4.322  17.008  0.00  0.00    +0.000 A 
ATOM     19  C   UNL     1       4.924   5.560  16.920  0.00  0.00    +0.000 A 
ATOM     20  C   UNL     1       4.278   6.706  17.381  0.00  0.00    +0.000 A 
ATOM     21  C   UNL     1       2.993   6.642  17.923  0.00  0.00    +0.000 A 
ATOM     22  C   UNL     1       2.380   5.387  18.033  0.00  0.00    +0.000 A 
BRANCH  17  24
ATOM     23  C   UNL     1       3.229   1.725  18.197  0.00  0.00    +0.000 C 
ATOM     24  C   UNL     1       2.320   2.870  17.727  0.00  0.00    +0.000 C 
ATOM     25  C   UNL     1       1.135   3.019  18.684  0.00  0.00    +0.000 C 
ENDBRANCH  17  24
ENDBRANCH  13  21
ENDBRANCH   1  14
BRANCH   7  26
ATOM     26  O   UNL     1      -2.280  12.984  19.649  0.00  0.00    +0.000 OA
ATOM     27  H   UNL     1      -1.984  13.903  19.762  0.00  0.00    +0.000 HD
ENDBRANCH   7  26
TORSDOF 4
ENDMDL
MODEL 9
REMARK VINA RESULT:      -8.2      5.748      8.898
REMARK  Name = 
REMARK  6 active torsions:
REMARK  status: ('A' for Active; 'I' for Inactive)
REMARK    1  A    between atoms: C_1  and  C_2
REMARK    2  A    between atoms: C_2  and  C_3
REMARK    3  A    between atoms: C_2  and  C_4
REMARK    4  A    between atoms: C_8  and  N_9
REMARK    5  A    between atoms: C_10  and  C_12
REMARK    6  A    between atoms: C_18  and  O_19
REMARK                            x       y       z     vdW  Elec       q    Type
REMARK                         _______ _______ _______ _____ _____    ______ ____
ROOT
ATOM      1  C   UNL     1       2.678   7.080  18.874  0.00  0.00    +0.000 A 
ATOM      2  C   UNL     1       3.391   7.272  17.753  0.00  0.00    +0.000 A 
ATOM      3  C   UNL     1       4.206   6.209  17.197  0.00  0.00    +0.000 A 
ATOM      4  C   UNL     1       5.064   6.435  16.118  0.00  0.00    +0.000 A 
ATOM      5  C   UNL     1       5.754   5.367  15.544  0.00  0.00    +0.000 A 
ATOM      6  C   UNL     1       5.551   4.067  16.014  0.00  0.00    +0.000 A 
ATOM      7  C   UNL     1       4.700   3.847  17.097  0.00  0.00    +0.000 A 
ATOM      8  C   UNL     1       4.069   4.926  17.714  0.00  0.00    +0.000 A 
ATOM      9  O   UNL     1       3.331   4.719  18.898  0.00  0.00    +0.000 OA
ATOM     10  C   UNL     1       2.791   5.794  19.580  0.00  0.00    +0.000 A 
ATOM     11  N   UNL     1       2.404   5.599  20.798  0.00  0.00    +0.000 NA
ATOM     12  H   UNL     1       2.643   4.617  21.011  0.00  0.00    +0.000 HD
ENDROOT
BRANCH   1  14
ATOM     13  N   UNL     1       1.438   9.108  18.294  0.00  0.00    +0.000 N 
ATOM     14  C   UNL     1       1.816   8.232  19.294  0.00  0.00    +0.000 C 
ATOM     15  O   UNL     1       1.491   8.331  20.474  0.00  0.00    +0.000 OA
ATOM     16  H   UNL     1       1.655   8.832  17.334  0.00  0.00    +0.000 HD
BRANCH  13  21
ATOM     17  C   UNL     1       0.735  12.733  18.852  0.00  0.00    +0.000 A 
ATOM     18  C   UNL     1      -0.666  12.736  18.845  0.00  0.00    +0.000 A 
ATOM     19  C   UNL     1      -1.373  11.550  18.678  0.00  0.00    +0.000 A 
ATOM     20  C   UNL     1      -0.690  10.347  18.507  0.00  0.00    +0.000 A 
ATOM     21  C   UNL     1       0.706  10.305  18.487  0.00  0.00    +0.000 A 
ATOM     22  C   UNL     1       1.408  11.501  18.684  0.00  0.00    +0.000 A 
BRANCH  17  24
ATOM     23  C   UNL     1       2.790  14.145  18.206  0.00  0.00    +0.000 C 
ATOM     24  C   UNL     1       1.540  14.002  19.086  0.00  0.00    +0.000 C 
ATOM     25  C   UNL     1       0.635  15.223  18.907  0.00  0.00    +0.000 C 
ENDBRANCH  17  24
ENDBRANCH  13  21
ENDBRANCH   1  14
BRANCH   7  26
ATOM     26  O   UNL     1       4.474   2.581  17.553  0.00  0.00    +0.000 OA
ATOM     27  H   UNL     1       4.233   2.629  18.493  0.00  0.00    +0.000 HD
ENDBRANCH   7  26
TORSDOF 4
ENDMDL
