MODEL 1
REMARK VINA RESULT:      -8.1      0.000      0.000
REMARK  Name = 
REMARK  7 active torsions:
REMARK  status: ('A' for Active; 'I' for Inactive)
REMARK    1  A    between atoms: C_2  and  O_3
REMARK    2  A    between atoms: C_2  and  C_4
REMARK    3  A    between atoms: C_7  and  C_8
REMARK    4  A    between atoms: N_9  and  N_10
REMARK    5  A    between atoms: N_10  and  C_11
REMARK    6  A    between atoms: C_14  and  N_15
REMARK    7  A    between atoms: C_19  and  N_20
REMARK                            x       y       z     vdW  Elec       q    Type
REMARK                         _______ _______ _______ _____ _____    ______ ____
ROOT
ATOM      1  N   UNL     1       4.704   4.508  19.196  0.00  0.00    +0.000 N 
ATOM      2  H   UNL     1       5.196   3.927  19.887  0.00  0.00    +0.000 HD
ENDROOT
BRANCH   1   3
ATOM      3  C   UNL     1       5.356   4.611  17.942  0.00  0.00    +0.000 A 
ATOM      4  C   UNL     1       4.719   4.067  16.805  0.00  0.00    +0.000 A 
ATOM      5  C   UNL     1       5.288   4.128  15.532  0.00  0.00    +0.000 A 
ATOM      6  C   UNL     1       6.531   4.739  15.366  0.00  0.00    +0.000 A 
ATOM      7  C   UNL     1       7.212   5.271  16.470  0.00  0.00    +0.000 A 
ATOM      8  C   UNL     1       6.628   5.195  17.753  0.00  0.00    +0.000 A 
BRANCH   6   9
ATOM      9  N   UNL     1       7.122   4.826  14.025  0.00  0.00    +0.000 N 
ATOM     10  O   UNL     1       6.658   4.091  13.143  0.00  0.00    +0.000 OA
ATOM     11  O   UNL     1       8.046   5.633  13.858  0.00  0.00    +0.000 OA
ENDBRANCH   6   9
BRANCH   8  12
ATOM     12  N   UNL     1       7.378   5.777  18.880  0.00  0.00    +0.000 N 
ATOM     13  O   UNL     1       8.039   6.806  18.675  0.00  0.00    +0.000 OA
ATOM     14  O   UNL     1       7.309   5.200  19.973  0.00  0.00    +0.000 OA
ENDBRANCH   8  12
ENDBRANCH   1   3
BRANCH   1  16
ATOM     15  C   UNL     1       3.155   6.097  18.809  0.00  0.00    +0.000 C 
ATOM     16  N   UNL     1       4.050   5.623  19.616  0.00  0.00    +0.000 NA
BRANCH  15  20
ATOM     17  C   UNL     1       0.929   9.577  19.927  0.00  0.00    +0.000 A 
ATOM     18  C   UNL     1       1.391   9.439  18.613  0.00  0.00    +0.000 A 
ATOM     19  C   UNL     1       2.115   8.299  18.247  0.00  0.00    +0.000 A 
ATOM     20  C   UNL     1       2.361   7.287  19.185  0.00  0.00    +0.000 A 
ATOM     21  C   UNL     1       1.862   7.401  20.484  0.00  0.00    +0.000 A 
ATOM     22  C   UNL     1       1.146   8.544  20.852  0.00  0.00    +0.000 A 
BRANCH  17  24
ATOM     23  O   UNL     1      -0.841  11.162  19.831  0.00  0.00    +0.000 OA
ATOM     24  C   UNL     1       0.177  10.777  20.380  0.00  0.00    +0.000 C 
BRANCH  24  25
ATOM     25  O   UNL     1       0.691  11.370  21.478  0.00  0.00    +0.000 OA
ATOM     26  H   UNL     1       0.079  11.938  21.977  0.00  0.00    +0.000 HD
ENDBRANCH  24  25
ENDBRANCH  17  24
ENDBRANCH  15  20
ENDBRANCH   1  16
TORSDOF 7
ENDMDL
MODEL 2
REMARK VINA RESULT:      -7.9      0.655      1.595
REMARK  Name = 
REMARK  7 active torsions:
REMARK  status: ('A' for Active; 'I' for Inactive)
REMARK    1  A    between atoms: C_2  and  O_3
REMARK    2  A    between atoms: C_2  and  C_4
REMARK    3  A    between atoms: C_7  and  C_8
REMARK    4  A    between atoms: N_9  and  N_10
REMARK    5  A    between atoms: N_10  and  C_11
REMARK    6  A    between atoms: C_14  and  N_15
REMARK    7  A    between atoms: C_19  and  N_20
REMARK                            x       y       z     vdW  Elec       q    Type
REMARK                         _______ _______ _______ _____ _____    ______ ____
ROOT
ATOM      1  N   UNL     1       4.591   4.567  19.260  0.00  0.00    +0.000 N 
ATOM      2  H   UNL     1       5.183   4.226  20.028  0.00  0.00    +0.000 HD
ENDROOT
BRANCH   1   3
ATOM      3  C   UNL     1       5.241   4.640  18.002  0.00  0.00    +0.000 A 
ATOM      4  C   UNL     1       4.578   4.115  16.871  0.00  0.00    +0.000 A 
ATOM      5  C   UNL     1       5.143   4.149  15.595  0.00  0.00    +0.000 A 
ATOM      6  C   UNL     1       6.407   4.713  15.421  0.00  0.00    +0.000 A 
ATOM      7  C   UNL     1       7.112   5.224  16.518  0.00  0.00    +0.000 A 
ATOM      8  C   UNL     1       6.532   5.176  17.804  0.00  0.00    +0.000 A 
BRANCH   6   9
ATOM      9  N   UNL     1       6.994   4.772  14.076  0.00  0.00    +0.000 N 
ATOM     10  O   UNL     1       7.921   5.572  13.888  0.00  0.00    +0.000 OA
ATOM     11  O   UNL     1       6.529   4.015  13.215  0.00  0.00    +0.000 OA
ENDBRANCH   6   9
BRANCH   8  12
ATOM     12  N   UNL     1       7.308   5.735  18.926  0.00  0.00    +0.000 N 
ATOM     13  O   UNL     1       7.206   5.191  20.036  0.00  0.00    +0.000 OA
ATOM     14  O   UNL     1       8.019   6.722  18.696  0.00  0.00    +0.000 OA
ENDBRANCH   8  12
ENDBRANCH   1   3
BRANCH   1  16
ATOM     15  C   UNL     1       3.612   6.500  18.642  0.00  0.00    +0.000 C 
ATOM     16  N   UNL     1       3.679   5.544  19.512  0.00  0.00    +0.000 NA
BRANCH  15  20
ATOM     17  C   UNL     1       0.706   9.611  19.080  0.00  0.00    +0.000 A 
ATOM     18  C   UNL     1       1.053   8.823  20.184  0.00  0.00    +0.000 A 
ATOM     19  C   UNL     1       2.006   7.809  20.040  0.00  0.00    +0.000 A 
ATOM     20  C   UNL     1       2.629   7.594  18.804  0.00  0.00    +0.000 A 
ATOM     21  C   UNL     1       2.318   8.408  17.713  0.00  0.00    +0.000 A 
ATOM     22  C   UNL     1       1.359   9.416  17.854  0.00  0.00    +0.000 A 
BRANCH  17  24
ATOM     23  O   UNL     1      -0.985  10.881  20.166  0.00  0.00    +0.000 OA
ATOM     24  C   UNL     1      -0.318  10.686  19.165  0.00  0.00    +0.000 C 
BRANCH  24  25
ATOM     25  O   UNL     1      -0.407  11.454  18.059  0.00  0.00    +0.000 OA
ATOM     26  H   UNL     1       0.436  11.652  17.613  0.00  0.00    +0.000 HD
ENDBRANCH  24  25
ENDBRANCH  17  24
ENDBRANCH  15  20
ENDBRANCH   1  16
TORSDOF 7
ENDMDL
MODEL 3
REMARK VINA RESULT:      -7.8      0.468      1.261
REMARK  Name = 
REMARK  7 active torsions:
REMARK  status: ('A' for Active; 'I' for Inactive)
REMARK    1  A    between atoms: C_2  and  O_3
REMARK    2  A    between atoms: C_2  and  C_4
REMARK    3  A    between atoms: C_7  and  C_8
REMARK    4  A    between atoms: N_9  and  N_10
REMARK    5  A    between atoms: N_10  and  C_11
REMARK    6  A    between atoms: C_14  and  N_15
REMARK    7  A    between atoms: C_19  and  N_20
REMARK                            x       y       z     vdW  Elec       q    Type
REMARK                         _______ _______ _______ _____ _____    ______ ____
ROOT
ATOM      1  N   UNL     1       4.748   4.609  18.840  0.00  0.00    +0.000 N 
ATOM      2  H   UNL     1       5.208   4.008  19.536  0.00  0.00    +0.000 HD
ENDROOT
BRANCH   1   3
ATOM      3  C   UNL     1       5.427   4.700  17.599  0.00  0.00    +0.000 A 
ATOM      4  C   UNL     1       4.804   4.167  16.450  0.00  0.00    +0.000 A 
ATOM      5  C   UNL     1       5.400   4.218  15.188  0.00  0.00    +0.000 A 
ATOM      6  C   UNL     1       6.655   4.808  15.048  0.00  0.00    +0.000 A 
ATOM      7  C   UNL     1       7.323   5.329  16.165  0.00  0.00    +0.000 A 
ATOM      8  C   UNL     1       6.712   5.263  17.436  0.00  0.00    +0.000 A 
BRANCH   6   9
ATOM      9  N   UNL     1       7.275   4.885  13.719  0.00  0.00    +0.000 N 
ATOM     10  O   UNL     1       6.829   4.145  12.832  0.00  0.00    +0.000 OA
ATOM     11  O   UNL     1       8.204   5.688  13.567  0.00  0.00    +0.000 OA
ENDBRANCH   6   9
BRANCH   8  12
ATOM     12  N   UNL     1       7.448   5.833  18.579  0.00  0.00    +0.000 N 
ATOM     13  O   UNL     1       7.508   5.169  19.625  0.00  0.00    +0.000 OA
ATOM     14  O   UNL     1       7.964   6.948  18.430  0.00  0.00    +0.000 OA
ENDBRANCH   8  12
ENDBRANCH   1   3
BRANCH   1  16
ATOM     15  C   UNL     1       3.131   6.145  18.525  0.00  0.00    +0.000 C 
ATOM     16  N   UNL     1       4.120   5.741  19.256  0.00  0.00    +0.000 NA
BRANCH  15  20
ATOM     17  C   UNL     1       0.820   9.581  19.608  0.00  0.00    +0.000 A 
ATOM     18  C   UNL     1       1.168   8.641  20.584  0.00  0.00    +0.000 A 
ATOM     19  C   UNL     1       1.926   7.520  20.230  0.00  0.00    +0.000 A 
ATOM     20  C   UNL     1       2.357   7.347  18.908  0.00  0.00    +0.000 A 
ATOM     21  C   UNL     1       2.051   8.306  17.941  0.00  0.00    +0.000 A 
ATOM     22  C   UNL     1       1.285   9.422  18.293  0.00  0.00    +0.000 A 
BRANCH  17  24
ATOM     23  O   UNL     1      -0.319  11.599  19.074  0.00  0.00    +0.000 OA
ATOM     24  C   UNL     1      -0.006  10.778  19.919  0.00  0.00    +0.000 C 
BRANCH  24  25
ATOM     25  O   UNL     1      -0.417  10.847  21.202  0.00  0.00    +0.000 OA
ATOM     26  H   UNL     1      -1.152  10.255  21.443  0.00  0.00    +0.000 HD
ENDBRANCH  24  25
ENDBRANCH  17  24
ENDBRANCH  15  20
ENDBRANCH   1  16
TORSDOF 7
ENDMDL
MODEL 4
REMARK VINA RESULT:      -7.7      0.947      1.500
REMARK  Name = 
REMARK  7 active torsions:
REMARK  status: ('A' for Active; 'I' for Inactive)
REMARK    1  A    between atoms: C_2  and  O_3
REMARK    2  A    between atoms: C_2  and  C_4
REMARK    3  A    between atoms: C_7  and  C_8
REMARK    4  A    between atoms: N_9  and  N_10
REMARK    5  A    between atoms: N_10  and  C_11
REMARK    6  A    between atoms: C_14  and  N_15
REMARK    7  A    between atoms: C_19  and  N_20
REMARK                            x       y       z     vdW  Elec       q    Type
REMARK                         _______ _______ _______ _____ _____    ______ ____
ROOT
ATOM      1  N   UNL     1       4.854   3.975  17.921  0.00  0.00    +0.000 N 
ATOM      2  H   UNL     1       5.227   3.194  18.478  0.00  0.00    +0.000 HD
ENDROOT
BRANCH   1   3
ATOM      3  C   UNL     1       5.596   4.272  16.751  0.00  0.00    +0.000 A 
ATOM      4  C   UNL     1       5.098   3.826  15.507  0.00  0.00    +0.000 A 
ATOM      5  C   UNL     1       5.762   4.078  14.306  0.00  0.00    +0.000 A 
ATOM      6  C   UNL     1       6.962   4.789  14.323  0.00  0.00    +0.000 A 
ATOM      7  C   UNL     1       7.508   5.230  15.537  0.00  0.00    +0.000 A 
ATOM      8  C   UNL     1       6.829   4.960  16.745  0.00  0.00    +0.000 A 
BRANCH   6   9
ATOM      9  N   UNL     1       7.652   5.077  13.060  0.00  0.00    +0.000 N 
ATOM     10  O   UNL     1       8.548   5.933  13.075  0.00  0.00    +0.000 OA
ATOM     11  O   UNL     1       7.298   4.444  12.057  0.00  0.00    +0.000 OA
ENDBRANCH   6   9
BRANCH   8  12
ATOM     12  N   UNL     1       7.437   5.452  17.995  0.00  0.00    +0.000 N 
ATOM     13  O   UNL     1       7.808   4.617  18.833  0.00  0.00    +0.000 OA
ATOM     14  O   UNL     1       7.538   6.677  18.140  0.00  0.00    +0.000 OA
ENDBRANCH   8  12
ENDBRANCH   1   3
BRANCH   1  16
ATOM     15  C   UNL     1       3.286   5.591  17.987  0.00  0.00    +0.000 C 
ATOM     16  N   UNL     1       4.307   5.041  18.563  0.00  0.00    +0.000 NA
BRANCH  15  20
ATOM     17  C   UNL     1       1.363   8.933  19.842  0.00  0.00    +0.000 A 
ATOM     18  C   UNL     1       1.693   8.987  18.483  0.00  0.00    +0.000 A 
ATOM     19  C   UNL     1       2.318   7.892  17.877  0.00  0.00    +0.000 A 
ATOM     20  C   UNL     1       2.595   6.736  18.618  0.00  0.00    +0.000 A 
ATOM     21  C   UNL     1       2.226   6.662  19.963  0.00  0.00    +0.000 A 
ATOM     22  C   UNL     1       1.609   7.760  20.571  0.00  0.00    +0.000 A 
BRANCH  17  24
ATOM     23  O   UNL     1       1.149  10.524  21.597  0.00  0.00    +0.000 OA
ATOM     24  C   UNL     1       0.722  10.075  20.547  0.00  0.00    +0.000 C 
BRANCH  24  25
ATOM     25  O   UNL     1      -0.340  10.598  19.900  0.00  0.00    +0.000 OA
ATOM     26  H   UNL     1      -0.146  11.344  19.303  0.00  0.00    +0.000 HD
ENDBRANCH  24  25
ENDBRANCH  17  24
ENDBRANCH  15  20
ENDBRANCH   1  16
TORSDOF 7
ENDMDL
MODEL 5
REMARK VINA RESULT:      -7.7      4.992      6.745
REMARK  Name = 
REMARK  7 active torsions:
REMARK  status: ('A' for Active; 'I' for Inactive)
REMARK    1  A    between atoms: C_2  and  O_3
REMARK    2  A    between atoms: C_2  and  C_4
REMARK    3  A    between atoms: C_7  and  C_8
REMARK    4  A    between atoms: N_9  and  N_10
REMARK    5  A    between atoms: N_10  and  C_11
REMARK    6  A    between atoms: C_14  and  N_15
REMARK    7  A    between atoms: C_19  and  N_20
REMARK                            x       y       z     vdW  Elec       q    Type
REMARK                         _______ _______ _______ _____ _____    ______ ____
ROOT
ATOM      1  N   UNL     1       7.200   6.999  16.843  0.00  0.00    +0.000 N 
ATOM      2  H   UNL     1       7.321   6.609  15.899  0.00  0.00    +0.000 HD
ENDROOT
BRANCH   1   3
ATOM      3  C   UNL     1       6.051   6.535  17.529  0.00  0.00    +0.000 A 
ATOM      4  C   UNL     1       4.785   7.010  17.121  0.00  0.00    +0.000 A 
ATOM      5  C   UNL     1       3.602   6.602  17.740  0.00  0.00    +0.000 A 
ATOM      6  C   UNL     1       3.661   5.699  18.801  0.00  0.00    +0.000 A 
ATOM      7  C   UNL     1       4.896   5.219  19.257  0.00  0.00    +0.000 A 
ATOM      8  C   UNL     1       6.085   5.647  18.627  0.00  0.00    +0.000 A 
BRANCH   6   9
ATOM      9  N   UNL     1       2.417   5.248  19.438  0.00  0.00    +0.000 N 
ATOM     10  O   UNL     1       2.040   5.850  20.454  0.00  0.00    +0.000 OA
ATOM     11  O   UNL     1       1.819   4.298  18.919  0.00  0.00    +0.000 OA
ENDBRANCH   6   9
BRANCH   8  12
ATOM     12  N   UNL     1       7.360   5.108  19.135  0.00  0.00    +0.000 N 
ATOM     13  O   UNL     1       8.068   4.451  18.357  0.00  0.00    +0.000 OA
ATOM     14  O   UNL     1       7.650   5.339  20.316  0.00  0.00    +0.000 OA
ENDBRANCH   8  12
ENDBRANCH   1   3
BRANCH   1  16
ATOM     15  C   UNL     1       8.256   8.518  18.128  0.00  0.00    +0.000 C 
ATOM     16  N   UNL     1       7.543   8.295  17.071  0.00  0.00    +0.000 NA
BRANCH  15  20
ATOM     17  C   UNL     1       9.500  12.497  19.097  0.00  0.00    +0.000 A 
ATOM     18  C   UNL     1       9.866  11.432  19.928  0.00  0.00    +0.000 A 
ATOM     19  C   UNL     1       9.462  10.131  19.608  0.00  0.00    +0.000 A 
ATOM     20  C   UNL     1       8.712   9.889  18.450  0.00  0.00    +0.000 A 
ATOM     21  C   UNL     1       8.384  10.942  17.596  0.00  0.00    +0.000 A 
ATOM     22  C   UNL     1       8.780  12.244  17.920  0.00  0.00    +0.000 A 
BRANCH  17  24
ATOM     23  O   UNL     1       9.203  14.626  20.113  0.00  0.00    +0.000 OA
ATOM     24  C   UNL     1       9.877  13.903  19.400  0.00  0.00    +0.000 C 
BRANCH  24  25
ATOM     25  O   UNL     1      11.051  14.289  18.858  0.00  0.00    +0.000 OA
ATOM     26  H   UNL     1      11.025  15.111  18.336  0.00  0.00    +0.000 HD
ENDBRANCH  24  25
ENDBRANCH  17  24
ENDBRANCH  15  20
ENDBRANCH   1  16
TORSDOF 7
ENDMDL
MODEL 6
REMARK VINA RESULT:      -7.7      0.817      1.447
REMARK  Name = 
REMARK  7 active torsions:
REMARK  status: ('A' for Active; 'I' for Inactive)
REMARK    1  A    between atoms: C_2  and  O_3
REMARK    2  A    between atoms: C_2  and  C_4
REMARK    3  A    between atoms: C_7  and  C_8
REMARK    4  A    between atoms: N_9  and  N_10
REMARK    5  A    between atoms: N_10  and  C_11
REMARK    6  A    between atoms: C_14  and  N_15
REMARK    7  A    between atoms: C_19  and  N_20
REMARK                            x       y       z     vdW  Elec       q    Type
REMARK                         _______ _______ _______ _____ _____    ______ ____
ROOT
ATOM      1  N   UNL     1       4.820   4.500  18.222  0.00  0.00    +0.000 N 
ATOM      2  H   UNL     1       5.199   3.799  18.872  0.00  0.00    +0.000 HD
ENDROOT
BRANCH   1   3
ATOM      3  C   UNL     1       5.550   4.638  17.014  0.00  0.00    +0.000 A 
ATOM      4  C   UNL     1       4.954   4.194  15.814  0.00  0.00    +0.000 A 
ATOM      5  C   UNL     1       5.599   4.295  14.580  0.00  0.00    +0.000 A 
ATOM      6  C   UNL     1       6.878   4.848  14.520  0.00  0.00    +0.000 A 
ATOM      7  C   UNL     1       7.519   5.279  15.690  0.00  0.00    +0.000 A 
ATOM      8  C   UNL     1       6.858   5.163  16.931  0.00  0.00    +0.000 A 
BRANCH   6   9
ATOM      9  N   UNL     1       7.551   4.979  13.222  0.00  0.00    +0.000 N 
ATOM     10  O   UNL     1       8.496   5.776  13.141  0.00  0.00    +0.000 OA
ATOM     11  O   UNL     1       7.135   4.281  12.289  0.00  0.00    +0.000 OA
ENDBRANCH   6   9
BRANCH   8  12
ATOM     12  N   UNL     1       7.569   5.639  18.132  0.00  0.00    +0.000 N 
ATOM     13  O   UNL     1       7.818   6.851  18.222  0.00  0.00    +0.000 OA
ATOM     14  O   UNL     1       7.882   4.799  18.984  0.00  0.00    +0.000 OA
ENDBRANCH   8  12
ENDBRANCH   1   3
BRANCH   1  16
ATOM     15  C   UNL     1       3.117   5.973  18.263  0.00  0.00    +0.000 C 
ATOM     16  N   UNL     1       4.282   5.643  18.722  0.00  0.00    +0.000 NA
BRANCH  15  20
ATOM     17  C   UNL     1       1.043   9.433  19.693  0.00  0.00    +0.000 A 
ATOM     18  C   UNL     1       1.358   8.395  20.578  0.00  0.00    +0.000 A 
ATOM     19  C   UNL     1       2.039   7.266  20.110  0.00  0.00    +0.000 A 
ATOM     20  C   UNL     1       2.426   7.181  18.766  0.00  0.00    +0.000 A 
ATOM     21  C   UNL     1       2.154   8.234  17.891  0.00  0.00    +0.000 A 
ATOM     22  C   UNL     1       1.465   9.359  18.357  0.00  0.00    +0.000 A 
BRANCH  17  24
ATOM     23  O   UNL     1       0.336  11.696  19.511  0.00  0.00    +0.000 OA
ATOM     24  C   UNL     1       0.298  10.644  20.126  0.00  0.00    +0.000 C 
BRANCH  24  25
ATOM     25  O   UNL     1      -0.459  10.463  21.228  0.00  0.00    +0.000 OA
ATOM     26  H   UNL     1       0.014  10.504  22.078  0.00  0.00    +0.000 HD
ENDBRANCH  24  25
ENDBRANCH  17  24
ENDBRANCH  15  20
ENDBRANCH   1  16
TORSDOF 7
ENDMDL
MODEL 7
REMARK VINA RESULT:      -7.7      1.019      1.704
REMARK  Name = 
REMARK  7 active torsions:
REMARK  status: ('A' for Active; 'I' for Inactive)
REMARK    1  A    between atoms: C_2  and  O_3
REMARK    2  A    between atoms: C_2  and  C_4
REMARK    3  A    between atoms: C_7  and  C_8
REMARK    4  A    between atoms: N_9  and  N_10
REMARK    5  A    between atoms: N_10  and  C_11
REMARK    6  A    between atoms: C_14  and  N_15
REMARK    7  A    between atoms: C_19  and  N_20
REMARK                            x       y       z     vdW  Elec       q    Type
REMARK                         _______ _______ _______ _____ _____    ______ ____
ROOT
ATOM      1  N   UNL     1       4.977   3.975  17.922  0.00  0.00    +0.000 N 
ATOM      2  H   UNL     1       5.391   3.230  18.497  0.00  0.00    +0.000 HD
ENDROOT
BRANCH   1   3
ATOM      3  C   UNL     1       5.702   4.283  16.744  0.00  0.00    +0.000 A 
ATOM      4  C   UNL     1       5.199   3.828  15.506  0.00  0.00    +0.000 A 
ATOM      5  C   UNL     1       5.847   4.090  14.297  0.00  0.00    +0.000 A 
ATOM      6  C   UNL     1       7.035   4.821  14.303  0.00  0.00    +0.000 A 
ATOM      7  C   UNL     1       7.585   5.272  15.510  0.00  0.00    +0.000 A 
ATOM      8  C   UNL     1       6.923   4.993  16.725  0.00  0.00    +0.000 A 
BRANCH   6   9
ATOM      9  N   UNL     1       7.708   5.120  13.032  0.00  0.00    +0.000 N 
ATOM     10  O   UNL     1       7.340   4.497  12.026  0.00  0.00    +0.000 OA
ATOM     11  O   UNL     1       8.599   5.978  13.044  0.00  0.00    +0.000 OA
ENDBRANCH   6   9
BRANCH   8  12
ATOM     12  N   UNL     1       7.535   5.496  17.968  0.00  0.00    +0.000 N 
ATOM     13  O   UNL     1       7.910   4.668  18.813  0.00  0.00    +0.000 OA
ATOM     14  O   UNL     1       7.636   6.722  18.102  0.00  0.00    +0.000 OA
ENDBRANCH   8  12
ENDBRANCH   1   3
BRANCH   1  16
ATOM     15  C   UNL     1       3.589   5.746  17.800  0.00  0.00    +0.000 C 
ATOM     16  N   UNL     1       4.373   5.026  18.538  0.00  0.00    +0.000 NA
BRANCH  15  20
ATOM     17  C   UNL     1       1.394   9.030  19.444  0.00  0.00    +0.000 A 
ATOM     18  C   UNL     1       1.671   7.911  20.238  0.00  0.00    +0.000 A 
ATOM     19  C   UNL     1       2.392   6.840  19.701  0.00  0.00    +0.000 A 
ATOM     20  C   UNL     1       2.856   6.892  18.380  0.00  0.00    +0.000 A 
ATOM     21  C   UNL     1       2.621   8.025  17.600  0.00  0.00    +0.000 A 
ATOM     22  C   UNL     1       1.892   9.093  18.134  0.00  0.00    +0.000 A 
BRANCH  17  24
ATOM     23  O   UNL     1       0.380  10.358  21.136  0.00  0.00    +0.000 OA
ATOM     24  C   UNL     1       0.610  10.187  19.952  0.00  0.00    +0.000 C 
BRANCH  24  25
ATOM     25  O   UNL     1       0.220  11.054  18.994  0.00  0.00    +0.000 OA
ATOM     26  H   UNL     1       0.902  11.302  18.344  0.00  0.00    +0.000 HD
ENDBRANCH  24  25
ENDBRANCH  17  24
ENDBRANCH  15  20
ENDBRANCH   1  16
TORSDOF 7
ENDMDL
MODEL 8
REMARK VINA RESULT:      -7.6      4.960      6.767
REMARK  Name = 
REMARK  7 active torsions:
REMARK  status: ('A' for Active; 'I' for Inactive)
REMARK    1  A    between atoms: C_2  and  O_3
REMARK    2  A    between atoms: C_2  and  C_4
REMARK    3  A    between atoms: C_7  and  C_8
REMARK    4  A    between atoms: N_9  and  N_10
REMARK    5  A    between atoms: N_10  and  C_11
REMARK    6  A    between atoms: C_14  and  N_15
REMARK    7  A    between atoms: C_19  and  N_20
REMARK                            x       y       z     vdW  Elec       q    Type
REMARK                         _______ _______ _______ _____ _____    ______ ____
ROOT
ATOM      1  N   UNL     1       6.834   7.094  16.884  0.00  0.00    +0.000 N 
ATOM      2  H   UNL     1       6.860   6.790  15.902  0.00  0.00    +0.000 HD
ENDROOT
BRANCH   1   3
ATOM      3  C   UNL     1       5.781   6.532  17.648  0.00  0.00    +0.000 A 
ATOM      4  C   UNL     1       4.459   6.949  17.380  0.00  0.00    +0.000 A 
ATOM      5  C   UNL     1       3.362   6.445  18.082  0.00  0.00    +0.000 A 
ATOM      6  C   UNL     1       3.569   5.499  19.086  0.00  0.00    +0.000 A 
ATOM      7  C   UNL     1       4.866   5.074  19.404  0.00  0.00    +0.000 A 
ATOM      8  C   UNL     1       5.966   5.599  18.692  0.00  0.00    +0.000 A 
BRANCH   6   9
ATOM      9  N   UNL     1       2.416   4.948  19.810  0.00  0.00    +0.000 N 
ATOM     10  O   UNL     1       2.344   3.717  19.925  0.00  0.00    +0.000 OA
ATOM     11  O   UNL     1       1.590   5.749  20.265  0.00  0.00    +0.000 OA
ENDBRANCH   6   9
BRANCH   8  12
ATOM     12  N   UNL     1       7.310   5.114  19.054  0.00  0.00    +0.000 N 
ATOM     13  O   UNL     1       7.725   5.344  20.200  0.00  0.00    +0.000 OA
ATOM     14  O   UNL     1       7.953   4.506  18.189  0.00  0.00    +0.000 OA
ENDBRANCH   8  12
ENDBRANCH   1   3
BRANCH   1  16
ATOM     15  C   UNL     1       8.176   8.534  17.980  0.00  0.00    +0.000 C 
ATOM     16  N   UNL     1       7.165   8.378  17.187  0.00  0.00    +0.000 NA
BRANCH  15  20
ATOM     17  C   UNL     1       9.597  12.440  18.998  0.00  0.00    +0.000 A 
ATOM     18  C   UNL     1       8.815  12.261  17.851  0.00  0.00    +0.000 A 
ATOM     19  C   UNL     1       8.348  10.985  17.521  0.00  0.00    +0.000 A 
ATOM     20  C   UNL     1       8.641   9.890  18.345  0.00  0.00    +0.000 A 
ATOM     21  C   UNL     1       9.382  10.072  19.514  0.00  0.00    +0.000 A 
ATOM     22  C   UNL     1       9.857  11.347  19.839  0.00  0.00    +0.000 A 
BRANCH  17  24
ATOM     23  O   UNL     1       9.682  14.428  20.300  0.00  0.00    +0.000 OA
ATOM     24  C   UNL     1      10.144  13.768  19.385  0.00  0.00    +0.000 C 
BRANCH  24  25
ATOM     25  O   UNL     1      11.222  14.151  18.670  0.00  0.00    +0.000 OA
ATOM     26  H   UNL     1      11.280  13.792  17.767  0.00  0.00    +0.000 HD
ENDBRANCH  24  25
ENDBRANCH  17  24
ENDBRANCH  15  20
ENDBRANCH   1  16
TORSDOF 7
ENDMDL
MODEL 9
REMARK VINA RESULT:      -7.6      1.965      2.840
REMARK  Name = 
REMARK  7 active torsions:
REMARK  status: ('A' for Active; 'I' for Inactive)
REMARK    1  A    between atoms: C_2  and  O_3
REMARK    2  A    between atoms: C_2  and  C_4
REMARK    3  A    between atoms: C_7  and  C_8
REMARK    4  A    between atoms: N_9  and  N_10
REMARK    5  A    between atoms: N_10  and  C_11
REMARK    6  A    between atoms: C_14  and  N_15
REMARK    7  A    between atoms: C_19  and  N_20
REMARK                            x       y       z     vdW  Elec       q    Type
REMARK                         _______ _______ _______ _____ _____    ______ ____
ROOT
ATOM      1  N   UNL     1       3.185   5.815  18.853  0.00  0.00    +0.000 N 
ATOM      2  H   UNL     1       3.598   5.690  19.786  0.00  0.00    +0.000 HD
ENDROOT
BRANCH   1   3
ATOM      3  C   UNL     1       4.040   5.464  17.779  0.00  0.00    +0.000 A 
ATOM      4  C   UNL     1       4.476   6.483  16.905  0.00  0.00    +0.000 A 
ATOM      5  C   UNL     1       5.322   6.227  15.824  0.00  0.00    +0.000 A 
ATOM      6  C   UNL     1       5.753   4.922  15.587  0.00  0.00    +0.000 A 
ATOM      7  C   UNL     1       5.326   3.873  16.414  0.00  0.00    +0.000 A 
ATOM      8  C   UNL     1       4.465   4.146  17.498  0.00  0.00    +0.000 A 
BRANCH   6   9
ATOM      9  N   UNL     1       6.662   4.652  14.466  0.00  0.00    +0.000 N 
ATOM     10  O   UNL     1       6.357   3.739  13.686  0.00  0.00    +0.000 OA
ATOM     11  O   UNL     1       7.675   5.356  14.368  0.00  0.00    +0.000 OA
ENDBRANCH   6   9
BRANCH   8  12
ATOM     12  N   UNL     1       4.051   3.013  18.344  0.00  0.00    +0.000 N 
ATOM     13  O   UNL     1       3.460   2.065  17.805  0.00  0.00    +0.000 OA
ATOM     14  O   UNL     1       4.314   3.073  19.552  0.00  0.00    +0.000 OA
ENDBRANCH   8  12
ENDBRANCH   1   3
BRANCH   1  16
ATOM     15  C   UNL     1       2.169   7.667  19.634  0.00  0.00    +0.000 C 
ATOM     16  N   UNL     1       2.359   6.871  18.631  0.00  0.00    +0.000 NA
BRANCH  15  20
ATOM     17  C   UNL     1      -0.360  11.089  19.176  0.00  0.00    +0.000 A 
ATOM     18  C   UNL     1      -0.367  10.375  20.380  0.00  0.00    +0.000 A 
ATOM     19  C   UNL     1       0.463   9.259  20.530  0.00  0.00    +0.000 A 
ATOM     20  C   UNL     1       1.315   8.867  19.489  0.00  0.00    +0.000 A 
ATOM     21  C   UNL     1       1.358   9.603  18.304  0.00  0.00    +0.000 A 
ATOM     22  C   UNL     1       0.521  10.714  18.151  0.00  0.00    +0.000 A 
BRANCH  17  24
ATOM     23  O   UNL     1      -1.797  12.856  19.857  0.00  0.00    +0.000 OA
ATOM     24  C   UNL     1      -1.239  12.266  18.948  0.00  0.00    +0.000 C 
BRANCH  24  25
ATOM     25  O   UNL     1      -1.322  12.653  17.658  0.00  0.00    +0.000 OA
ATOM     26  H   UNL     1      -1.812  13.479  17.495  0.00  0.00    +0.000 HD
ENDBRANCH  24  25
ENDBRANCH  17  24
ENDBRANCH  15  20
ENDBRANCH   1  16
TORSDOF 7
ENDMDL
