MODEL 1
REMARK VINA RESULT:      -7.4      0.000      0.000
REMARK  Name = 
REMARK  3 active torsions:
REMARK  status: ('A' for Active; 'I' for Inactive)
REMARK    1  A    between atoms: C_1  and  N_2
REMARK    2  A    between atoms: C_10  and  C_11
REMARK    3  A    between atoms: C_20  and  C_21
REMARK                            x       y       z     vdW  Elec       q    Type
REMARK                         _______ _______ _______ _____ _____    ______ ____
ROOT
ATOM      1  C   UNL     1       1.697   2.609  20.879  0.00  0.00    +0.000 C 
ATOM      2  N   UNL     1       2.032   3.378  19.685  0.00  0.00    +0.000 NA
ATOM      3  C   UNL     1       1.288   2.847  18.538  0.00  0.00    +0.000 C 
ATOM      4  C   UNL     1       2.100   3.200  17.324  0.00  0.00    +0.000 C 
ATOM      5  C   UNL     1       3.533   3.106  17.819  0.00  0.00    +0.000 C 
ATOM      6  C   UNL     1       4.420   3.926  16.935  0.00  0.00    +0.000 A 
ATOM      7  C   UNL     1       4.640   3.584  15.593  0.00  0.00    +0.000 A 
ATOM      8  C   UNL     1       5.478   4.361  14.795  0.00  0.00    +0.000 A 
ATOM      9  C   UNL     1       6.216   5.397  15.369  0.00  0.00    +0.000 A 
ATOM     10  C   UNL     1       6.037   5.743  16.718  0.00  0.00    +0.000 A 
ATOM     11  C   UNL     1       5.009   5.081  17.423  0.00  0.00    +0.000 A 
ATOM     12  O   UNL     1       4.482   5.737  18.497  0.00  0.00    +0.000 OA
ATOM     13  C   UNL     1       3.959   4.971  19.569  0.00  0.00    +0.000 C 
ATOM     14  C   UNL     1       3.482   3.509  19.318  0.00  0.00    +0.000 C 
ATOM     15  C   UNL     1       4.426   2.636  20.186  0.00  0.00    +0.000 C 
ENDROOT
BRANCH  10  16
ATOM     16  C   UNL     1       6.983   6.637  17.430  0.00  0.00    +0.000 A 
ATOM     17  C   UNL     1       7.742   6.212  18.531  0.00  0.00    +0.000 A 
ATOM     18  C   UNL     1       8.552   7.120  19.223  0.00  0.00    +0.000 A 
ATOM     19  C   UNL     1       8.630   8.459  18.831  0.00  0.00    +0.000 A 
ATOM     20  C   UNL     1       7.890   8.896  17.738  0.00  0.00    +0.000 A 
ATOM     21  C   UNL     1       7.073   7.993  17.060  0.00  0.00    +0.000 A 
ENDBRANCH  10  16
TORSDOF 1
ENDMDL
MODEL 2
REMARK VINA RESULT:      -7.3      0.109      1.056
REMARK  Name = 
REMARK  3 active torsions:
REMARK  status: ('A' for Active; 'I' for Inactive)
REMARK    1  A    between atoms: C_1  and  N_2
REMARK    2  A    between atoms: C_10  and  C_11
REMARK    3  A    between atoms: C_20  and  C_21
REMARK                            x       y       z     vdW  Elec       q    Type
REMARK                         _______ _______ _______ _____ _____    ______ ____
ROOT
ATOM      1  C   UNL     1       1.674   2.538  20.932  0.00  0.00    +0.000 C 
ATOM      2  N   UNL     1       1.998   3.293  19.725  0.00  0.00    +0.000 NA
ATOM      3  C   UNL     1       1.303   2.698  18.578  0.00  0.00    +0.000 C 
ATOM      4  C   UNL     1       2.123   3.060  17.371  0.00  0.00    +0.000 C 
ATOM      5  C   UNL     1       3.547   3.047  17.896  0.00  0.00    +0.000 C 
ATOM      6  C   UNL     1       4.414   3.886  17.009  0.00  0.00    +0.000 A 
ATOM      7  C   UNL     1       4.677   3.522  15.681  0.00  0.00    +0.000 A 
ATOM      8  C   UNL     1       5.493   4.319  14.880  0.00  0.00    +0.000 A 
ATOM      9  C   UNL     1       6.169   5.402  15.442  0.00  0.00    +0.000 A 
ATOM     10  C   UNL     1       5.946   5.773  16.777  0.00  0.00    +0.000 A 
ATOM     11  C   UNL     1       4.936   5.080  17.479  0.00  0.00    +0.000 A 
ATOM     12  O   UNL     1       4.357   5.736  18.525  0.00  0.00    +0.000 OA
ATOM     13  C   UNL     1       3.848   4.973  19.606  0.00  0.00    +0.000 C 
ATOM     14  C   UNL     1       3.447   3.484  19.383  0.00  0.00    +0.000 C 
ATOM     15  C   UNL     1       4.413   2.679  20.292  0.00  0.00    +0.000 C 
ENDROOT
BRANCH  10  16
ATOM     16  C   UNL     1       6.834   6.728  17.485  0.00  0.00    +0.000 A 
ATOM     17  C   UNL     1       6.982   8.064  17.081  0.00  0.00    +0.000 A 
ATOM     18  C   UNL     1       7.901   8.899  17.728  0.00  0.00    +0.000 A 
ATOM     19  C   UNL     1       8.678   8.428  18.789  0.00  0.00    +0.000 A 
ATOM     20  C   UNL     1       8.541   7.109  19.206  0.00  0.00    +0.000 A 
ATOM     21  C   UNL     1       7.635   6.276  18.551  0.00  0.00    +0.000 A 
ENDBRANCH  10  16
TORSDOF 1
ENDMDL
MODEL 3
REMARK VINA RESULT:      -7.2      1.707      3.962
REMARK  Name = 
REMARK  3 active torsions:
REMARK  status: ('A' for Active; 'I' for Inactive)
REMARK    1  A    between atoms: C_1  and  N_2
REMARK    2  A    between atoms: C_10  and  C_11
REMARK    3  A    between atoms: C_20  and  C_21
REMARK                            x       y       z     vdW  Elec       q    Type
REMARK                         _______ _______ _______ _____ _____    ______ ____
ROOT
ATOM      1  C   UNL     1       0.600   2.598  19.212  0.00  0.00    +0.000 C 
ATOM      2  N   UNL     1       2.057   2.619  19.145  0.00  0.00    +0.000 NA
ATOM      3  C   UNL     1       2.606   2.723  20.502  0.00  0.00    +0.000 C 
ATOM      4  C   UNL     1       3.957   3.362  20.349  0.00  0.00    +0.000 C 
ATOM      5  C   UNL     1       3.765   4.319  19.185  0.00  0.00    +0.000 C 
ATOM      6  C   UNL     1       5.093   4.622  18.564  0.00  0.00    +0.000 A 
ATOM      7  C   UNL     1       6.084   5.332  19.257  0.00  0.00    +0.000 A 
ATOM      8  C   UNL     1       7.309   5.607  18.651  0.00  0.00    +0.000 A 
ATOM      9  C   UNL     1       7.497   5.304  17.302  0.00  0.00    +0.000 A 
ATOM     10  C   UNL     1       6.511   4.619  16.576  0.00  0.00    +0.000 A 
ATOM     11  C   UNL     1       5.387   4.155  17.293  0.00  0.00    +0.000 A 
ATOM     12  O   UNL     1       4.723   3.085  16.768  0.00  0.00    +0.000 OA
ATOM     13  C   UNL     1       3.334   2.958  17.019  0.00  0.00    +0.000 C 
ATOM     14  C   UNL     1       2.706   3.650  18.267  0.00  0.00    +0.000 C 
ATOM     15  C   UNL     1       1.709   4.683  17.680  0.00  0.00    +0.000 C 
ENDROOT
BRANCH  10  16
ATOM     16  C   UNL     1       6.550   4.523  15.095  0.00  0.00    +0.000 A 
ATOM     17  C   UNL     1       5.677   3.702  14.367  0.00  0.00    +0.000 A 
ATOM     18  C   UNL     1       5.816   3.580  12.979  0.00  0.00    +0.000 A 
ATOM     19  C   UNL     1       6.814   4.275  12.291  0.00  0.00    +0.000 A 
ATOM     20  C   UNL     1       7.684   5.099  12.996  0.00  0.00    +0.000 A 
ATOM     21  C   UNL     1       7.553   5.208  14.380  0.00  0.00    +0.000 A 
ENDBRANCH  10  16
TORSDOF 1
ENDMDL
MODEL 4
REMARK VINA RESULT:      -6.8      1.675      3.989
REMARK  Name = 
REMARK  3 active torsions:
REMARK  status: ('A' for Active; 'I' for Inactive)
REMARK    1  A    between atoms: C_1  and  N_2
REMARK    2  A    between atoms: C_10  and  C_11
REMARK    3  A    between atoms: C_20  and  C_21
REMARK                            x       y       z     vdW  Elec       q    Type
REMARK                         _______ _______ _______ _____ _____    ______ ____
ROOT
ATOM      1  C   UNL     1       0.614   2.508  19.236  0.00  0.00    +0.000 C 
ATOM      2  N   UNL     1       2.071   2.577  19.210  0.00  0.00    +0.000 NA
ATOM      3  C   UNL     1       2.574   2.756  20.577  0.00  0.00    +0.000 C 
ATOM      4  C   UNL     1       3.908   3.436  20.436  0.00  0.00    +0.000 C 
ATOM      5  C   UNL     1       3.719   4.336  19.228  0.00  0.00    +0.000 C 
ATOM      6  C   UNL     1       5.054   4.660  18.633  0.00  0.00    +0.000 A 
ATOM      7  C   UNL     1       5.999   5.432  19.324  0.00  0.00    +0.000 A 
ATOM      8  C   UNL     1       7.231   5.725  18.742  0.00  0.00    +0.000 A 
ATOM      9  C   UNL     1       7.470   5.374  17.413  0.00  0.00    +0.000 A 
ATOM     10  C   UNL     1       6.530   4.625  16.689  0.00  0.00    +0.000 A 
ATOM     11  C   UNL     1       5.401   4.152  17.392  0.00  0.00    +0.000 A 
ATOM     12  O   UNL     1       4.790   3.039  16.893  0.00  0.00    +0.000 OA
ATOM     13  C   UNL     1       3.399   2.874  17.110  0.00  0.00    +0.000 C 
ATOM     14  C   UNL     1       2.710   3.594  18.309  0.00  0.00    +0.000 C 
ATOM     15  C   UNL     1       1.698   4.567  17.651  0.00  0.00    +0.000 C 
ENDROOT
BRANCH  10  16
ATOM     16  C   UNL     1       6.617   4.470  15.215  0.00  0.00    +0.000 A 
ATOM     17  C   UNL     1       7.599   5.110  14.445  0.00  0.00    +0.000 A 
ATOM     18  C   UNL     1       7.583   5.003  13.048  0.00  0.00    +0.000 A 
ATOM     19  C   UNL     1       6.600   4.254  12.396  0.00  0.00    +0.000 A 
ATOM     20  C   UNL     1       5.623   3.607  13.144  0.00  0.00    +0.000 A 
ATOM     21  C   UNL     1       5.633   3.727  14.533  0.00  0.00    +0.000 A 
ENDBRANCH  10  16
TORSDOF 1
ENDMDL
MODEL 5
REMARK VINA RESULT:      -6.8      2.220      3.707
REMARK  Name = 
REMARK  3 active torsions:
REMARK  status: ('A' for Active; 'I' for Inactive)
REMARK    1  A    between atoms: C_1  and  N_2
REMARK    2  A    between atoms: C_10  and  C_11
REMARK    3  A    between atoms: C_20  and  C_21
REMARK                            x       y       z     vdW  Elec       q    Type
REMARK                         _______ _______ _______ _____ _____    ______ ____
ROOT
ATOM      1  C   UNL     1       1.800   1.722  21.077  0.00  0.00    +0.000 C 
ATOM      2  N   UNL     1       2.558   2.920  20.735  0.00  0.00    +0.000 NA
ATOM      3  C   UNL     1       2.097   4.041  21.562  0.00  0.00    +0.000 C 
ATOM      4  C   UNL     1       2.406   5.284  20.775  0.00  0.00    +0.000 C 
ATOM      5  C   UNL     1       2.202   4.849  19.334  0.00  0.00    +0.000 C 
ATOM      6  C   UNL     1       2.967   5.760  18.426  0.00  0.00    +0.000 A 
ATOM      7  C   UNL     1       2.627   7.114  18.285  0.00  0.00    +0.000 A 
ATOM      8  C   UNL     1       3.352   7.937  17.426  0.00  0.00    +0.000 A 
ATOM      9  C   UNL     1       4.324   7.384  16.592  0.00  0.00    +0.000 A 
ATOM     10  C   UNL     1       4.665   6.026  16.691  0.00  0.00    +0.000 A 
ATOM     11  C   UNL     1       4.071   5.285  17.736  0.00  0.00    +0.000 A 
ATOM     12  O   UNL     1       4.749   4.184  18.170  0.00  0.00    +0.000 OA
ATOM     13  C   UNL     1       4.010   3.099  18.704  0.00  0.00    +0.000 C 
ATOM     14  C   UNL     1       2.588   3.345  19.295  0.00  0.00    +0.000 C 
ATOM     15  C   UNL     1       1.639   2.525  18.384  0.00  0.00    +0.000 C 
ENDROOT
BRANCH  10  16
ATOM     16  C   UNL     1       5.480   5.343  15.655  0.00  0.00    +0.000 A 
ATOM     17  C   UNL     1       6.857   5.566  15.508  0.00  0.00    +0.000 A 
ATOM     18  C   UNL     1       7.561   4.965  14.457  0.00  0.00    +0.000 A 
ATOM     19  C   UNL     1       6.915   4.130  13.542  0.00  0.00    +0.000 A 
ATOM     20  C   UNL     1       5.551   3.894  13.676  0.00  0.00    +0.000 A 
ATOM     21  C   UNL     1       4.850   4.504  14.715  0.00  0.00    +0.000 A 
ENDBRANCH  10  16
TORSDOF 1
ENDMDL
MODEL 6
REMARK VINA RESULT:      -6.6      2.116      3.663
REMARK  Name = 
REMARK  3 active torsions:
REMARK  status: ('A' for Active; 'I' for Inactive)
REMARK    1  A    between atoms: C_1  and  N_2
REMARK    2  A    between atoms: C_10  and  C_11
REMARK    3  A    between atoms: C_20  and  C_21
REMARK                            x       y       z     vdW  Elec       q    Type
REMARK                         _______ _______ _______ _____ _____    ______ ____
ROOT
ATOM      1  C   UNL     1       1.961   1.577  21.180  0.00  0.00    +0.000 C 
ATOM      2  N   UNL     1       2.646   2.825  20.858  0.00  0.00    +0.000 NA
ATOM      3  C   UNL     1       2.127   3.900  21.712  0.00  0.00    +0.000 C 
ATOM      4  C   UNL     1       2.358   5.174  20.950  0.00  0.00    +0.000 C 
ATOM      5  C   UNL     1       2.168   4.759  19.502  0.00  0.00    +0.000 C 
ATOM      6  C   UNL     1       2.872   5.731  18.607  0.00  0.00    +0.000 A 
ATOM      7  C   UNL     1       2.454   7.065  18.498  0.00  0.00    +0.000 A 
ATOM      8  C   UNL     1       3.123   7.948  17.651  0.00  0.00    +0.000 A 
ATOM      9  C   UNL     1       4.119   7.468  16.800  0.00  0.00    +0.000 A 
ATOM     10  C   UNL     1       4.538   6.131  16.868  0.00  0.00    +0.000 A 
ATOM     11  C   UNL     1       3.996   5.336  17.900  0.00  0.00    +0.000 A 
ATOM     12  O   UNL     1       4.740   4.267  18.306  0.00  0.00    +0.000 OA
ATOM     13  C   UNL     1       4.068   3.130  18.822  0.00  0.00    +0.000 C 
ATOM     14  C   UNL     1       2.640   3.281  19.428  0.00  0.00    +0.000 C 
ATOM     15  C   UNL     1       1.733   2.426  18.505  0.00  0.00    +0.000 C 
ENDROOT
BRANCH  10  16
ATOM     16  C   UNL     1       5.382   5.519  15.812  0.00  0.00    +0.000 A 
ATOM     17  C   UNL     1       4.856   4.693  14.807  0.00  0.00    +0.000 A 
ATOM     18  C   UNL     1       5.709   4.068  13.888  0.00  0.00    +0.000 A 
ATOM     19  C   UNL     1       7.092   4.259  13.944  0.00  0.00    +0.000 A 
ATOM     20  C   UNL     1       7.630   5.079  14.930  0.00  0.00    +0.000 A 
ATOM     21  C   UNL     1       6.780   5.689  15.852  0.00  0.00    +0.000 A 
ENDBRANCH  10  16
TORSDOF 1
ENDMDL
MODEL 7
REMARK VINA RESULT:      -6.6      4.543      6.859
REMARK  Name = 
REMARK  3 active torsions:
REMARK  status: ('A' for Active; 'I' for Inactive)
REMARK    1  A    between atoms: C_1  and  N_2
REMARK    2  A    between atoms: C_10  and  C_11
REMARK    3  A    between atoms: C_20  and  C_21
REMARK                            x       y       z     vdW  Elec       q    Type
REMARK                         _______ _______ _______ _____ _____    ______ ____
ROOT
ATOM      1  C   UNL     1      -0.698  12.003  19.736  0.00  0.00    +0.000 C 
ATOM      2  N   UNL     1       0.531  11.218  19.690  0.00  0.00    +0.000 NA
ATOM      3  C   UNL     1       1.549  11.953  18.931  0.00  0.00    +0.000 C 
ATOM      4  C   UNL     1       2.485  10.910  18.387  0.00  0.00    +0.000 C 
ATOM      5  C   UNL     1       1.572   9.729  18.107  0.00  0.00    +0.000 C 
ATOM      6  C   UNL     1       2.380   8.469  18.081  0.00  0.00    +0.000 A 
ATOM      7  C   UNL     1       3.341   8.232  17.087  0.00  0.00    +0.000 A 
ATOM      8  C   UNL     1       4.073   7.046  17.083  0.00  0.00    +0.000 A 
ATOM      9  C   UNL     1       3.750   6.030  17.983  0.00  0.00    +0.000 A 
ATOM     10  C   UNL     1       2.773   6.229  18.970  0.00  0.00    +0.000 A 
ATOM     11  C   UNL     1       2.225   7.525  19.084  0.00  0.00    +0.000 A 
ATOM     12  O   UNL     1       1.715   7.872  20.300  0.00  0.00    +0.000 OA
ATOM     13  C   UNL     1       0.651   8.807  20.349  0.00  0.00    +0.000 C 
ATOM     14  C   UNL     1       0.447   9.811  19.174  0.00  0.00    +0.000 C 
ATOM     15  C   UNL     1      -0.941   9.445  18.586  0.00  0.00    +0.000 C 
ENDROOT
BRANCH  10  16
ATOM     16  C   UNL     1       2.209   5.103  19.756  0.00  0.00    +0.000 A 
ATOM     17  C   UNL     1       2.621   4.815  21.066  0.00  0.00    +0.000 A 
ATOM     18  C   UNL     1       2.123   3.687  21.730  0.00  0.00    +0.000 A 
ATOM     19  C   UNL     1       1.204   2.835  21.111  0.00  0.00    +0.000 A 
ATOM     20  C   UNL     1       0.781   3.109  19.815  0.00  0.00    +0.000 A 
ATOM     21  C   UNL     1       1.289   4.224  19.152  0.00  0.00    +0.000 A 
ENDBRANCH  10  16
TORSDOF 1
ENDMDL
MODEL 8
REMARK VINA RESULT:      -6.5      1.633      4.269
REMARK  Name = 
REMARK  3 active torsions:
REMARK  status: ('A' for Active; 'I' for Inactive)
REMARK    1  A    between atoms: C_1  and  N_2
REMARK    2  A    between atoms: C_10  and  C_11
REMARK    3  A    between atoms: C_20  and  C_21
REMARK                            x       y       z     vdW  Elec       q    Type
REMARK                         _______ _______ _______ _____ _____    ______ ____
ROOT
ATOM      1  C   UNL     1       1.093   2.679  19.749  0.00  0.00    +0.000 C 
ATOM      2  N   UNL     1       2.462   3.110  19.484  0.00  0.00    +0.000 NA
ATOM      3  C   UNL     1       2.951   3.901  20.618  0.00  0.00    +0.000 C 
ATOM      4  C   UNL     1       4.015   4.804  20.059  0.00  0.00    +0.000 C 
ATOM      5  C   UNL     1       3.512   5.117  18.661  0.00  0.00    +0.000 C 
ATOM      6  C   UNL     1       4.663   5.536  17.799  0.00  0.00    +0.000 A 
ATOM      7  C   UNL     1       5.367   6.725  18.040  0.00  0.00    +0.000 A 
ATOM      8  C   UNL     1       6.429   7.094  17.216  0.00  0.00    +0.000 A 
ATOM      9  C   UNL     1       6.701   6.356  16.064  0.00  0.00    +0.000 A 
ATOM     10  C   UNL     1       5.993   5.177  15.783  0.00  0.00    +0.000 A 
ATOM     11  C   UNL     1       5.089   4.718  16.765  0.00  0.00    +0.000 A 
ATOM     12  O   UNL     1       4.813   3.382  16.768  0.00  0.00    +0.000 OA
ATOM     13  C   UNL     1       3.545   2.952  17.233  0.00  0.00    +0.000 C 
ATOM     14  C   UNL     1       2.729   3.855  18.208  0.00  0.00    +0.000 C 
ATOM     15  C   UNL     1       1.445   4.219  17.418  0.00  0.00    +0.000 C 
ENDROOT
BRANCH  10  16
ATOM     16  C   UNL     1       6.055   4.522  14.453  0.00  0.00    +0.000 A 
ATOM     17  C   UNL     1       7.215   4.523  13.664  0.00  0.00    +0.000 A 
ATOM     18  C   UNL     1       7.194   3.969  12.377  0.00  0.00    +0.000 A 
ATOM     19  C   UNL     1       6.028   3.399  11.859  0.00  0.00    +0.000 A 
ATOM     20  C   UNL     1       4.871   3.384  12.630  0.00  0.00    +0.000 A 
ATOM     21  C   UNL     1       4.891   3.949  13.904  0.00  0.00    +0.000 A 
ENDBRANCH  10  16
TORSDOF 1
ENDMDL
MODEL 9
REMARK VINA RESULT:      -6.2     11.580     13.228
REMARK  Name = 
REMARK  3 active torsions:
REMARK  status: ('A' for Active; 'I' for Inactive)
REMARK    1  A    between atoms: C_1  and  N_2
REMARK    2  A    between atoms: C_10  and  C_11
REMARK    3  A    between atoms: C_20  and  C_21
REMARK                            x       y       z     vdW  Elec       q    Type
REMARK                         _______ _______ _______ _____ _____    ______ ____
ROOT
ATOM      1  C   UNL     1      -3.185  15.075  24.214  0.00  0.00    +0.000 C 
ATOM      2  N   UNL     1      -4.110  14.821  23.114  0.00  0.00    +0.000 NA
ATOM      3  C   UNL     1      -5.486  15.041  23.576  0.00  0.00    +0.000 C 
ATOM      4  C   UNL     1      -6.355  14.193  22.689  0.00  0.00    +0.000 C 
ATOM      5  C   UNL     1      -5.491  12.976  22.409  0.00  0.00    +0.000 C 
ATOM      6  C   UNL     1      -5.958  12.312  21.151  0.00  0.00    +0.000 A 
ATOM      7  C   UNL     1      -7.216  11.699  21.067  0.00  0.00    +0.000 A 
ATOM      8  C   UNL     1      -7.622  11.081  19.885  0.00  0.00    +0.000 A 
ATOM      9  C   UNL     1      -6.719  10.943  18.831  0.00  0.00    +0.000 A 
ATOM     10  C   UNL     1      -5.443  11.522  18.899  0.00  0.00    +0.000 A 
ATOM     11  C   UNL     1      -5.162  12.336  20.017  0.00  0.00    +0.000 A 
ATOM     12  O   UNL     1      -4.200  13.289  19.856  0.00  0.00    +0.000 OA
ATOM     13  C   UNL     1      -3.443  13.688  20.986  0.00  0.00    +0.000 C 
ATOM     14  C   UNL     1      -4.027  13.494  22.418  0.00  0.00    +0.000 C 
ATOM     15  C   UNL     1      -3.059  12.492  23.101  0.00  0.00    +0.000 C 
ENDROOT
BRANCH  10  16
ATOM     16  C   UNL     1      -4.369  11.171  17.936  0.00  0.00    +0.000 A 
ATOM     17  C   UNL     1      -4.479  11.416  16.559  0.00  0.00    +0.000 A 
ATOM     18  C   UNL     1      -3.476  10.984  15.682  0.00  0.00    +0.000 A 
ATOM     19  C   UNL     1      -2.347  10.312  16.157  0.00  0.00    +0.000 A 
ATOM     20  C   UNL     1      -2.219  10.065  17.519  0.00  0.00    +0.000 A 
ATOM     21  C   UNL     1      -3.225  10.484  18.388  0.00  0.00    +0.000 A 
ENDBRANCH  10  16
TORSDOF 1
ENDMDL
