MODEL 1
REMARK VINA RESULT:      -7.8      0.000      0.000
REMARK  Name = 
REMARK  12 active torsions:
REMARK  status: ('A' for Active; 'I' for Inactive)
REMARK    1  A    between atoms: C_1  and  N_2
REMARK    2  A    between atoms: C_3  and  O_5
REMARK    3  A    between atoms: O_5  and  C_6
REMARK    4  A    between atoms: C_10  and  C_11
REMARK    5  A    between atoms: C_11  and  N_12
REMARK    6  A    between atoms: N_12  and  C_13
REMARK    7  A    between atoms: N_12  and  C_14
REMARK    8  A    between atoms: C_14  and  C_15
REMARK    9  A    between atoms: C_15  and  C_16
REMARK   10  A    between atoms: C_16  and  O_17
REMARK   11  A    between atoms: O_17  and  C_18
REMARK   12  A    between atoms: C_21  and  C_22
REMARK                            x       y       z     vdW  Elec       q    Type
REMARK                         _______ _______ _______ _____ _____    ______ ____
ROOT
ATOM      1  C   UNL     1       9.329  10.369  18.074  0.00  0.00    +0.000 C 
ENDROOT
BRANCH   1   2
ATOM      2  N   UNL     1       9.049  11.623  18.796  0.00  0.00    +0.000 NA
ATOM      3  C   UNL     1       8.787  12.691  17.827  0.00  0.00    +0.000 C 
BRANCH   2   4
ATOM      4  C   UNL     1      10.141  11.975  19.728  0.00  0.00    +0.000 C 
BRANCH   4   9
ATOM      5  C   UNL     1       8.489  11.960  23.160  0.00  0.00    +0.000 A 
ATOM      6  C   UNL     1       8.573  13.306  23.519  0.00  0.00    +0.000 A 
ATOM      7  C   UNL     1       9.226  14.208  22.679  0.00  0.00    +0.000 A 
ATOM      8  C   UNL     1       9.763  13.771  21.468  0.00  0.00    +0.000 A 
ATOM      9  C   UNL     1       9.644  12.427  21.084  0.00  0.00    +0.000 A 
ATOM     10  C   UNL     1       9.022  11.516  21.953  0.00  0.00    +0.000 A 
BRANCH   5  11
ATOM     11  O   UNL     1       7.731  11.133  24.014  0.00  0.00    +0.000 OA
BRANCH  11  14
ATOM     12  C   UNL     1       5.243  11.848  26.541  0.00  0.00    +0.000 C 
ATOM     13  N   UNL     1       6.420  11.461  25.816  0.00  0.00    +0.000 N 
ATOM     14  C   UNL     1       6.467  11.514  24.449  0.00  0.00    +0.000 C 
ATOM     15  O   UNL     1       5.527  11.848  23.740  0.00  0.00    +0.000 OA
ATOM     16  H   UNL     1       7.278  11.232  26.298  0.00  0.00    +0.000 HD
ENDBRANCH  11  14
ENDBRANCH   5  11
ENDBRANCH   4   9
ENDBRANCH   2   4
ENDBRANCH   1   2
BRANCH   1  17
ATOM     17  C   UNL     1       8.520   9.169  18.568  0.00  0.00    +0.000 C 
BRANCH  17  18
ATOM     18  C   UNL     1       7.706   8.532  17.450  0.00  0.00    +0.000 C 
BRANCH  18  19
ATOM     19  O   UNL     1       7.798   7.119  17.609  0.00  0.00    +0.000 OA
BRANCH  19  20
ATOM     20  C   UNL     1       6.612   6.489  17.855  0.00  0.00    +0.000 A 
ATOM     21  C   UNL     1       6.644   5.569  18.897  0.00  0.00    +0.000 A 
ATOM     22  C   UNL     1       5.498   4.846  19.236  0.00  0.00    +0.000 A 
ATOM     23  C   UNL     1       4.278   5.047  18.561  0.00  0.00    +0.000 A 
ATOM     24  C   UNL     1       4.264   6.007  17.536  0.00  0.00    +0.000 A 
ATOM     25  C   UNL     1       5.416   6.719  17.181  0.00  0.00    +0.000 A 
BRANCH  23  26
ATOM     26  C   UNL     1       3.064   4.281  18.922  0.00  0.00    +0.000 A 
ATOM     27  C   UNL     1       2.369   4.539  20.117  0.00  0.00    +0.000 A 
ATOM     28  C   UNL     1       1.241   3.798  20.479  0.00  0.00    +0.000 A 
ATOM     29  C   UNL     1       0.769   2.794  19.641  0.00  0.00    +0.000 A 
ATOM     30  C   UNL     1       1.427   2.529  18.444  0.00  0.00    +0.000 A 
ATOM     31  C   UNL     1       2.565   3.261  18.092  0.00  0.00    +0.000 A 
ENDBRANCH  23  26
ENDBRANCH  19  20
ENDBRANCH  18  19
ENDBRANCH  17  18
ENDBRANCH   1  17
TORSDOF 10
ENDMDL
MODEL 2
REMARK VINA RESULT:      -7.7      5.739      9.412
REMARK  Name = 
REMARK  12 active torsions:
REMARK  status: ('A' for Active; 'I' for Inactive)
REMARK    1  A    between atoms: C_1  and  N_2
REMARK    2  A    between atoms: C_3  and  O_5
REMARK    3  A    between atoms: O_5  and  C_6
REMARK    4  A    between atoms: C_10  and  C_11
REMARK    5  A    between atoms: C_11  and  N_12
REMARK    6  A    between atoms: N_12  and  C_13
REMARK    7  A    between atoms: N_12  and  C_14
REMARK    8  A    between atoms: C_14  and  C_15
REMARK    9  A    between atoms: C_15  and  C_16
REMARK   10  A    between atoms: C_16  and  O_17
REMARK   11  A    between atoms: O_17  and  C_18
REMARK   12  A    between atoms: C_21  and  C_22
REMARK                            x       y       z     vdW  Elec       q    Type
REMARK                         _______ _______ _______ _____ _____    ______ ____
ROOT
ATOM      1  C   UNL     1       2.440   3.472  18.908  0.00  0.00    +0.000 C 
ENDROOT
BRANCH   1   2
ATOM      2  N   UNL     1       3.734   2.933  18.453  0.00  0.00    +0.000 NA
ATOM      3  C   UNL     1       3.664   1.469  18.416  0.00  0.00    +0.000 C 
BRANCH   2   4
ATOM      4  C   UNL     1       4.853   3.414  19.291  0.00  0.00    +0.000 C 
BRANCH   4   9
ATOM      5  C   UNL     1       6.255   5.779  16.655  0.00  0.00    +0.000 A 
ATOM      6  C   UNL     1       7.310   6.377  17.345  0.00  0.00    +0.000 A 
ATOM      7  C   UNL     1       7.525   6.065  18.688  0.00  0.00    +0.000 A 
ATOM      8  C   UNL     1       6.709   5.130  19.327  0.00  0.00    +0.000 A 
ATOM      9  C   UNL     1       5.674   4.496  18.625  0.00  0.00    +0.000 A 
ATOM     10  C   UNL     1       5.436   4.845  17.285  0.00  0.00    +0.000 A 
BRANCH   5  11
ATOM     11  O   UNL     1       6.163   6.073  15.278  0.00  0.00    +0.000 OA
BRANCH  11  14
ATOM     12  C   UNL     1       6.167   3.358  12.888  0.00  0.00    +0.000 C 
ATOM     13  N   UNL     1       5.843   4.316  13.907  0.00  0.00    +0.000 N 
ATOM     14  C   UNL     1       6.752   5.250  14.326  0.00  0.00    +0.000 C 
ATOM     15  O   UNL     1       7.902   5.326  13.912  0.00  0.00    +0.000 OA
ATOM     16  H   UNL     1       4.904   4.389  14.273  0.00  0.00    +0.000 HD
ENDBRANCH  11  14
ENDBRANCH   5  11
ENDBRANCH   4   9
ENDBRANCH   2   4
ENDBRANCH   1   2
BRANCH   1  17
ATOM     17  C   UNL     1       1.687   4.272  17.845  0.00  0.00    +0.000 C 
BRANCH  17  18
ATOM     18  C   UNL     1       2.057   5.749  17.875  0.00  0.00    +0.000 C 
BRANCH  18  19
ATOM     19  O   UNL     1       2.558   6.034  19.179  0.00  0.00    +0.000 OA
BRANCH  19  20
ATOM     20  C   UNL     1       1.983   7.109  19.794  0.00  0.00    +0.000 A 
ATOM     21  C   UNL     1       1.936   8.267  19.025  0.00  0.00    +0.000 A 
ATOM     22  C   UNL     1       1.387   9.440  19.547  0.00  0.00    +0.000 A 
ATOM     23  C   UNL     1       0.840   9.478  20.844  0.00  0.00    +0.000 A 
ATOM     24  C   UNL     1       0.868   8.287  21.587  0.00  0.00    +0.000 A 
ATOM     25  C   UNL     1       1.435   7.115  21.073  0.00  0.00    +0.000 A 
BRANCH  23  26
ATOM     26  C   UNL     1       0.257  10.722  21.396  0.00  0.00    +0.000 A 
ATOM     27  C   UNL     1      -0.708  10.684  22.418  0.00  0.00    +0.000 A 
ATOM     28  C   UNL     1      -1.286  11.853  22.921  0.00  0.00    +0.000 A 
ATOM     29  C   UNL     1      -0.893  13.091  22.426  0.00  0.00    +0.000 A 
ATOM     30  C   UNL     1       0.073  13.161  21.427  0.00  0.00    +0.000 A 
ATOM     31  C   UNL     1       0.637  11.988  20.915  0.00  0.00    +0.000 A 
ENDBRANCH  23  26
ENDBRANCH  19  20
ENDBRANCH  18  19
ENDBRANCH  17  18
ENDBRANCH   1  17
TORSDOF 10
ENDMDL
MODEL 3
REMARK VINA RESULT:      -7.6      5.821      9.546
REMARK  Name = 
REMARK  12 active torsions:
REMARK  status: ('A' for Active; 'I' for Inactive)
REMARK    1  A    between atoms: C_1  and  N_2
REMARK    2  A    between atoms: C_3  and  O_5
REMARK    3  A    between atoms: O_5  and  C_6
REMARK    4  A    between atoms: C_10  and  C_11
REMARK    5  A    between atoms: C_11  and  N_12
REMARK    6  A    between atoms: N_12  and  C_13
REMARK    7  A    between atoms: N_12  and  C_14
REMARK    8  A    between atoms: C_14  and  C_15
REMARK    9  A    between atoms: C_15  and  C_16
REMARK   10  A    between atoms: C_16  and  O_17
REMARK   11  A    between atoms: O_17  and  C_18
REMARK   12  A    between atoms: C_21  and  C_22
REMARK                            x       y       z     vdW  Elec       q    Type
REMARK                         _______ _______ _______ _____ _____    ______ ____
ROOT
ATOM      1  C   UNL     1       2.642   2.871  20.541  0.00  0.00    +0.000 C 
ENDROOT
BRANCH   1   2
ATOM      2  N   UNL     1       3.429   2.980  19.300  0.00  0.00    +0.000 NA
ATOM      3  C   UNL     1       3.218   1.779  18.485  0.00  0.00    +0.000 C 
BRANCH   2   4
ATOM      4  C   UNL     1       4.861   3.217  19.578  0.00  0.00    +0.000 C 
BRANCH   4   9
ATOM      5  C   UNL     1       5.720   5.453  16.616  0.00  0.00    +0.000 A 
ATOM      6  C   UNL     1       6.678   6.302  17.173  0.00  0.00    +0.000 A 
ATOM      7  C   UNL     1       6.996   6.196  18.527  0.00  0.00    +0.000 A 
ATOM      8  C   UNL     1       6.384   5.219  19.313  0.00  0.00    +0.000 A 
ATOM      9  C   UNL     1       5.452   4.336  18.748  0.00  0.00    +0.000 A 
ATOM     10  C   UNL     1       5.105   4.476  17.394  0.00  0.00    +0.000 A 
BRANCH   5  11
ATOM     11  O   UNL     1       5.526   5.559  15.224  0.00  0.00    +0.000 OA
BRANCH  11  14
ATOM     12  C   UNL     1       6.397   3.334  12.508  0.00  0.00    +0.000 C 
ATOM     13  N   UNL     1       5.738   4.063  13.554  0.00  0.00    +0.000 N 
ATOM     14  C   UNL     1       6.410   4.971  14.327  0.00  0.00    +0.000 C 
ATOM     15  O   UNL     1       7.607   5.209  14.226  0.00  0.00    +0.000 OA
ATOM     16  H   UNL     1       4.738   3.996  13.685  0.00  0.00    +0.000 HD
ENDBRANCH  11  14
ENDBRANCH   5  11
ENDBRANCH   4   9
ENDBRANCH   2   4
ENDBRANCH   1   2
BRANCH   1  17
ATOM     17  C   UNL     1       1.560   3.941  20.692  0.00  0.00    +0.000 C 
BRANCH  17  18
ATOM     18  C   UNL     1       2.150   5.343  20.748  0.00  0.00    +0.000 C 
BRANCH  18  19
ATOM     19  O   UNL     1       2.358   5.771  19.405  0.00  0.00    +0.000 OA
BRANCH  19  20
ATOM     20  C   UNL     1       2.121   7.097  19.180  0.00  0.00    +0.000 A 
ATOM     21  C   UNL     1       1.385   7.736  20.171  0.00  0.00    +0.000 A 
ATOM     22  C   UNL     1       1.063   9.089  20.049  0.00  0.00    +0.000 A 
ATOM     23  C   UNL     1       1.496   9.849  18.945  0.00  0.00    +0.000 A 
ATOM     24  C   UNL     1       2.268   9.188  17.976  0.00  0.00    +0.000 A 
ATOM     25  C   UNL     1       2.576   7.828  18.086  0.00  0.00    +0.000 A 
BRANCH  23  26
ATOM     26  C   UNL     1       1.154  11.284  18.818  0.00  0.00    +0.000 A 
ATOM     27  C   UNL     1       2.122  12.233  18.442  0.00  0.00    +0.000 A 
ATOM     28  C   UNL     1       1.813  13.593  18.351  0.00  0.00    +0.000 A 
ATOM     29  C   UNL     1       0.521  14.033  18.614  0.00  0.00    +0.000 A 
ATOM     30  C   UNL     1      -0.461  13.114  18.970  0.00  0.00    +0.000 A 
ATOM     31  C   UNL     1      -0.146  11.756  19.076  0.00  0.00    +0.000 A 
ENDBRANCH  23  26
ENDBRANCH  19  20
ENDBRANCH  18  19
ENDBRANCH  17  18
ENDBRANCH   1  17
TORSDOF 10
ENDMDL
MODEL 4
REMARK VINA RESULT:      -7.5      6.234     10.780
REMARK  Name = 
REMARK  12 active torsions:
REMARK  status: ('A' for Active; 'I' for Inactive)
REMARK    1  A    between atoms: C_1  and  N_2
REMARK    2  A    between atoms: C_3  and  O_5
REMARK    3  A    between atoms: O_5  and  C_6
REMARK    4  A    between atoms: C_10  and  C_11
REMARK    5  A    between atoms: C_11  and  N_12
REMARK    6  A    between atoms: N_12  and  C_13
REMARK    7  A    between atoms: N_12  and  C_14
REMARK    8  A    between atoms: C_14  and  C_15
REMARK    9  A    between atoms: C_15  and  C_16
REMARK   10  A    between atoms: C_16  and  O_17
REMARK   11  A    between atoms: O_17  and  C_18
REMARK   12  A    between atoms: C_21  and  C_22
REMARK                            x       y       z     vdW  Elec       q    Type
REMARK                         _______ _______ _______ _____ _____    ______ ____
ROOT
ATOM      1  C   UNL     1       2.485   5.193  20.440  0.00  0.00    +0.000 C 
ENDROOT
BRANCH   1   2
ATOM      2  N   UNL     1       2.109   3.925  19.790  0.00  0.00    +0.000 NA
ATOM      3  C   UNL     1       3.124   2.909  20.085  0.00  0.00    +0.000 C 
BRANCH   2   4
ATOM      4  C   UNL     1       1.899   4.095  18.337  0.00  0.00    +0.000 C 
BRANCH   4   9
ATOM      5  C   UNL     1       5.133   4.645  16.401  0.00  0.00    +0.000 A 
ATOM      6  C   UNL     1       5.295   6.027  16.509  0.00  0.00    +0.000 A 
ATOM      7  C   UNL     1       4.320   6.791  17.150  0.00  0.00    +0.000 A 
ATOM      8  C   UNL     1       3.204   6.169  17.713  0.00  0.00    +0.000 A 
ATOM      9  C   UNL     1       3.059   4.776  17.643  0.00  0.00    +0.000 A 
ATOM     10  C   UNL     1       4.023   4.017  16.960  0.00  0.00    +0.000 A 
BRANCH   5  11
ATOM     11  O   UNL     1       6.207   3.934  15.826  0.00  0.00    +0.000 OA
BRANCH  11  14
ATOM     12  C   UNL     1       6.662   3.594  12.253  0.00  0.00    +0.000 C 
ATOM     13  N   UNL     1       6.305   3.428  13.634  0.00  0.00    +0.000 N 
ATOM     14  C   UNL     1       6.736   4.303  14.594  0.00  0.00    +0.000 C 
ATOM     15  O   UNL     1       7.473   5.256  14.377  0.00  0.00    +0.000 OA
ATOM     16  H   UNL     1       5.647   2.716  13.920  0.00  0.00    +0.000 HD
ENDBRANCH  11  14
ENDBRANCH   5  11
ENDBRANCH   4   9
ENDBRANCH   2   4
ENDBRANCH   1   2
BRANCH   1  17
ATOM     17  C   UNL     1       1.321   6.166  20.635  0.00  0.00    +0.000 C 
BRANCH  17  18
ATOM     18  C   UNL     1       1.794   7.531  21.115  0.00  0.00    +0.000 C 
BRANCH  18  19
ATOM     19  O   UNL     1       1.067   8.514  20.383  0.00  0.00    +0.000 OA
BRANCH  19  20
ATOM     20  C   UNL     1       0.350   9.388  21.148  0.00  0.00    +0.000 A 
ATOM     21  C   UNL     1       0.033  10.588  20.523  0.00  0.00    +0.000 A 
ATOM     22  C   UNL     1      -0.685  11.573  21.206  0.00  0.00    +0.000 A 
ATOM     23  C   UNL     1      -1.132  11.369  22.526  0.00  0.00    +0.000 A 
ATOM     24  C   UNL     1      -0.829  10.135  23.123  0.00  0.00    +0.000 A 
ATOM     25  C   UNL     1      -0.094   9.154  22.447  0.00  0.00    +0.000 A 
BRANCH  23  26
ATOM     26  C   UNL     1      -1.893  12.414  23.249  0.00  0.00    +0.000 A 
ATOM     27  C   UNL     1      -3.191  12.167  23.733  0.00  0.00    +0.000 A 
ATOM     28  C   UNL     1      -3.926  13.157  24.388  0.00  0.00    +0.000 A 
ATOM     29  C   UNL     1      -3.371  14.416  24.593  0.00  0.00    +0.000 A 
ATOM     30  C   UNL     1      -2.083  14.683  24.141  0.00  0.00    +0.000 A 
ATOM     31  C   UNL     1      -1.355  13.694  23.472  0.00  0.00    +0.000 A 
ENDBRANCH  23  26
ENDBRANCH  19  20
ENDBRANCH  18  19
ENDBRANCH  17  18
ENDBRANCH   1  17
TORSDOF 10
ENDMDL
MODEL 5
REMARK VINA RESULT:      -7.4      3.156      4.376
REMARK  Name = 
REMARK  12 active torsions:
REMARK  status: ('A' for Active; 'I' for Inactive)
REMARK    1  A    between atoms: C_1  and  N_2
REMARK    2  A    between atoms: C_3  and  O_5
REMARK    3  A    between atoms: O_5  and  C_6
REMARK    4  A    between atoms: C_10  and  C_11
REMARK    5  A    between atoms: C_11  and  N_12
REMARK    6  A    between atoms: N_12  and  C_13
REMARK    7  A    between atoms: N_12  and  C_14
REMARK    8  A    between atoms: C_14  and  C_15
REMARK    9  A    between atoms: C_15  and  C_16
REMARK   10  A    between atoms: C_16  and  O_17
REMARK   11  A    between atoms: O_17  and  C_18
REMARK   12  A    between atoms: C_21  and  C_22
REMARK                            x       y       z     vdW  Elec       q    Type
REMARK                         _______ _______ _______ _____ _____    ______ ____
ROOT
ATOM      1  C   UNL     1       9.289   9.655  19.241  0.00  0.00    +0.000 C 
ENDROOT
BRANCH   1   2
ATOM      2  N   UNL     1       9.612  11.083  19.408  0.00  0.00    +0.000 NA
ATOM      3  C   UNL     1       9.195  11.521  20.744  0.00  0.00    +0.000 C 
BRANCH   2   4
ATOM      4  C   UNL     1       9.012  11.909  18.340  0.00  0.00    +0.000 C 
BRANCH   4   9
ATOM      5  C   UNL     1      10.336  15.477  18.169  0.00  0.00    +0.000 A 
ATOM      6  C   UNL     1      11.300  15.372  17.166  0.00  0.00    +0.000 A 
ATOM      7  C   UNL     1      11.572  14.129  16.592  0.00  0.00    +0.000 A 
ATOM      8  C   UNL     1      10.854  13.002  16.996  0.00  0.00    +0.000 A 
ATOM      9  C   UNL     1       9.854  13.112  17.973  0.00  0.00    +0.000 A 
ATOM     10  C   UNL     1       9.615  14.358  18.577  0.00  0.00    +0.000 A 
BRANCH   5  11
ATOM     11  O   UNL     1      10.053  16.780  18.628  0.00  0.00    +0.000 OA
BRANCH  11  14
ATOM     12  C   UNL     1       7.440  17.776  20.922  0.00  0.00    +0.000 C 
ATOM     13  N   UNL     1       8.660  17.335  20.308  0.00  0.00    +0.000 N 
ATOM     14  C   UNL     1       8.758  17.163  18.954  0.00  0.00    +0.000 C 
ATOM     15  O   UNL     1       7.831  17.326  18.170  0.00  0.00    +0.000 OA
ATOM     16  H   UNL     1       9.508  17.233  20.848  0.00  0.00    +0.000 HD
ENDBRANCH  11  14
ENDBRANCH   5  11
ENDBRANCH   4   9
ENDBRANCH   2   4
ENDBRANCH   1   2
BRANCH   1  17
ATOM     17  C   UNL     1       8.336   9.360  18.082  0.00  0.00    +0.000 C 
BRANCH  17  18
ATOM     18  C   UNL     1       8.083   7.868  17.918  0.00  0.00    +0.000 C 
BRANCH  18  19
ATOM     19  O   UNL     1       7.059   7.716  16.938  0.00  0.00    +0.000 OA
BRANCH  19  20
ATOM     20  C   UNL     1       5.974   6.996  17.347  0.00  0.00    +0.000 A 
ATOM     21  C   UNL     1       6.258   5.958  18.227  0.00  0.00    +0.000 A 
ATOM     22  C   UNL     1       5.235   5.137  18.705  0.00  0.00    +0.000 A 
ATOM     23  C   UNL     1       3.891   5.353  18.340  0.00  0.00    +0.000 A 
ATOM     24  C   UNL     1       3.627   6.430  17.478  0.00  0.00    +0.000 A 
ATOM     25  C   UNL     1       4.653   7.242  16.982  0.00  0.00    +0.000 A 
BRANCH  23  26
ATOM     26  C   UNL     1       2.807   4.483  18.849  0.00  0.00    +0.000 A 
ATOM     27  C   UNL     1       2.306   3.417  18.080  0.00  0.00    +0.000 A 
ATOM     28  C   UNL     1       1.262   2.612  18.541  0.00  0.00    +0.000 A 
ATOM     29  C   UNL     1       0.707   2.842  19.795  0.00  0.00    +0.000 A 
ATOM     30  C   UNL     1       1.194   3.878  20.585  0.00  0.00    +0.000 A 
ATOM     31  C   UNL     1       2.229   4.692  20.114  0.00  0.00    +0.000 A 
ENDBRANCH  23  26
ENDBRANCH  19  20
ENDBRANCH  18  19
ENDBRANCH  17  18
ENDBRANCH   1  17
TORSDOF 10
ENDMDL
MODEL 6
REMARK VINA RESULT:      -7.3      5.942      9.879
REMARK  Name = 
REMARK  12 active torsions:
REMARK  status: ('A' for Active; 'I' for Inactive)
REMARK    1  A    between atoms: C_1  and  N_2
REMARK    2  A    between atoms: C_3  and  O_5
REMARK    3  A    between atoms: O_5  and  C_6
REMARK    4  A    between atoms: C_10  and  C_11
REMARK    5  A    between atoms: C_11  and  N_12
REMARK    6  A    between atoms: N_12  and  C_13
REMARK    7  A    between atoms: N_12  and  C_14
REMARK    8  A    between atoms: C_14  and  C_15
REMARK    9  A    between atoms: C_15  and  C_16
REMARK   10  A    between atoms: C_16  and  O_17
REMARK   11  A    between atoms: O_17  and  C_18
REMARK   12  A    between atoms: C_21  and  C_22
REMARK                            x       y       z     vdW  Elec       q    Type
REMARK                         _______ _______ _______ _____ _____    ______ ____
ROOT
ATOM      1  C   UNL     1       2.197   2.674  19.918  0.00  0.00    +0.000 C 
ENDROOT
BRANCH   1   2
ATOM      2  N   UNL     1       2.952   3.059  18.712  0.00  0.00    +0.000 NA
ATOM      3  C   UNL     1       2.923   1.952  17.750  0.00  0.00    +0.000 C 
BRANCH   2   4
ATOM      4  C   UNL     1       4.332   3.475  19.037  0.00  0.00    +0.000 C 
BRANCH   4   9
ATOM      5  C   UNL     1       6.411   5.080  16.279  0.00  0.00    +0.000 A 
ATOM      6  C   UNL     1       6.046   6.422  16.395  0.00  0.00    +0.000 A 
ATOM      7  C   UNL     1       5.074   6.798  17.322  0.00  0.00    +0.000 A 
ATOM      8  C   UNL     1       4.495   5.839  18.154  0.00  0.00    +0.000 A 
ATOM      9  C   UNL     1       4.890   4.496  18.070  0.00  0.00    +0.000 A 
ATOM     10  C   UNL     1       5.839   4.118  17.106  0.00  0.00    +0.000 A 
BRANCH   5  11
ATOM     11  O   UNL     1       7.468   4.796  15.389  0.00  0.00    +0.000 OA
BRANCH  11  14
ATOM     12  C   UNL     1       6.040   3.374  12.385  0.00  0.00    +0.000 C 
ATOM     13  N   UNL     1       6.460   3.657  13.728  0.00  0.00    +0.000 N 
ATOM     14  C   UNL     1       7.255   4.733  14.017  0.00  0.00    +0.000 C 
ATOM     15  O   UNL     1       7.699   5.507  13.178  0.00  0.00    +0.000 OA
ATOM     16  H   UNL     1       6.101   3.126  14.509  0.00  0.00    +0.000 HD
ENDBRANCH  11  14
ENDBRANCH   5  11
ENDBRANCH   4   9
ENDBRANCH   2   4
ENDBRANCH   1   2
BRANCH   1  17
ATOM     17  C   UNL     1       1.329   3.793  20.496  0.00  0.00    +0.000 C 
BRANCH  17  18
ATOM     18  C   UNL     1       1.826   5.171  20.083  0.00  0.00    +0.000 C 
BRANCH  18  19
ATOM     19  O   UNL     1       1.526   6.068  21.149  0.00  0.00    +0.000 OA
BRANCH  19  20
ATOM     20  C   UNL     1       1.270   7.353  20.765  0.00  0.00    +0.000 A 
ATOM     21  C   UNL     1       1.857   7.732  19.563  0.00  0.00    +0.000 A 
ATOM     22  C   UNL     1       1.683   9.028  19.070  0.00  0.00    +0.000 A 
ATOM     23  C   UNL     1       0.890   9.971  19.752  0.00  0.00    +0.000 A 
ATOM     24  C   UNL     1       0.280   9.551  20.945  0.00  0.00    +0.000 A 
ATOM     25  C   UNL     1       0.467   8.260  21.451  0.00  0.00    +0.000 A 
BRANCH  23  26
ATOM     26  C   UNL     1       0.706  11.343  19.228  0.00  0.00    +0.000 A 
ATOM     27  C   UNL     1       1.790  12.232  19.117  0.00  0.00    +0.000 A 
ATOM     28  C   UNL     1       1.618  13.539  18.653  0.00  0.00    +0.000 A 
ATOM     29  C   UNL     1       0.357  13.980  18.269  0.00  0.00    +0.000 A 
ATOM     30  C   UNL     1      -0.731  13.117  18.351  0.00  0.00    +0.000 A 
ATOM     31  C   UNL     1      -0.558  11.815  18.831  0.00  0.00    +0.000 A 
ENDBRANCH  23  26
ENDBRANCH  19  20
ENDBRANCH  18  19
ENDBRANCH  17  18
ENDBRANCH   1  17
TORSDOF 10
ENDMDL
MODEL 7
REMARK VINA RESULT:      -7.3      3.745      8.071
REMARK  Name = 
REMARK  12 active torsions:
REMARK  status: ('A' for Active; 'I' for Inactive)
REMARK    1  A    between atoms: C_1  and  N_2
REMARK    2  A    between atoms: C_3  and  O_5
REMARK    3  A    between atoms: O_5  and  C_6
REMARK    4  A    between atoms: C_10  and  C_11
REMARK    5  A    between atoms: C_11  and  N_12
REMARK    6  A    between atoms: N_12  and  C_13
REMARK    7  A    between atoms: N_12  and  C_14
REMARK    8  A    between atoms: C_14  and  C_15
REMARK    9  A    between atoms: C_15  and  C_16
REMARK   10  A    between atoms: C_16  and  O_17
REMARK   11  A    between atoms: O_17  and  C_18
REMARK   12  A    between atoms: C_21  and  C_22
REMARK                            x       y       z     vdW  Elec       q    Type
REMARK                         _______ _______ _______ _____ _____    ______ ____
ROOT
ATOM      1  C   UNL     1       3.046   4.173  17.805  0.00  0.00    +0.000 C 
ENDROOT
BRANCH   1   2
ATOM      2  N   UNL     1       3.060   4.326  19.270  0.00  0.00    +0.000 NA
ATOM      3  C   UNL     1       1.686   4.253  19.778  0.00  0.00    +0.000 C 
BRANCH   2   4
ATOM      4  C   UNL     1       3.738   5.572  19.685  0.00  0.00    +0.000 C 
BRANCH   4   9
ATOM      5  C   UNL     1       1.287   8.485  19.812  0.00  0.00    +0.000 A 
ATOM      6  C   UNL     1       1.433   9.033  18.537  0.00  0.00    +0.000 A 
ATOM      7  C   UNL     1       2.378   8.501  17.658  0.00  0.00    +0.000 A 
ATOM      8  C   UNL     1       3.147   7.401  18.042  0.00  0.00    +0.000 A 
ATOM      9  C   UNL     1       2.972   6.822  19.307  0.00  0.00    +0.000 A 
ATOM     10  C   UNL     1       2.050   7.388  20.203  0.00  0.00    +0.000 A 
BRANCH   5  11
ATOM     11  O   UNL     1       0.247   9.016  20.603  0.00  0.00    +0.000 OA
BRANCH  11  14
ATOM     12  C   UNL     1      -0.859  11.737  22.716  0.00  0.00    +0.000 C 
ATOM     13  N   UNL     1      -0.765  10.598  21.846  0.00  0.00    +0.000 N 
ATOM     14  C   UNL     1       0.442  10.153  21.379  0.00  0.00    +0.000 C 
ATOM     15  O   UNL     1       1.515  10.691  21.620  0.00  0.00    +0.000 OA
ATOM     16  H   UNL     1      -1.577  10.036  21.634  0.00  0.00    +0.000 HD
ENDBRANCH  11  14
ENDBRANCH   5  11
ENDBRANCH   4   9
ENDBRANCH   2   4
ENDBRANCH   1   2
BRANCH   1  17
ATOM     17  C   UNL     1       4.223   3.371  17.249  0.00  0.00    +0.000 C 
BRANCH  17  18
ATOM     18  C   UNL     1       5.255   4.265  16.575  0.00  0.00    +0.000 C 
BRANCH  18  19
ATOM     19  O   UNL     1       6.346   4.412  17.481  0.00  0.00    +0.000 OA
BRANCH  19  20
ATOM     20  C   UNL     1       6.814   5.687  17.616  0.00  0.00    +0.000 A 
ATOM     21  C   UNL     1       7.763   5.858  18.618  0.00  0.00    +0.000 A 
ATOM     22  C   UNL     1       8.308   7.120  18.866  0.00  0.00    +0.000 A 
ATOM     23  C   UNL     1       7.941   8.241  18.096  0.00  0.00    +0.000 A 
ATOM     24  C   UNL     1       7.007   8.034  17.068  0.00  0.00    +0.000 A 
ATOM     25  C   UNL     1       6.445   6.775  16.830  0.00  0.00    +0.000 A 
BRANCH  23  26
ATOM     26  C   UNL     1       8.520   9.578  18.360  0.00  0.00    +0.000 A 
ATOM     27  C   UNL     1       9.371   9.800  19.458  0.00  0.00    +0.000 A 
ATOM     28  C   UNL     1       9.895  11.066  19.731  0.00  0.00    +0.000 A 
ATOM     29  C   UNL     1       9.596  12.138  18.897  0.00  0.00    +0.000 A 
ATOM     30  C   UNL     1       8.771  11.944  17.794  0.00  0.00    +0.000 A 
ATOM     31  C   UNL     1       8.235  10.679  17.532  0.00  0.00    +0.000 A 
ENDBRANCH  23  26
ENDBRANCH  19  20
ENDBRANCH  18  19
ENDBRANCH  17  18
ENDBRANCH   1  17
TORSDOF 10
ENDMDL
MODEL 8
REMARK VINA RESULT:      -7.2      8.185     10.563
REMARK  Name = 
REMARK  12 active torsions:
REMARK  status: ('A' for Active; 'I' for Inactive)
REMARK    1  A    between atoms: C_1  and  N_2
REMARK    2  A    between atoms: C_3  and  O_5
REMARK    3  A    between atoms: O_5  and  C_6
REMARK    4  A    between atoms: C_10  and  C_11
REMARK    5  A    between atoms: C_11  and  N_12
REMARK    6  A    between atoms: N_12  and  C_13
REMARK    7  A    between atoms: N_12  and  C_14
REMARK    8  A    between atoms: C_14  and  C_15
REMARK    9  A    between atoms: C_15  and  C_16
REMARK   10  A    between atoms: C_16  and  O_17
REMARK   11  A    between atoms: O_17  and  C_18
REMARK   12  A    between atoms: C_21  and  C_22
REMARK                            x       y       z     vdW  Elec       q    Type
REMARK                         _______ _______ _______ _____ _____    ______ ____
ROOT
ATOM      1  C   UNL     1      -2.154  11.579  17.325  0.00  0.00    +0.000 C 
ENDROOT
BRANCH   1   2
ATOM      2  N   UNL     1      -3.316  10.890  17.915  0.00  0.00    +0.000 NA
ATOM      3  C   UNL     1      -3.326   9.492  17.472  0.00  0.00    +0.000 C 
BRANCH   2   4
ATOM      4  C   UNL     1      -4.583  11.582  17.597  0.00  0.00    +0.000 C 
BRANCH   4   9
ATOM      5  C   UNL     1      -6.433  12.490  20.801  0.00  0.00    +0.000 A 
ATOM      6  C   UNL     1      -7.307  11.411  20.937  0.00  0.00    +0.000 A 
ATOM      7  C   UNL     1      -7.347  10.422  19.953  0.00  0.00    +0.000 A 
ATOM      8  C   UNL     1      -6.488  10.495  18.855  0.00  0.00    +0.000 A 
ATOM      9  C   UNL     1      -5.578  11.555  18.736  0.00  0.00    +0.000 A 
ATOM     10  C   UNL     1      -5.573  12.569  19.708  0.00  0.00    +0.000 A 
BRANCH   5  11
ATOM     11  O   UNL     1      -6.384  13.393  21.882  0.00  0.00    +0.000 OA
BRANCH  11  14
ATOM     12  C   UNL     1      -4.304  12.408  24.673  0.00  0.00    +0.000 C 
ATOM     13  N   UNL     1      -5.353  12.567  23.705  0.00  0.00    +0.000 N 
ATOM     14  C   UNL     1      -5.260  13.484  22.694  0.00  0.00    +0.000 C 
ATOM     15  O   UNL     1      -4.321  14.256  22.548  0.00  0.00    +0.000 OA
ATOM     16  H   UNL     1      -6.145  11.940  23.688  0.00  0.00    +0.000 HD
ENDBRANCH  11  14
ENDBRANCH   5  11
ENDBRANCH   4   9
ENDBRANCH   2   4
ENDBRANCH   1   2
BRANCH   1  17
ATOM     17  C   UNL     1      -1.261  12.284  18.346  0.00  0.00    +0.000 C 
BRANCH  17  18
ATOM     18  C   UNL     1      -0.661  11.307  19.349  0.00  0.00    +0.000 C 
BRANCH  18  19
ATOM     19  O   UNL     1       0.733  11.215  19.070  0.00  0.00    +0.000 OA
BRANCH  19  20
ATOM     20  C   UNL     1       1.243   9.948  19.095  0.00  0.00    +0.000 A 
ATOM     21  C   UNL     1       1.868   9.546  17.920  0.00  0.00    +0.000 A 
ATOM     22  C   UNL     1       2.416   8.266  17.814  0.00  0.00    +0.000 A 
ATOM     23  C   UNL     1       2.380   7.362  18.894  0.00  0.00    +0.000 A 
ATOM     24  C   UNL     1       1.774   7.805  20.081  0.00  0.00    +0.000 A 
ATOM     25  C   UNL     1       1.207   9.081  20.183  0.00  0.00    +0.000 A 
BRANCH  23  26
ATOM     26  C   UNL     1       2.962   6.005  18.781  0.00  0.00    +0.000 A 
ATOM     27  C   UNL     1       2.964   5.120  19.873  0.00  0.00    +0.000 A 
ATOM     28  C   UNL     1       3.540   3.850  19.782  0.00  0.00    +0.000 A 
ATOM     29  C   UNL     1       4.110   3.428  18.586  0.00  0.00    +0.000 A 
ATOM     30  C   UNL     1       4.106   4.276  17.483  0.00  0.00    +0.000 A 
ATOM     31  C   UNL     1       3.543   5.553  17.582  0.00  0.00    +0.000 A 
ENDBRANCH  23  26
ENDBRANCH  19  20
ENDBRANCH  18  19
ENDBRANCH  17  18
ENDBRANCH   1  17
TORSDOF 10
ENDMDL
MODEL 9
REMARK VINA RESULT:      -7.1      7.775     10.070
REMARK  Name = 
REMARK  12 active torsions:
REMARK  status: ('A' for Active; 'I' for Inactive)
REMARK    1  A    between atoms: C_1  and  N_2
REMARK    2  A    between atoms: C_3  and  O_5
REMARK    3  A    between atoms: O_5  and  C_6
REMARK    4  A    between atoms: C_10  and  C_11
REMARK    5  A    between atoms: C_11  and  N_12
REMARK    6  A    between atoms: N_12  and  C_13
REMARK    7  A    between atoms: N_12  and  C_14
REMARK    8  A    between atoms: C_14  and  C_15
REMARK    9  A    between atoms: C_15  and  C_16
REMARK   10  A    between atoms: C_16  and  O_17
REMARK   11  A    between atoms: O_17  and  C_18
REMARK   12  A    between atoms: C_21  and  C_22
REMARK                            x       y       z     vdW  Elec       q    Type
REMARK                         _______ _______ _______ _____ _____    ______ ____
ROOT
ATOM      1  C   UNL     1      -1.249  10.177  17.933  0.00  0.00    +0.000 C 
ENDROOT
BRANCH   1   2
ATOM      2  N   UNL     1      -2.656  10.300  17.512  0.00  0.00    +0.000 NA
ATOM      3  C   UNL     1      -2.764   9.987  16.084  0.00  0.00    +0.000 C 
BRANCH   2   4
ATOM      4  C   UNL     1      -3.209  11.633  17.831  0.00  0.00    +0.000 C 
BRANCH   4   9
ATOM      5  C   UNL     1      -5.926  12.188  20.442  0.00  0.00    +0.000 A 
ATOM      6  C   UNL     1      -6.923  11.317  20.001  0.00  0.00    +0.000 A 
ATOM      7  C   UNL     1      -6.744  10.600  18.818  0.00  0.00    +0.000 A 
ATOM      8  C   UNL     1      -5.555  10.728  18.098  0.00  0.00    +0.000 A 
ATOM      9  C   UNL     1      -4.534  11.570  18.560  0.00  0.00    +0.000 A 
ATOM     10  C   UNL     1      -4.738  12.321  19.730  0.00  0.00    +0.000 A 
BRANCH   5  11
ATOM     11  O   UNL     1      -6.143  12.801  21.694  0.00  0.00    +0.000 OA
BRANCH  11  14
ATOM     12  C   UNL     1      -3.780  14.961  23.378  0.00  0.00    +0.000 C 
ATOM     13  N   UNL     1      -4.803  14.400  22.541  0.00  0.00    +0.000 N 
ATOM     14  C   UNL     1      -5.087  13.061  22.559  0.00  0.00    +0.000 C 
ATOM     15  O   UNL     1      -4.489  12.239  23.241  0.00  0.00    +0.000 OA
ATOM     16  H   UNL     1      -5.405  14.992  21.986  0.00  0.00    +0.000 HD
ENDBRANCH  11  14
ENDBRANCH   5  11
ENDBRANCH   4   9
ENDBRANCH   2   4
ENDBRANCH   1   2
BRANCH   1  17
ATOM     17  C   UNL     1      -0.893  10.997  19.173  0.00  0.00    +0.000 C 
BRANCH  17  18
ATOM     18  C   UNL     1      -0.285  10.135  20.270  0.00  0.00    +0.000 C 
BRANCH  18  19
ATOM     19  O   UNL     1       1.111  10.029  20.002  0.00  0.00    +0.000 OA
BRANCH  19  20
ATOM     20  C   UNL     1       1.542   8.775  19.679  0.00  0.00    +0.000 A 
ATOM     21  C   UNL     1       1.445   7.841  20.705  0.00  0.00    +0.000 A 
ATOM     22  C   UNL     1       1.869   6.525  20.505  0.00  0.00    +0.000 A 
ATOM     23  C   UNL     1       2.373   6.099  19.261  0.00  0.00    +0.000 A 
ATOM     24  C   UNL     1       2.428   7.053  18.231  0.00  0.00    +0.000 A 
ATOM     25  C   UNL     1       2.022   8.377  18.435  0.00  0.00    +0.000 A 
BRANCH  23  26
ATOM     26  C   UNL     1       2.821   4.704  19.050  0.00  0.00    +0.000 A 
ATOM     27  C   UNL     1       2.951   3.809  20.127  0.00  0.00    +0.000 A 
ATOM     28  C   UNL     1       3.403   2.501  19.939  0.00  0.00    +0.000 A 
ATOM     29  C   UNL     1       3.718   2.050  18.662  0.00  0.00    +0.000 A 
ATOM     30  C   UNL     1       3.582   2.908  17.575  0.00  0.00    +0.000 A 
ATOM     31  C   UNL     1       3.144   4.221  17.768  0.00  0.00    +0.000 A 
ENDBRANCH  23  26
ENDBRANCH  19  20
ENDBRANCH  18  19
ENDBRANCH  17  18
ENDBRANCH   1  17
TORSDOF 10
ENDMDL
