MODEL 1
REMARK VINA RESULT:      -8.9      0.000      0.000
REMARK  Name = 
REMARK  12 active torsions:
REMARK  status: ('A' for Active; 'I' for Inactive)
REMARK    1  A    between atoms: C_1  and  C_2
REMARK    2  A    between atoms: C_2  and  C_3
REMARK    3  A    between atoms: C_2  and  C_4
REMARK    4  A    between atoms: C_2  and  C_5
REMARK    5  A    between atoms: C_7  and  C_8
REMARK    6  A    between atoms: C_11  and  C_12
REMARK    7  A    between atoms: C_12  and  N_13
REMARK    8  A    between atoms: C_26  and  C_27
REMARK    9  A    between atoms: C_27  and  C_28
REMARK   10  A    between atoms: C_27  and  C_29
REMARK   11  A    between atoms: C_27  and  C_30
REMARK   12  A    between atoms: C_31  and  O_32
REMARK                            x       y       z     vdW  Elec       q    Type
REMARK                         _______ _______ _______ _____ _____    ______ ____
ROOT
ATOM      1  C   UNL     1       1.791   7.754  20.016  0.00  0.00    +0.000 A 
ATOM      2  C   UNL     1       1.135   7.810  21.228  0.00  0.00    +0.000 A 
ATOM      3  S   UNL     1       0.420   9.345  21.441  0.00  0.00    +0.000 S 
ATOM      4  C   UNL     1       1.012   9.842  19.893  0.00  0.00    +0.000 A 
ATOM      5  N   UNL     1       1.733   8.925  19.274  0.00  0.00    +0.000 NA
ENDROOT
BRANCH   1   8
ATOM      6  C   UNL     1       4.198   5.565  18.044  0.00  0.00    +0.000 A 
ATOM      7  C   UNL     1       3.489   6.690  18.527  0.00  0.00    +0.000 A 
ATOM      8  C   UNL     1       2.541   6.592  19.548  0.00  0.00    +0.000 A 
ATOM      9  C   UNL     1       2.285   5.341  20.118  0.00  0.00    +0.000 A 
ATOM     10  C   UNL     1       2.961   4.175  19.710  0.00  0.00    +0.000 A 
ATOM     11  C   UNL     1       3.953   4.339  18.713  0.00  0.00    +0.000 A 
BRANCH   6  13
ATOM     12  C   UNL     1       6.608   5.902  17.402  0.00  0.00    +0.000 C 
ATOM     13  C   UNL     1       5.175   5.741  16.856  0.00  0.00    +0.000 C 
ATOM     14  C   UNL     1       4.842   7.002  16.007  0.00  0.00    +0.000 C 
ATOM     15  C   UNL     1       5.157   4.574  15.839  0.00  0.00    +0.000 C 
ENDBRANCH   6  13
BRANCH  10  16
ATOM     16  C   UNL     1       2.556   2.798  20.291  0.00  0.00    +0.000 C 
ATOM     17  C   UNL     1       1.454   2.890  21.381  0.00  0.00    +0.000 C 
ATOM     18  C   UNL     1       1.961   1.913  19.169  0.00  0.00    +0.000 C 
ATOM     19  C   UNL     1       3.742   2.057  20.945  0.00  0.00    +0.000 C 
ENDBRANCH  10  16
BRANCH  11  20
ATOM     20  O   UNL     1       4.760   3.276  18.429  0.00  0.00    +0.000 OA
ATOM     21  H   UNL     1       5.312   3.544  17.678  0.00  0.00    +0.000 HD
ENDBRANCH  11  20
ENDBRANCH   1   8
BRANCH   4  22
ATOM     22  C   UNL     1       0.716  11.251  19.295  0.00  0.00    +0.000 C 
ATOM     23  C   UNL     1       1.912  11.739  18.410  0.00  0.00    +0.000 C 
ATOM     24  C   UNL     1       1.862  13.227  18.104  0.00  0.00    +0.000 C 
ATOM     25  O   UNL     1       1.893  13.976  19.315  0.00  0.00    +0.000 OA
ATOM     26  C   UNL     1       0.746  13.710  20.115  0.00  0.00    +0.000 C 
ATOM     27  C   UNL     1       0.698  12.243  20.514  0.00  0.00    +0.000 C 
BRANCH  22  28
ATOM     28  N   UNL     1      -0.586  11.279  18.503  0.00  0.00    +0.000 NA
ATOM     29  C   UNL     1      -0.816  10.040  17.721  0.00  0.00    +0.000 C 
ATOM     30  C   UNL     1      -2.094  10.074  16.875  0.00  0.00    +0.000 C 
ATOM     31  C   UNL     1      -3.315  10.377  17.727  0.00  0.00    +0.000 C 
ATOM     32  C   UNL     1      -3.071  11.647  18.522  0.00  0.00    +0.000 C 
ATOM     33  C   UNL     1      -1.776  11.547  19.345  0.00  0.00    +0.000 C 
ENDBRANCH  22  28
ENDBRANCH   4  22
TORSDOF 6
ENDMDL
MODEL 2
REMARK VINA RESULT:      -8.9      1.687      2.501
REMARK  Name = 
REMARK  12 active torsions:
REMARK  status: ('A' for Active; 'I' for Inactive)
REMARK    1  A    between atoms: C_1  and  C_2
REMARK    2  A    between atoms: C_2  and  C_3
REMARK    3  A    between atoms: C_2  and  C_4
REMARK    4  A    between atoms: C_2  and  C_5
REMARK    5  A    between atoms: C_7  and  C_8
REMARK    6  A    between atoms: C_11  and  C_12
REMARK    7  A    between atoms: C_12  and  N_13
REMARK    8  A    between atoms: C_26  and  C_27
REMARK    9  A    between atoms: C_27  and  C_28
REMARK   10  A    between atoms: C_27  and  C_29
REMARK   11  A    between atoms: C_27  and  C_30
REMARK   12  A    between atoms: C_31  and  O_32
REMARK                            x       y       z     vdW  Elec       q    Type
REMARK                         _______ _______ _______ _____ _____    ______ ____
ROOT
ATOM      1  C   UNL     1       2.382   8.097  18.492  0.00  0.00    +0.000 A 
ATOM      2  C   UNL     1       2.711   9.144  17.656  0.00  0.00    +0.000 A 
ATOM      3  S   UNL     1       1.790  10.526  18.053  0.00  0.00    +0.000 S 
ATOM      4  C   UNL     1       1.017   9.651  19.330  0.00  0.00    +0.000 A 
ATOM      5  N   UNL     1       1.400   8.391  19.427  0.00  0.00    +0.000 NA
ENDROOT
BRANCH   1   8
ATOM      6  C   UNL     1       4.587   5.189  17.416  0.00  0.00    +0.000 A 
ATOM      7  C   UNL     1       4.040   6.487  17.547  0.00  0.00    +0.000 A 
ATOM      8  C   UNL     1       2.960   6.761  18.390  0.00  0.00    +0.000 A 
ATOM      9  C   UNL     1       2.402   5.717  19.135  0.00  0.00    +0.000 A 
ATOM     10  C   UNL     1       2.899   4.401  19.079  0.00  0.00    +0.000 A 
ATOM     11  C   UNL     1       4.031   4.191  18.254  0.00  0.00    +0.000 A 
BRANCH   6  13
ATOM     12  C   UNL     1       5.737   6.098  15.369  0.00  0.00    +0.000 C 
ATOM     13  C   UNL     1       5.732   4.952  16.401  0.00  0.00    +0.000 C 
ATOM     14  C   UNL     1       5.561   3.612  15.628  0.00  0.00    +0.000 C 
ATOM     15  C   UNL     1       7.138   4.853  17.042  0.00  0.00    +0.000 C 
ENDBRANCH   6  13
BRANCH  10  16
ATOM     16  C   UNL     1       2.172   3.262  19.835  0.00  0.00    +0.000 C 
ATOM     17  C   UNL     1       3.041   2.605  20.942  0.00  0.00    +0.000 C 
ATOM     18  C   UNL     1       0.929   3.830  20.562  0.00  0.00    +0.000 C 
ATOM     19  C   UNL     1       1.733   2.115  18.900  0.00  0.00    +0.000 C 
ENDBRANCH  10  16
BRANCH  11  20
ATOM     20  O   UNL     1       4.658   2.980  18.321  0.00  0.00    +0.000 OA
ATOM     21  H   UNL     1       4.965   2.782  17.422  0.00  0.00    +0.000 HD
ENDBRANCH  11  20
ENDBRANCH   1   8
BRANCH   4  22
ATOM     22  C   UNL     1      -0.038  10.305  20.274  0.00  0.00    +0.000 C 
ATOM     23  C   UNL     1       0.466  11.697  20.786  0.00  0.00    +0.000 C 
ATOM     24  C   UNL     1      -0.319  12.215  21.979  0.00  0.00    +0.000 C 
ATOM     25  O   UNL     1      -0.221  11.300  23.065  0.00  0.00    +0.000 OA
ATOM     26  C   UNL     1      -0.807  10.044  22.735  0.00  0.00    +0.000 C 
ATOM     27  C   UNL     1      -0.082   9.404  21.561  0.00  0.00    +0.000 C 
BRANCH  22  28
ATOM     28  N   UNL     1      -1.402  10.439  19.609  0.00  0.00    +0.000 NA
ATOM     29  C   UNL     1      -1.854  11.846  19.488  0.00  0.00    +0.000 C 
ATOM     30  C   UNL     1      -3.250  11.994  18.872  0.00  0.00    +0.000 C 
ATOM     31  C   UNL     1      -3.333  11.311  17.517  0.00  0.00    +0.000 C 
ATOM     32  C   UNL     1      -2.871   9.871  17.652  0.00  0.00    +0.000 C 
ATOM     33  C   UNL     1      -1.468   9.793  18.277  0.00  0.00    +0.000 C 
ENDBRANCH  22  28
ENDBRANCH   4  22
TORSDOF 6
ENDMDL
MODEL 3
REMARK VINA RESULT:      -8.8      1.697      2.294
REMARK  Name = 
REMARK  12 active torsions:
REMARK  status: ('A' for Active; 'I' for Inactive)
REMARK    1  A    between atoms: C_1  and  C_2
REMARK    2  A    between atoms: C_2  and  C_3
REMARK    3  A    between atoms: C_2  and  C_4
REMARK    4  A    between atoms: C_2  and  C_5
REMARK    5  A    between atoms: C_7  and  C_8
REMARK    6  A    between atoms: C_11  and  C_12
REMARK    7  A    between atoms: C_12  and  N_13
REMARK    8  A    between atoms: C_26  and  C_27
REMARK    9  A    between atoms: C_27  and  C_28
REMARK   10  A    between atoms: C_27  and  C_29
REMARK   11  A    between atoms: C_27  and  C_30
REMARK   12  A    between atoms: C_31  and  O_32
REMARK                            x       y       z     vdW  Elec       q    Type
REMARK                         _______ _______ _______ _____ _____    ______ ____
ROOT
ATOM      1  C   UNL     1       2.388   8.050  18.506  0.00  0.00    +0.000 A 
ATOM      2  C   UNL     1       2.711   9.090  17.659  0.00  0.00    +0.000 A 
ATOM      3  S   UNL     1       1.788  10.473  18.045  0.00  0.00    +0.000 S 
ATOM      4  C   UNL     1       1.022   9.609  19.334  0.00  0.00    +0.000 A 
ATOM      5  N   UNL     1       1.409   8.351  19.442  0.00  0.00    +0.000 NA
ENDROOT
BRANCH   1   8
ATOM      6  C   UNL     1       4.617   5.145  17.471  0.00  0.00    +0.000 A 
ATOM      7  C   UNL     1       4.066   6.442  17.592  0.00  0.00    +0.000 A 
ATOM      8  C   UNL     1       2.971   6.715  18.415  0.00  0.00    +0.000 A 
ATOM      9  C   UNL     1       2.401   5.671  19.151  0.00  0.00    +0.000 A 
ATOM     10  C   UNL     1       2.900   4.355  19.105  0.00  0.00    +0.000 A 
ATOM     11  C   UNL     1       4.047   4.147  18.301  0.00  0.00    +0.000 A 
BRANCH   6  13
ATOM     12  C   UNL     1       7.107   4.844  17.261  0.00  0.00    +0.000 C 
ATOM     13  C   UNL     1       5.780   4.909  16.478  0.00  0.00    +0.000 C 
ATOM     14  C   UNL     1       5.898   6.054  15.431  0.00  0.00    +0.000 C 
ATOM     15  C   UNL     1       5.640   3.622  15.629  0.00  0.00    +0.000 C 
ENDBRANCH   6  13
BRANCH  10  16
ATOM     16  C   UNL     1       2.162   3.216  19.848  0.00  0.00    +0.000 C 
ATOM     17  C   UNL     1       0.810   3.662  20.469  0.00  0.00    +0.000 C 
ATOM     18  C   UNL     1       1.809   2.086  18.850  0.00  0.00    +0.000 C 
ATOM     19  C   UNL     1       2.991   2.627  21.009  0.00  0.00    +0.000 C 
ENDBRANCH  10  16
BRANCH  11  20
ATOM     20  O   UNL     1       4.675   2.937  18.379  0.00  0.00    +0.000 OA
ATOM     21  H   UNL     1       4.472   2.470  17.553  0.00  0.00    +0.000 HD
ENDBRANCH  11  20
ENDBRANCH   1   8
BRANCH   4  22
ATOM     22  C   UNL     1      -0.031  10.269  20.276  0.00  0.00    +0.000 C 
ATOM     23  C   UNL     1       0.488  11.649  20.803  0.00  0.00    +0.000 C 
ATOM     24  C   UNL     1      -0.299  12.168  21.995  0.00  0.00    +0.000 C 
ATOM     25  O   UNL     1      -0.221  11.242  23.074  0.00  0.00    +0.000 OA
ATOM     26  C   UNL     1      -0.822   9.998  22.729  0.00  0.00    +0.000 C 
ATOM     27  C   UNL     1      -0.097   9.358  21.555  0.00  0.00    +0.000 C 
BRANCH  22  28
ATOM     28  N   UNL     1      -1.388  10.427  19.602  0.00  0.00    +0.000 NA
ATOM     29  C   UNL     1      -1.825  11.840  19.501  0.00  0.00    +0.000 C 
ATOM     30  C   UNL     1      -3.215  12.012  18.876  0.00  0.00    +0.000 C 
ATOM     31  C   UNL     1      -3.293  11.353  17.509  0.00  0.00    +0.000 C 
ATOM     32  C   UNL     1      -2.845   9.906  17.623  0.00  0.00    +0.000 C 
ATOM     33  C   UNL     1      -1.449   9.805  18.258  0.00  0.00    +0.000 C 
ENDBRANCH  22  28
ENDBRANCH   4  22
TORSDOF 6
ENDMDL
MODEL 4
REMARK VINA RESULT:      -8.8      1.782      3.959
REMARK  Name = 
REMARK  12 active torsions:
REMARK  status: ('A' for Active; 'I' for Inactive)
REMARK    1  A    between atoms: C_1  and  C_2
REMARK    2  A    between atoms: C_2  and  C_3
REMARK    3  A    between atoms: C_2  and  C_4
REMARK    4  A    between atoms: C_2  and  C_5
REMARK    5  A    between atoms: C_7  and  C_8
REMARK    6  A    between atoms: C_11  and  C_12
REMARK    7  A    between atoms: C_12  and  N_13
REMARK    8  A    between atoms: C_26  and  C_27
REMARK    9  A    between atoms: C_27  and  C_28
REMARK   10  A    between atoms: C_27  and  C_29
REMARK   11  A    between atoms: C_27  and  C_30
REMARK   12  A    between atoms: C_31  and  O_32
REMARK                            x       y       z     vdW  Elec       q    Type
REMARK                         _______ _______ _______ _____ _____    ______ ____
ROOT
ATOM      1  C   UNL     1       2.437   8.225  18.428  0.00  0.00    +0.000 A 
ATOM      2  C   UNL     1       2.694   9.301  17.605  0.00  0.00    +0.000 A 
ATOM      3  S   UNL     1       1.714  10.628  18.046  0.00  0.00    +0.000 S 
ATOM      4  C   UNL     1       1.014   9.693  19.323  0.00  0.00    +0.000 A 
ATOM      5  N   UNL     1       1.463   8.452  19.389  0.00  0.00    +0.000 NA
ENDROOT
BRANCH   1   8
ATOM      6  C   UNL     1       3.096   4.483  18.632  0.00  0.00    +0.000 A 
ATOM      7  C   UNL     1       2.468   5.747  18.731  0.00  0.00    +0.000 A 
ATOM      8  C   UNL     1       3.080   6.921  18.290  0.00  0.00    +0.000 A 
ATOM      9  C   UNL     1       4.358   6.848  17.725  0.00  0.00    +0.000 A 
ATOM     10  C   UNL     1       5.045   5.629  17.569  0.00  0.00    +0.000 A 
ATOM     11  C   UNL     1       4.354   4.462  17.980  0.00  0.00    +0.000 A 
BRANCH   6  13
ATOM     12  C   UNL     1       1.072   3.680  19.895  0.00  0.00    +0.000 C 
ATOM     13  C   UNL     1       2.384   3.238  19.216  0.00  0.00    +0.000 C 
ATOM     14  C   UNL     1       3.254   2.513  20.283  0.00  0.00    +0.000 C 
ATOM     15  C   UNL     1       2.060   2.143  18.171  0.00  0.00    +0.000 C 
ENDBRANCH   6  13
BRANCH  10  16
ATOM     16  C   UNL     1       6.501   5.617  17.046  0.00  0.00    +0.000 C 
ATOM     17  C   UNL     1       6.617   5.183  15.559  0.00  0.00    +0.000 C 
ATOM     18  C   UNL     1       7.089   7.048  17.110  0.00  0.00    +0.000 C 
ATOM     19  C   UNL     1       7.412   4.658  17.843  0.00  0.00    +0.000 C 
ENDBRANCH  10  16
BRANCH  11  20
ATOM     20  O   UNL     1       4.901   3.250  17.671  0.00  0.00    +0.000 OA
ATOM     21  H   UNL     1       5.683   3.434  17.128  0.00  0.00    +0.000 HD
ENDBRANCH  11  20
ENDBRANCH   1   8
BRANCH   4  22
ATOM     22  C   UNL     1      -0.051  10.276  20.301  0.00  0.00    +0.000 C 
ATOM     23  C   UNL     1       0.437  11.638  20.902  0.00  0.00    +0.000 C 
ATOM     24  C   UNL     1      -0.358  12.073  22.121  0.00  0.00    +0.000 C 
ATOM     25  O   UNL     1      -0.256  11.092  23.148  0.00  0.00    +0.000 OA
ATOM     26  C   UNL     1      -0.828   9.854  22.737  0.00  0.00    +0.000 C 
ATOM     27  C   UNL     1      -0.092   9.296  21.529  0.00  0.00    +0.000 C 
BRANCH  22  28
ATOM     28  N   UNL     1      -1.414  10.438  19.639  0.00  0.00    +0.000 NA
ATOM     29  C   UNL     1      -1.822  11.855  19.489  0.00  0.00    +0.000 C 
ATOM     30  C   UNL     1      -3.216  12.033  18.876  0.00  0.00    +0.000 C 
ATOM     31  C   UNL     1      -3.327  11.324  17.537  0.00  0.00    +0.000 C 
ATOM     32  C   UNL     1      -2.909   9.873  17.701  0.00  0.00    +0.000 C 
ATOM     33  C   UNL     1      -1.506   9.766  18.321  0.00  0.00    +0.000 C 
ENDBRANCH  22  28
ENDBRANCH   4  22
TORSDOF 6
ENDMDL
MODEL 5
REMARK VINA RESULT:      -8.8      1.795      3.930
REMARK  Name = 
REMARK  12 active torsions:
REMARK  status: ('A' for Active; 'I' for Inactive)
REMARK    1  A    between atoms: C_1  and  C_2
REMARK    2  A    between atoms: C_2  and  C_3
REMARK    3  A    between atoms: C_2  and  C_4
REMARK    4  A    between atoms: C_2  and  C_5
REMARK    5  A    between atoms: C_7  and  C_8
REMARK    6  A    between atoms: C_11  and  C_12
REMARK    7  A    between atoms: C_12  and  N_13
REMARK    8  A    between atoms: C_26  and  C_27
REMARK    9  A    between atoms: C_27  and  C_28
REMARK   10  A    between atoms: C_27  and  C_29
REMARK   11  A    between atoms: C_27  and  C_30
REMARK   12  A    between atoms: C_31  and  O_32
REMARK                            x       y       z     vdW  Elec       q    Type
REMARK                         _______ _______ _______ _____ _____    ______ ____
ROOT
ATOM      1  C   UNL     1       2.456   8.212  18.413  0.00  0.00    +0.000 A 
ATOM      2  C   UNL     1       2.706   9.295  17.595  0.00  0.00    +0.000 A 
ATOM      3  S   UNL     1       1.717  10.613  18.042  0.00  0.00    +0.000 S 
ATOM      4  C   UNL     1       1.023   9.667  19.314  0.00  0.00    +0.000 A 
ATOM      5  N   UNL     1       1.480   8.429  19.375  0.00  0.00    +0.000 NA
ENDROOT
BRANCH   1   8
ATOM      6  C   UNL     1       3.137   4.473  18.594  0.00  0.00    +0.000 A 
ATOM      7  C   UNL     1       2.501   5.733  18.700  0.00  0.00    +0.000 A 
ATOM      8  C   UNL     1       3.108   6.914  18.269  0.00  0.00    +0.000 A 
ATOM      9  C   UNL     1       4.388   6.853  17.709  0.00  0.00    +0.000 A 
ATOM     10  C   UNL     1       5.084   5.639  17.549  0.00  0.00    +0.000 A 
ATOM     11  C   UNL     1       4.398   4.465  17.948  0.00  0.00    +0.000 A 
BRANCH   6  13
ATOM     12  C   UNL     1       3.331   2.581  20.242  0.00  0.00    +0.000 C 
ATOM     13  C   UNL     1       2.430   3.221  19.166  0.00  0.00    +0.000 C 
ATOM     14  C   UNL     1       2.160   2.149  18.070  0.00  0.00    +0.000 C 
ATOM     15  C   UNL     1       1.039   3.502  19.784  0.00  0.00    +0.000 C 
ENDBRANCH   6  13
BRANCH  10  16
ATOM     16  C   UNL     1       6.543   5.640  17.032  0.00  0.00    +0.000 C 
ATOM     17  C   UNL     1       7.459   4.628  17.773  0.00  0.00    +0.000 C 
ATOM     18  C   UNL     1       6.569   5.214  15.545  0.00  0.00    +0.000 C 
ATOM     19  C   UNL     1       7.224   7.018  17.178  0.00  0.00    +0.000 C 
ENDBRANCH  10  16
BRANCH  11  20
ATOM     20  O   UNL     1       4.955   3.259  17.634  0.00  0.00    +0.000 OA
ATOM     21  H   UNL     1       4.278   2.589  17.817  0.00  0.00    +0.000 HD
ENDBRANCH  11  20
ENDBRANCH   1   8
BRANCH   4  22
ATOM     22  C   UNL     1      -0.046  10.238  20.295  0.00  0.00    +0.000 C 
ATOM     23  C   UNL     1       0.435  11.596  20.908  0.00  0.00    +0.000 C 
ATOM     24  C   UNL     1      -0.365  12.019  22.129  0.00  0.00    +0.000 C 
ATOM     25  O   UNL     1      -0.261  11.030  23.148  0.00  0.00    +0.000 OA
ATOM     26  C   UNL     1      -0.828   9.793  22.726  0.00  0.00    +0.000 C 
ATOM     27  C   UNL     1      -0.087   9.248  21.515  0.00  0.00    +0.000 C 
BRANCH  22  28
ATOM     28  N   UNL     1      -1.409  10.400  19.631  0.00  0.00    +0.000 NA
ATOM     29  C   UNL     1      -1.814  11.818  19.476  0.00  0.00    +0.000 C 
ATOM     30  C   UNL     1      -3.207  11.997  18.861  0.00  0.00    +0.000 C 
ATOM     31  C   UNL     1      -3.318  11.283  17.524  0.00  0.00    +0.000 C 
ATOM     32  C   UNL     1      -2.903   9.832  17.694  0.00  0.00    +0.000 C 
ATOM     33  C   UNL     1      -1.501   9.724  18.315  0.00  0.00    +0.000 C 
ENDBRANCH  22  28
ENDBRANCH   4  22
TORSDOF 6
ENDMDL
MODEL 6
REMARK VINA RESULT:      -8.8      0.316      3.287
REMARK  Name = 
REMARK  12 active torsions:
REMARK  status: ('A' for Active; 'I' for Inactive)
REMARK    1  A    between atoms: C_1  and  C_2
REMARK    2  A    between atoms: C_2  and  C_3
REMARK    3  A    between atoms: C_2  and  C_4
REMARK    4  A    between atoms: C_2  and  C_5
REMARK    5  A    between atoms: C_7  and  C_8
REMARK    6  A    between atoms: C_11  and  C_12
REMARK    7  A    between atoms: C_12  and  N_13
REMARK    8  A    between atoms: C_26  and  C_27
REMARK    9  A    between atoms: C_27  and  C_28
REMARK   10  A    between atoms: C_27  and  C_29
REMARK   11  A    between atoms: C_27  and  C_30
REMARK   12  A    between atoms: C_31  and  O_32
REMARK                            x       y       z     vdW  Elec       q    Type
REMARK                         _______ _______ _______ _____ _____    ______ ____
ROOT
ATOM      1  C   UNL     1       1.854   7.665  19.870  0.00  0.00    +0.000 A 
ATOM      2  C   UNL     1       1.258   7.714  21.113  0.00  0.00    +0.000 A 
ATOM      3  S   UNL     1       0.577   9.258  21.380  0.00  0.00    +0.000 S 
ATOM      4  C   UNL     1       1.103   9.766  19.811  0.00  0.00    +0.000 A 
ATOM      5  N   UNL     1       1.779   8.846  19.146  0.00  0.00    +0.000 NA
ENDROOT
BRANCH   1   8
ATOM      6  C   UNL     1       3.111   4.099  19.443  0.00  0.00    +0.000 A 
ATOM      7  C   UNL     1       2.405   5.230  19.916  0.00  0.00    +0.000 A 
ATOM      8  C   UNL     1       2.562   6.498  19.352  0.00  0.00    +0.000 A 
ATOM      9  C   UNL     1       3.445   6.658  18.279  0.00  0.00    +0.000 A 
ATOM     10  C   UNL     1       4.172   5.581  17.734  0.00  0.00    +0.000 A 
ATOM     11  C   UNL     1       3.930   4.308  18.305  0.00  0.00    +0.000 A 
BRANCH   6  13
ATOM     12  C   UNL     1       2.030   1.829  19.329  0.00  0.00    +0.000 C 
ATOM     13  C   UNL     1       2.941   2.744  20.172  0.00  0.00    +0.000 C 
ATOM     14  C   UNL     1       2.287   2.911  21.573  0.00  0.00    +0.000 C 
ATOM     15  C   UNL     1       4.270   2.002  20.451  0.00  0.00    +0.000 C 
ENDBRANCH   6  13
BRANCH  10  16
ATOM     16  C   UNL     1       5.221   5.834  16.625  0.00  0.00    +0.000 C 
ATOM     17  C   UNL     1       4.918   7.091  15.765  0.00  0.00    +0.000 C 
ATOM     18  C   UNL     1       6.606   6.092  17.267  0.00  0.00    +0.000 C 
ATOM     19  C   UNL     1       5.334   4.656  15.634  0.00  0.00    +0.000 C 
ENDBRANCH  10  16
BRANCH  11  20
ATOM     20  O   UNL     1       4.464   3.215  17.685  0.00  0.00    +0.000 OA
ATOM     21  H   UNL     1       5.296   3.509  17.282  0.00  0.00    +0.000 HD
ENDBRANCH  11  20
ENDBRANCH   1   8
BRANCH   4  22
ATOM     22  C   UNL     1       0.800  11.187  19.246  0.00  0.00    +0.000 C 
ATOM     23  C   UNL     1       1.978  11.684  18.340  0.00  0.00    +0.000 C 
ATOM     24  C   UNL     1       1.930  13.178  18.063  0.00  0.00    +0.000 C 
ATOM     25  O   UNL     1       1.995  13.905  19.285  0.00  0.00    +0.000 OA
ATOM     26  C   UNL     1       0.866  13.630  20.109  0.00  0.00    +0.000 C 
ATOM     27  C   UNL     1       0.819  12.157  20.483  0.00  0.00    +0.000 C 
BRANCH  22  28
ATOM     28  N   UNL     1      -0.520  11.237  18.487  0.00  0.00    +0.000 NA
ATOM     29  C   UNL     1      -0.790  10.002  17.712  0.00  0.00    +0.000 C 
ATOM     30  C   UNL     1      -2.088  10.058  16.898  0.00  0.00    +0.000 C 
ATOM     31  C   UNL     1      -3.283  10.381  17.780  0.00  0.00    +0.000 C 
ATOM     32  C   UNL     1      -2.997  11.647  18.568  0.00  0.00    +0.000 C 
ATOM     33  C   UNL     1      -1.684  11.525  19.358  0.00  0.00    +0.000 C 
ENDBRANCH  22  28
ENDBRANCH   4  22
TORSDOF 6
ENDMDL
MODEL 7
REMARK VINA RESULT:      -8.8      0.166      1.105
REMARK  Name = 
REMARK  12 active torsions:
REMARK  status: ('A' for Active; 'I' for Inactive)
REMARK    1  A    between atoms: C_1  and  C_2
REMARK    2  A    between atoms: C_2  and  C_3
REMARK    3  A    between atoms: C_2  and  C_4
REMARK    4  A    between atoms: C_2  and  C_5
REMARK    5  A    between atoms: C_7  and  C_8
REMARK    6  A    between atoms: C_11  and  C_12
REMARK    7  A    between atoms: C_12  and  N_13
REMARK    8  A    between atoms: C_26  and  C_27
REMARK    9  A    between atoms: C_27  and  C_28
REMARK   10  A    between atoms: C_27  and  C_29
REMARK   11  A    between atoms: C_27  and  C_30
REMARK   12  A    between atoms: C_31  and  O_32
REMARK                            x       y       z     vdW  Elec       q    Type
REMARK                         _______ _______ _______ _____ _____    ______ ____
ROOT
ATOM      1  C   UNL     1       1.820   7.733  19.962  0.00  0.00    +0.000 A 
ATOM      2  C   UNL     1       1.135   7.748  21.159  0.00  0.00    +0.000 A 
ATOM      3  S   UNL     1       0.382   9.264  21.388  0.00  0.00    +0.000 S 
ATOM      4  C   UNL     1       1.002   9.807  19.866  0.00  0.00    +0.000 A 
ATOM      5  N   UNL     1       1.756   8.919  19.245  0.00  0.00    +0.000 NA
ENDROOT
BRANCH   1   8
ATOM      6  C   UNL     1       4.260   5.619  17.948  0.00  0.00    +0.000 A 
ATOM      7  C   UNL     1       3.518   6.720  18.437  0.00  0.00    +0.000 A 
ATOM      8  C   UNL     1       2.606   6.597  19.488  0.00  0.00    +0.000 A 
ATOM      9  C   UNL     1       2.421   5.345  20.081  0.00  0.00    +0.000 A 
ATOM     10  C   UNL     1       3.133   4.202  19.669  0.00  0.00    +0.000 A 
ATOM     11  C   UNL     1       4.088   4.395  18.641  0.00  0.00    +0.000 A 
BRANCH   6  13
ATOM     12  C   UNL     1       5.133   4.563  15.836  0.00  0.00    +0.000 C 
ATOM     13  C   UNL     1       5.193   5.819  16.729  0.00  0.00    +0.000 C 
ATOM     14  C   UNL     1       6.674   6.035  17.154  0.00  0.00    +0.000 C 
ATOM     15  C   UNL     1       4.854   7.059  15.866  0.00  0.00    +0.000 C 
ENDBRANCH   6  13
BRANCH  10  16
ATOM     16  C   UNL     1       2.806   2.819  20.281  0.00  0.00    +0.000 C 
ATOM     17  C   UNL     1       4.067   2.030  20.729  0.00  0.00    +0.000 C 
ATOM     18  C   UNL     1       1.953   3.003  21.560  0.00  0.00    +0.000 C 
ATOM     19  C   UNL     1       2.053   1.897  19.298  0.00  0.00    +0.000 C 
ENDBRANCH  10  16
BRANCH  11  20
ATOM     20  O   UNL     1       4.931   3.362  18.346  0.00  0.00    +0.000 OA
ATOM     21  H   UNL     1       4.440   2.547  18.535  0.00  0.00    +0.000 HD
ENDBRANCH  11  20
ENDBRANCH   1   8
BRANCH   4  22
ATOM     22  C   UNL     1       0.691  11.223  19.293  0.00  0.00    +0.000 C 
ATOM     23  C   UNL     1       1.888  11.744  18.427  0.00  0.00    +0.000 C 
ATOM     24  C   UNL     1       1.820  13.236  18.149  0.00  0.00    +0.000 C 
ATOM     25  O   UNL     1       1.830  13.963  19.373  0.00  0.00    +0.000 OA
ATOM     26  C   UNL     1       0.680  13.666  20.158  0.00  0.00    +0.000 C 
ATOM     27  C   UNL     1       0.649  12.191  20.530  0.00  0.00    +0.000 C 
BRANCH  22  28
ATOM     28  N   UNL     1      -0.604  11.248  18.490  0.00  0.00    +0.000 NA
ATOM     29  C   UNL     1      -0.829  10.006  17.712  0.00  0.00    +0.000 C 
ATOM     30  C   UNL     1      -2.100  10.037  16.856  0.00  0.00    +0.000 C 
ATOM     31  C   UNL     1      -3.328  10.344  17.696  0.00  0.00    +0.000 C 
ATOM     32  C   UNL     1      -3.089  11.618  18.487  0.00  0.00    +0.000 C 
ATOM     33  C   UNL     1      -1.801  11.521  19.321  0.00  0.00    +0.000 C 
ENDBRANCH  22  28
ENDBRANCH   4  22
TORSDOF 6
ENDMDL
MODEL 8
REMARK VINA RESULT:      -8.8      0.286      3.236
REMARK  Name = 
REMARK  12 active torsions:
REMARK  status: ('A' for Active; 'I' for Inactive)
REMARK    1  A    between atoms: C_1  and  C_2
REMARK    2  A    between atoms: C_2  and  C_3
REMARK    3  A    between atoms: C_2  and  C_4
REMARK    4  A    between atoms: C_2  and  C_5
REMARK    5  A    between atoms: C_7  and  C_8
REMARK    6  A    between atoms: C_11  and  C_12
REMARK    7  A    between atoms: C_12  and  N_13
REMARK    8  A    between atoms: C_26  and  C_27
REMARK    9  A    between atoms: C_27  and  C_28
REMARK   10  A    between atoms: C_27  and  C_29
REMARK   11  A    between atoms: C_27  and  C_30
REMARK   12  A    between atoms: C_31  and  O_32
REMARK                            x       y       z     vdW  Elec       q    Type
REMARK                         _______ _______ _______ _____ _____    ______ ____
ROOT
ATOM      1  C   UNL     1       1.834   7.674  19.906  0.00  0.00    +0.000 A 
ATOM      2  C   UNL     1       1.241   7.728  21.151  0.00  0.00    +0.000 A 
ATOM      3  S   UNL     1       0.561   9.272  21.414  0.00  0.00    +0.000 S 
ATOM      4  C   UNL     1       1.082   9.775  19.843  0.00  0.00    +0.000 A 
ATOM      5  N   UNL     1       1.756   8.853  19.179  0.00  0.00    +0.000 NA
ENDROOT
BRANCH   1   8
ATOM      6  C   UNL     1       3.076   4.104  19.476  0.00  0.00    +0.000 A 
ATOM      7  C   UNL     1       2.370   5.236  19.947  0.00  0.00    +0.000 A 
ATOM      8  C   UNL     1       2.541   6.506  19.391  0.00  0.00    +0.000 A 
ATOM      9  C   UNL     1       3.437   6.666  18.328  0.00  0.00    +0.000 A 
ATOM     10  C   UNL     1       4.163   5.588  17.786  0.00  0.00    +0.000 A 
ATOM     11  C   UNL     1       3.908   4.313  18.348  0.00  0.00    +0.000 A 
BRANCH   6  13
ATOM     12  C   UNL     1       4.273   2.100  20.418  0.00  0.00    +0.000 C 
ATOM     13  C   UNL     1       2.890   2.746  20.196  0.00  0.00    +0.000 C 
ATOM     14  C   UNL     1       2.027   1.755  19.363  0.00  0.00    +0.000 C 
ATOM     15  C   UNL     1       2.162   2.844  21.558  0.00  0.00    +0.000 C 
ENDBRANCH   6  13
BRANCH  10  16
ATOM     16  C   UNL     1       5.226   5.839  16.689  0.00  0.00    +0.000 C 
ATOM     17  C   UNL     1       5.285   4.714  15.620  0.00  0.00    +0.000 C 
ATOM     18  C   UNL     1       4.878   7.133  15.913  0.00  0.00    +0.000 C 
ATOM     19  C   UNL     1       6.654   5.960  17.262  0.00  0.00    +0.000 C 
ENDBRANCH  10  16
BRANCH  11  20
ATOM     20  O   UNL     1       4.442   3.220  17.728  0.00  0.00    +0.000 OA
ATOM     21  H   UNL     1       5.348   3.132  18.063  0.00  0.00    +0.000 HD
ENDBRANCH  11  20
ENDBRANCH   1   8
BRANCH   4  22
ATOM     22  C   UNL     1       0.777  11.194  19.274  0.00  0.00    +0.000 C 
ATOM     23  C   UNL     1       1.963  11.699  18.383  0.00  0.00    +0.000 C 
ATOM     24  C   UNL     1       1.908  13.192  18.105  0.00  0.00    +0.000 C 
ATOM     25  O   UNL     1       1.952  13.920  19.328  0.00  0.00    +0.000 OA
ATOM     26  C   UNL     1       0.815  13.638  20.137  0.00  0.00    +0.000 C 
ATOM     27  C   UNL     1       0.773  12.164  20.510  0.00  0.00    +0.000 C 
BRANCH  22  28
ATOM     28  N   UNL     1      -0.534  11.234  18.497  0.00  0.00    +0.000 NA
ATOM     29  C   UNL     1      -0.783  10.000  17.715  0.00  0.00    +0.000 C 
ATOM     30  C   UNL     1      -2.071  10.047  16.884  0.00  0.00    +0.000 C 
ATOM     31  C   UNL     1      -3.279  10.357  17.752  0.00  0.00    +0.000 C 
ATOM     32  C   UNL     1      -3.015  11.623  18.547  0.00  0.00    +0.000 C 
ATOM     33  C   UNL     1      -1.711  11.510  19.354  0.00  0.00    +0.000 C 
ENDBRANCH  22  28
ENDBRANCH   4  22
TORSDOF 6
ENDMDL
MODEL 9
REMARK VINA RESULT:      -8.7      1.706      2.552
REMARK  Name = 
REMARK  12 active torsions:
REMARK  status: ('A' for Active; 'I' for Inactive)
REMARK    1  A    between atoms: C_1  and  C_2
REMARK    2  A    between atoms: C_2  and  C_3
REMARK    3  A    between atoms: C_2  and  C_4
REMARK    4  A    between atoms: C_2  and  C_5
REMARK    5  A    between atoms: C_7  and  C_8
REMARK    6  A    between atoms: C_11  and  C_12
REMARK    7  A    between atoms: C_12  and  N_13
REMARK    8  A    between atoms: C_26  and  C_27
REMARK    9  A    between atoms: C_27  and  C_28
REMARK   10  A    between atoms: C_27  and  C_29
REMARK   11  A    between atoms: C_27  and  C_30
REMARK   12  A    between atoms: C_31  and  O_32
REMARK                            x       y       z     vdW  Elec       q    Type
REMARK                         _______ _______ _______ _____ _____    ______ ____
ROOT
ATOM      1  C   UNL     1       2.397   8.022  18.555  0.00  0.00    +0.000 A 
ATOM      2  C   UNL     1       2.683   9.030  17.657  0.00  0.00    +0.000 A 
ATOM      3  S   UNL     1       1.741  10.412  18.001  0.00  0.00    +0.000 S 
ATOM      4  C   UNL     1       1.017   9.590  19.341  0.00  0.00    +0.000 A 
ATOM      5  N   UNL     1       1.430   8.345  19.496  0.00  0.00    +0.000 NA
ENDROOT
BRANCH   1   8
ATOM      6  C   UNL     1       4.741   5.150  17.700  0.00  0.00    +0.000 A 
ATOM      7  C   UNL     1       4.164   6.439  17.777  0.00  0.00    +0.000 A 
ATOM      8  C   UNL     1       3.003   6.695  18.510  0.00  0.00    +0.000 A 
ATOM      9  C   UNL     1       2.391   5.643  19.198  0.00  0.00    +0.000 A 
ATOM     10  C   UNL     1       2.911   4.334  19.192  0.00  0.00    +0.000 A 
ATOM     11  C   UNL     1       4.122   4.143  18.481  0.00  0.00    +0.000 A 
BRANCH   6  13
ATOM     12  C   UNL     1       5.711   3.756  15.843  0.00  0.00    +0.000 C 
ATOM     13  C   UNL     1       5.984   4.931  16.803  0.00  0.00    +0.000 C 
ATOM     14  C   UNL     1       7.253   4.586  17.634  0.00  0.00    +0.000 C 
ATOM     15  C   UNL     1       6.392   6.170  15.970  0.00  0.00    +0.000 C 
ENDBRANCH   6  13
BRANCH  10  16
ATOM     16  C   UNL     1       2.131   3.184  19.873  0.00  0.00    +0.000 C 
ATOM     17  C   UNL     1       1.981   1.925  18.974  0.00  0.00    +0.000 C 
ATOM     18  C   UNL     1       2.897   2.708  21.131  0.00  0.00    +0.000 C 
ATOM     19  C   UNL     1       0.699   3.593  20.276  0.00  0.00    +0.000 C 
ENDBRANCH  10  16
BRANCH  11  20
ATOM     20  O   UNL     1       4.758   2.941  18.609  0.00  0.00    +0.000 OA
ATOM     21  H   UNL     1       5.137   2.740  17.739  0.00  0.00    +0.000 HD
ENDBRANCH  11  20
ENDBRANCH   1   8
BRANCH   4  22
ATOM     22  C   UNL     1      -0.030  10.271  20.274  0.00  0.00    +0.000 C 
ATOM     23  C   UNL     1       0.498  11.656  20.780  0.00  0.00    +0.000 C 
ATOM     24  C   UNL     1      -0.284  12.198  21.965  0.00  0.00    +0.000 C 
ATOM     25  O   UNL     1      -0.211  11.288  23.058  0.00  0.00    +0.000 OA
ATOM     26  C   UNL     1      -0.820  10.042  22.732  0.00  0.00    +0.000 C 
ATOM     27  C   UNL     1      -0.101   9.380  21.567  0.00  0.00    +0.000 C 
BRANCH  22  28
ATOM     28  N   UNL     1      -1.388  10.427  19.600  0.00  0.00    +0.000 NA
ATOM     29  C   UNL     1      -1.786  11.844  19.417  0.00  0.00    +0.000 C 
ATOM     30  C   UNL     1      -3.174  12.018  18.790  0.00  0.00    +0.000 C 
ATOM     31  C   UNL     1      -3.281  11.280  17.466  0.00  0.00    +0.000 C 
ATOM     32  C   UNL     1      -2.874   9.831  17.664  0.00  0.00    +0.000 C 
ATOM     33  C   UNL     1      -1.476   9.728  18.296  0.00  0.00    +0.000 C 
ENDBRANCH  22  28
ENDBRANCH   4  22
TORSDOF 6
ENDMDL
