MODEL 1
REMARK VINA RESULT:      -5.3      0.000      0.000
REMARK  Name = 
REMARK  3 active torsions:
REMARK  status: ('A' for Active; 'I' for Inactive)
REMARK    1  A    between atoms: C_1  and  C_2
REMARK    2  A    between atoms: C_2  and  C_3
REMARK    3  A    between atoms: C_10  and  C_12
REMARK                            x       y       z     vdW  Elec       q    Type
REMARK                         _______ _______ _______ _____ _____    ______ ____
ROOT
ATOM      1  C   UNL     1      12.304  14.673  19.863  0.00  0.00    +0.000 C 
ATOM      2  C   UNL     1      11.390  13.534  19.389  0.00  0.00    +0.000 C 
ATOM      3  C   UNL     1      12.333  12.290  19.458  0.00  0.00    +0.000 C 
ATOM      4  C   UNL     1      10.608  13.714  18.014  0.00  0.00    +0.000 C 
ATOM      5 CL   UNL     1      11.463  13.194  16.515  0.00  0.00    +0.000 Cl
ATOM      6  C   UNL     1       9.878  15.063  17.775  0.00  0.00    +0.000 C 
ATOM      7 CL   UNL     1      10.984  16.444  17.522  0.00  0.00    +0.000 Cl
ATOM      8  C   UNL     1       8.813  15.378  18.862  0.00  0.00    +0.000 C 
ATOM      9 CL   UNL     1       7.200  15.026  18.042  0.00  0.00    +0.000 Cl
ATOM     10  C   UNL     1       8.986  14.628  20.264  0.00  0.00    +0.000 C 
ATOM     11 CL   UNL     1       9.887  15.754  21.391  0.00  0.00    +0.000 Cl
ATOM     12  C   UNL     1       9.894  13.322  20.027  0.00  0.00    +0.000 C 
ATOM     13 CL   UNL     1       9.901  12.156  21.394  0.00  0.00    +0.000 Cl
ATOM     14  C   UNL     1       9.539  12.720  18.611  0.00  0.00    +0.000 C 
ATOM     15 CL   UNL     1       9.542  10.893  18.247  0.00  0.00    +0.000 Cl
ENDROOT
BRANCH  10  16
ATOM     16  C   UNL     1       7.584  14.363  20.953  0.00  0.00    +0.000 C 
ATOM     17 CL   UNL     1       7.591  13.789  22.664  0.00  0.00    +0.000 Cl
ATOM     18 CL   UNL     1       6.571  15.876  21.055  0.00  0.00    +0.000 Cl
ENDBRANCH  10  16
TORSDOF 1
ENDMDL
MODEL 2
REMARK VINA RESULT:      -5.1      9.807     12.208
REMARK  Name = 
REMARK  3 active torsions:
REMARK  status: ('A' for Active; 'I' for Inactive)
REMARK    1  A    between atoms: C_1  and  C_2
REMARK    2  A    between atoms: C_2  and  C_3
REMARK    3  A    between atoms: C_10  and  C_12
REMARK                            x       y       z     vdW  Elec       q    Type
REMARK                         _______ _______ _______ _____ _____    ______ ____
ROOT
ATOM      1  C   UNL     1       1.584   4.403  17.794  0.00  0.00    +0.000 C 
ATOM      2  C   UNL     1       2.582   3.512  18.547  0.00  0.00    +0.000 C 
ATOM      3  C   UNL     1       1.768   2.196  18.763  0.00  0.00    +0.000 C 
ATOM      4  C   UNL     1       3.283   4.095  19.852  0.00  0.00    +0.000 C 
ATOM      5 CL   UNL     1       2.418   3.861  21.416  0.00  0.00    +0.000 Cl
ATOM      6  C   UNL     1       3.867   5.531  19.772  0.00  0.00    +0.000 C 
ATOM      7 CL   UNL     1       2.624   6.809  19.662  0.00  0.00    +0.000 Cl
ATOM      8  C   UNL     1       4.944   5.687  18.661  0.00  0.00    +0.000 C 
ATOM      9 CL   UNL     1       6.546   5.710  19.573  0.00  0.00    +0.000 Cl
ATOM     10  C   UNL     1       4.906   4.610  17.480  0.00  0.00    +0.000 C 
ATOM     11 CL   UNL     1       3.949   5.334  16.097  0.00  0.00    +0.000 Cl
ATOM     12  C   UNL     1       4.118   3.311  18.008  0.00  0.00    +0.000 C 
ATOM     13 CL   UNL     1       4.284   1.859  16.963  0.00  0.00    +0.000 Cl
ATOM     14  C   UNL     1       4.468   3.104  19.534  0.00  0.00    +0.000 C 
ATOM     15 CL   UNL     1       4.626   1.427  20.328  0.00  0.00    +0.000 Cl
ENDROOT
BRANCH  10  16
ATOM     16  C   UNL     1       6.355   4.336  16.901  0.00  0.00    +0.000 C 
ATOM     17 CL   UNL     1       6.473   3.637  15.241  0.00  0.00    +0.000 Cl
ATOM     18 CL   UNL     1       7.335   5.867  16.749  0.00  0.00    +0.000 Cl
ENDBRANCH  10  16
TORSDOF 1
ENDMDL
MODEL 3
REMARK VINA RESULT:      -5.1      1.733      4.487
REMARK  Name = 
REMARK  3 active torsions:
REMARK  status: ('A' for Active; 'I' for Inactive)
REMARK    1  A    between atoms: C_1  and  C_2
REMARK    2  A    between atoms: C_2  and  C_3
REMARK    3  A    between atoms: C_10  and  C_12
REMARK                            x       y       z     vdW  Elec       q    Type
REMARK                         _______ _______ _______ _____ _____    ______ ____
ROOT
ATOM      1  C   UNL     1       9.778  15.331  21.972  0.00  0.00    +0.000 C 
ATOM      2  C   UNL     1       9.967  15.827  20.532  0.00  0.00    +0.000 C 
ATOM      3  C   UNL     1      10.748  17.166  20.732  0.00  0.00    +0.000 C 
ATOM      4  C   UNL     1       8.687  15.927  19.591  0.00  0.00    +0.000 C 
ATOM      5 CL   UNL     1       7.758  17.471  19.637  0.00  0.00    +0.000 Cl
ATOM      6  C   UNL     1       7.715  14.716  19.571  0.00  0.00    +0.000 C 
ATOM      7 CL   UNL     1       6.794  14.509  21.088  0.00  0.00    +0.000 Cl
ATOM      8  C   UNL     1       8.404  13.392  19.137  0.00  0.00    +0.000 C 
ATOM      9 CL   UNL     1       7.843  13.129  17.400  0.00  0.00    +0.000 Cl
ATOM     10  C   UNL     1       9.993  13.330  19.303  0.00  0.00    +0.000 C 
ATOM     11 CL   UNL     1      10.355  12.525  20.907  0.00  0.00    +0.000 Cl
ATOM     12  C   UNL     1      10.552  14.838  19.361  0.00  0.00    +0.000 C 
ATOM     13 CL   UNL     1      12.333  14.984  19.179  0.00  0.00    +0.000 Cl
ATOM     14  C   UNL     1       9.685  15.727  18.385  0.00  0.00    +0.000 C 
ATOM     15 CL   UNL     1      10.384  17.148  17.404  0.00  0.00    +0.000 Cl
ENDROOT
BRANCH  10  16
ATOM     16  C   UNL     1      10.654  12.405  18.200  0.00  0.00    +0.000 C 
ATOM     17 CL   UNL     1      11.292  13.204  16.713  0.00  0.00    +0.000 Cl
ATOM     18 CL   UNL     1      12.122  11.526  18.830  0.00  0.00    +0.000 Cl
ENDBRANCH  10  16
TORSDOF 1
ENDMDL
MODEL 4
REMARK VINA RESULT:      -5.0      1.708      3.869
REMARK  Name = 
REMARK  3 active torsions:
REMARK  status: ('A' for Active; 'I' for Inactive)
REMARK    1  A    between atoms: C_1  and  C_2
REMARK    2  A    between atoms: C_2  and  C_3
REMARK    3  A    between atoms: C_10  and  C_12
REMARK                            x       y       z     vdW  Elec       q    Type
REMARK                         _______ _______ _______ _____ _____    ______ ____
ROOT
ATOM      1  C   UNL     1      11.200  13.086  17.444  0.00  0.00    +0.000 C 
ATOM      2  C   UNL     1      10.921  13.694  18.826  0.00  0.00    +0.000 C 
ATOM      3  C   UNL     1      12.014  13.025  19.720  0.00  0.00    +0.000 C 
ATOM      4  C   UNL     1       9.438  13.617  19.401  0.00  0.00    +0.000 C 
ATOM      5 CL   UNL     1       9.002  12.142  20.340  0.00  0.00    +0.000 Cl
ATOM      6  C   UNL     1       8.278  14.009  18.447  0.00  0.00    +0.000 C 
ATOM      7 CL   UNL     1       8.007  12.837  17.126  0.00  0.00    +0.000 Cl
ATOM      8  C   UNL     1       8.401  15.460  17.905  0.00  0.00    +0.000 C 
ATOM      9 CL   UNL     1       7.157  16.420  18.870  0.00  0.00    +0.000 Cl
ATOM     10  C   UNL     1       9.861  16.109  17.938  0.00  0.00    +0.000 C 
ATOM     11 CL   UNL     1      10.621  15.857  16.291  0.00  0.00    +0.000 Cl
ATOM     12  C   UNL     1      10.742  15.312  19.023  0.00  0.00    +0.000 C 
ATOM     13 CL   UNL     1      12.286  16.114  19.469  0.00  0.00    +0.000 Cl
ATOM     14  C   UNL     1       9.802  14.911  20.227  0.00  0.00    +0.000 C 
ATOM     15 CL   UNL     1      10.377  14.852  21.998  0.00  0.00    +0.000 Cl
ENDROOT
BRANCH  10  16
ATOM     16  C   UNL     1       9.792  17.678  18.141  0.00  0.00    +0.000 C 
ATOM     17 CL   UNL     1       9.923  18.308  19.828  0.00  0.00    +0.000 Cl
ATOM     18 CL   UNL     1      11.158  18.543  17.297  0.00  0.00    +0.000 Cl
ENDBRANCH  10  16
TORSDOF 1
ENDMDL
MODEL 5
REMARK VINA RESULT:      -4.8      1.681      4.227
REMARK  Name = 
REMARK  3 active torsions:
REMARK  status: ('A' for Active; 'I' for Inactive)
REMARK    1  A    between atoms: C_1  and  C_2
REMARK    2  A    between atoms: C_2  and  C_3
REMARK    3  A    between atoms: C_10  and  C_12
REMARK                            x       y       z     vdW  Elec       q    Type
REMARK                         _______ _______ _______ _____ _____    ______ ____
ROOT
ATOM      1  C   UNL     1       9.831  15.249  21.968  0.00  0.00    +0.000 C 
ATOM      2  C   UNL     1      10.142  15.682  20.528  0.00  0.00    +0.000 C 
ATOM      3  C   UNL     1      11.159  16.850  20.736  0.00  0.00    +0.000 C 
ATOM      4  C   UNL     1       8.924  16.011  19.556  0.00  0.00    +0.000 C 
ATOM      5 CL   UNL     1       8.305  17.704  19.569  0.00  0.00    +0.000 Cl
ATOM      6  C   UNL     1       7.741  15.007  19.524  0.00  0.00    +0.000 C 
ATOM      7 CL   UNL     1       6.765  14.997  21.021  0.00  0.00    +0.000 Cl
ATOM      8  C   UNL     1       8.174  13.571  19.117  0.00  0.00    +0.000 C 
ATOM      9 CL   UNL     1       7.611  13.397  17.370  0.00  0.00    +0.000 Cl
ATOM     10  C   UNL     1       9.718  13.211  19.321  0.00  0.00    +0.000 C 
ATOM     11 CL   UNL     1       9.887  12.372  20.939  0.00  0.00    +0.000 Cl
ATOM     12  C   UNL     1      10.552  14.586  19.380  0.00  0.00    +0.000 C 
ATOM     13 CL   UNL     1      12.332  14.388  19.238  0.00  0.00    +0.000 Cl
ATOM     14  C   UNL     1       9.891  15.610  18.376  0.00  0.00    +0.000 C 
ATOM     15 CL   UNL     1      10.869  16.860  17.400  0.00  0.00    +0.000 Cl
ENDROOT
BRANCH  10  16
ATOM     16  C   UNL     1      10.214  12.163  18.241  0.00  0.00    +0.000 C 
ATOM     17 CL   UNL     1      11.884  11.503  18.423  0.00  0.00    +0.000 Cl
ATOM     18 CL   UNL     1       9.197  10.649  18.234  0.00  0.00    +0.000 Cl
ENDBRANCH  10  16
TORSDOF 1
ENDMDL
MODEL 6
REMARK VINA RESULT:      -4.7      1.678      4.268
REMARK  Name = 
REMARK  3 active torsions:
REMARK  status: ('A' for Active; 'I' for Inactive)
REMARK    1  A    between atoms: C_1  and  C_2
REMARK    2  A    between atoms: C_2  and  C_3
REMARK    3  A    between atoms: C_10  and  C_12
REMARK                            x       y       z     vdW  Elec       q    Type
REMARK                         _______ _______ _______ _____ _____    ______ ____
ROOT
ATOM      1  C   UNL     1       7.988  13.889  18.151  0.00  0.00    +0.000 C 
ATOM      2  C   UNL     1       9.355  13.435  18.682  0.00  0.00    +0.000 C 
ATOM      3  C   UNL     1       9.604  12.110  17.890  0.00  0.00    +0.000 C 
ATOM      4  C   UNL     1       9.558  13.329  20.257  0.00  0.00    +0.000 C 
ATOM      5 CL   UNL     1       9.118  11.762  21.033  0.00  0.00    +0.000 Cl
ATOM      6  C   UNL     1       9.062  14.516  21.125  0.00  0.00    +0.000 C 
ATOM      7 CL   UNL     1       7.283  14.664  21.194  0.00  0.00    +0.000 Cl
ATOM      8  C   UNL     1       9.732  15.866  20.746  0.00  0.00    +0.000 C 
ATOM      9 CL   UNL     1      10.967  16.160  22.083  0.00  0.00    +0.000 Cl
ATOM     10  C   UNL     1      10.357  15.961  19.277  0.00  0.00    +0.000 C 
ATOM     11 CL   UNL     1       9.106  16.734  18.188  0.00  0.00    +0.000 Cl
ATOM     12  C   UNL     1      10.628  14.466  18.749  0.00  0.00    +0.000 C 
ATOM     13 CL   UNL     1      11.657  14.367  17.280  0.00  0.00    +0.000 Cl
ATOM     14  C   UNL     1      11.089  13.582  19.973  0.00  0.00    +0.000 C 
ATOM     15 CL   UNL     1      12.333  12.203  19.828  0.00  0.00    +0.000 Cl
ENDROOT
BRANCH  10  16
ATOM     16  C   UNL     1      11.610  16.929  19.245  0.00  0.00    +0.000 C 
ATOM     17 CL   UNL     1      12.287  17.364  17.629  0.00  0.00    +0.000 Cl
ATOM     18 CL   UNL     1      11.235  18.564  19.961  0.00  0.00    +0.000 Cl
ENDBRANCH  10  16
TORSDOF 1
ENDMDL
MODEL 7
REMARK VINA RESULT:      -4.6      1.738      3.208
REMARK  Name = 
REMARK  3 active torsions:
REMARK  status: ('A' for Active; 'I' for Inactive)
REMARK    1  A    between atoms: C_1  and  C_2
REMARK    2  A    between atoms: C_2  and  C_3
REMARK    3  A    between atoms: C_10  and  C_12
REMARK                            x       y       z     vdW  Elec       q    Type
REMARK                         _______ _______ _______ _____ _____    ______ ____
ROOT
ATOM      1  C   UNL     1       9.012  12.325  21.015  0.00  0.00    +0.000 C 
ATOM      2  C   UNL     1       9.548  12.726  19.633  0.00  0.00    +0.000 C 
ATOM      3  C   UNL     1      10.058  11.365  19.058  0.00  0.00    +0.000 C 
ATOM      4  C   UNL     1      10.588  13.929  19.544  0.00  0.00    +0.000 C 
ATOM      5 CL   UNL     1      12.333  13.514  19.724  0.00  0.00    +0.000 Cl
ATOM      6  C   UNL     1      10.258  15.221  20.339  0.00  0.00    +0.000 C 
ATOM      7 CL   UNL     1      10.377  15.026  22.111  0.00  0.00    +0.000 Cl
ATOM      8  C   UNL     1       8.903  15.859  19.925  0.00  0.00    +0.000 C 
ATOM      9 CL   UNL     1       9.373  17.310  18.889  0.00  0.00    +0.000 Cl
ATOM     10  C   UNL     1       7.850  14.890  19.212  0.00  0.00    +0.000 C 
ATOM     11 CL   UNL     1       6.707  14.265  20.498  0.00  0.00    +0.000 Cl
ATOM     12  C   UNL     1       8.653  13.636  18.603  0.00  0.00    +0.000 C 
ATOM     13 CL   UNL     1       7.708  12.627  17.456  0.00  0.00    +0.000 Cl
ATOM     14  C   UNL     1      10.051  14.149  18.077  0.00  0.00    +0.000 C 
ATOM     15 CL   UNL     1      10.898  13.447  16.574  0.00  0.00    +0.000 Cl
ENDROOT
BRANCH  10  16
ATOM     16  C   UNL     1       6.944  15.680  18.181  0.00  0.00    +0.000 C 
ATOM     17 CL   UNL     1       5.444  14.866  17.593  0.00  0.00    +0.000 Cl
ATOM     18 CL   UNL     1       6.294  17.232  18.885  0.00  0.00    +0.000 Cl
ENDBRANCH  10  16
TORSDOF 1
ENDMDL
MODEL 8
REMARK VINA RESULT:      -4.5      1.752      3.610
REMARK  Name = 
REMARK  3 active torsions:
REMARK  status: ('A' for Active; 'I' for Inactive)
REMARK    1  A    between atoms: C_1  and  C_2
REMARK    2  A    between atoms: C_2  and  C_3
REMARK    3  A    between atoms: C_10  and  C_12
REMARK                            x       y       z     vdW  Elec       q    Type
REMARK                         _______ _______ _______ _____ _____    ______ ____
ROOT
ATOM      1  C   UNL     1      10.778  13.067  20.686  0.00  0.00    +0.000 C 
ATOM      2  C   UNL     1       9.559  13.702  20.003  0.00  0.00    +0.000 C 
ATOM      3  C   UNL     1       8.363  13.080  20.795  0.00  0.00    +0.000 C 
ATOM      4  C   UNL     1       9.443  13.605  18.418  0.00  0.00    +0.000 C 
ATOM      5 CL   UNL     1       8.629  12.144  17.747  0.00  0.00    +0.000 Cl
ATOM      6  C   UNL     1      10.707  13.946  17.585  0.00  0.00    +0.000 C 
ATOM      7 CL   UNL     1      12.014  12.736  17.732  0.00  0.00    +0.000 Cl
ATOM      8  C   UNL     1      11.232  15.386  17.840  0.00  0.00    +0.000 C 
ATOM      9 CL   UNL     1      10.705  16.340  16.353  0.00  0.00    +0.000 Cl
ATOM     10  C   UNL     1      10.791  16.069  19.217  0.00  0.00    +0.000 C 
ATOM     11 CL   UNL     1      12.134  15.795  20.431  0.00  0.00    +0.000 Cl
ATOM     12  C   UNL     1       9.472  15.320  19.750  0.00  0.00    +0.000 C 
ATOM     13 CL   UNL     1       8.616  16.168  21.083  0.00  0.00    +0.000 Cl
ATOM     14  C   UNL     1       8.586  14.927  18.504  0.00  0.00    +0.000 C 
ATOM     15 CL   UNL     1       6.723  14.925  18.533  0.00  0.00    +0.000 Cl
ENDROOT
BRANCH  10  16
ATOM     16  C   UNL     1      10.664  17.641  19.067  0.00  0.00    +0.000 C 
ATOM     17 CL   UNL     1       9.038  18.313  18.665  0.00  0.00    +0.000 Cl
ATOM     18 CL   UNL     1      11.074  18.515  20.615  0.00  0.00    +0.000 Cl
ENDBRANCH  10  16
TORSDOF 1
ENDMDL
MODEL 9
REMARK VINA RESULT:      -4.5      1.556      3.659
REMARK  Name = 
REMARK  3 active torsions:
REMARK  status: ('A' for Active; 'I' for Inactive)
REMARK    1  A    between atoms: C_1  and  C_2
REMARK    2  A    between atoms: C_2  and  C_3
REMARK    3  A    between atoms: C_10  and  C_12
REMARK                            x       y       z     vdW  Elec       q    Type
REMARK                         _______ _______ _______ _____ _____    ______ ____
ROOT
ATOM      1  C   UNL     1       7.825  15.555  17.643  0.00  0.00    +0.000 C 
ATOM      2  C   UNL     1       9.198  15.713  18.313  0.00  0.00    +0.000 C 
ATOM      3  C   UNL     1       9.781  16.975  17.600  0.00  0.00    +0.000 C 
ATOM      4  C   UNL     1      10.169  14.452  18.355  0.00  0.00    +0.000 C 
ATOM      5 CL   UNL     1      11.264  14.218  16.943  0.00  0.00    +0.000 Cl
ATOM      6  C   UNL     1       9.560  13.093  18.794  0.00  0.00    +0.000 C 
ATOM      7 CL   UNL     1       8.428  12.394  17.602  0.00  0.00    +0.000 Cl
ATOM      8  C   UNL     1       8.934  13.138  20.215  0.00  0.00    +0.000 C 
ATOM      9 CL   UNL     1      10.161  12.274  21.287  0.00  0.00    +0.000 Cl
ATOM     10  C   UNL     1       8.524  14.582  20.765  0.00  0.00    +0.000 C 
ATOM     11 CL   UNL     1       6.745  14.829  20.409  0.00  0.00    +0.000 Cl
ATOM     12  C   UNL     1       9.357  15.688  19.945  0.00  0.00    +0.000 C 
ATOM     13 CL   UNL     1       9.311  17.338  20.654  0.00  0.00    +0.000 Cl
ATOM     14  C   UNL     1      10.794  15.107  19.647  0.00  0.00    +0.000 C 
ATOM     15 CL   UNL     1      12.333  16.155  19.605  0.00  0.00    +0.000 Cl
ENDROOT
BRANCH  10  16
ATOM     16  C   UNL     1       8.661  14.662  22.341  0.00  0.00    +0.000 C 
ATOM     17 CL   UNL     1      10.149  15.433  23.012  0.00  0.00    +0.000 Cl
ATOM     18 CL   UNL     1       7.333  15.657  23.097  0.00  0.00    +0.000 Cl
ENDBRANCH  10  16
TORSDOF 1
ENDMDL
