MODEL 1
REMARK VINA RESULT:      -7.4      0.000      0.000
REMARK  Name = 
REMARK  1 active torsions:
REMARK  status: ('A' for Active; 'I' for Inactive)
REMARK    1  A    between atoms: N_12  and  C_13
REMARK                            x       y       z     vdW  Elec       q    Type
REMARK                         _______ _______ _______ _____ _____    ______ ____
ROOT
ATOM      1  O   UNL     1       6.501   5.181  19.756  0.00  0.00    +0.000 OA
ATOM      2  C   UNL     1       6.119   4.848  18.633  0.00  0.00    +0.000 A 
ATOM      3  N   UNL     1       7.016   4.925  17.601  0.00  0.00    +0.000 N 
ATOM      4  C   UNL     1       6.696   4.672  16.273  0.00  0.00    +0.000 A 
ATOM      5  C   UNL     1       7.644   4.889  15.274  0.00  0.00    +0.000 A 
ATOM      6  C   UNL     1       7.283   4.734  13.933  0.00  0.00    +0.000 A 
ATOM      7  C   UNL     1       5.985   4.349  13.597  0.00  0.00    +0.000 A 
ATOM      8  C   UNL     1       5.052   4.088  14.602  0.00  0.00    +0.000 A 
ATOM      9  C   UNL     1       5.416   4.246  15.943  0.00  0.00    +0.000 A 
ATOM     10  C   UNL     1       4.450   3.986  17.030  0.00  0.00    +0.000 A 
ATOM     11  O   UNL     1       3.363   3.502  16.733  0.00  0.00    +0.000 OA
ATOM     12  N   UNL     1       4.851   4.359  18.322  0.00  0.00    +0.000 N 
ATOM     13  H   UNL     1       7.938   5.258  17.857  0.00  0.00    +0.000 HD
ENDROOT
BRANCH  12  14
ATOM     14  C   UNL     1       3.903   4.221  19.378  0.00  0.00    +0.000 A 
ATOM     15  C   UNL     1       3.738   2.985  20.019  0.00  0.00    +0.000 A 
ATOM     16  C   UNL     1       2.796   2.837  21.038  0.00  0.00    +0.000 A 
ATOM     17  C   UNL     1       1.983   3.913  21.393  0.00  0.00    +0.000 A 
ATOM     18  C   UNL     1       2.136   5.139  20.747  0.00  0.00    +0.000 A 
ATOM     19 CL   UNL     1       1.093   6.449  21.151  0.00  0.00    +0.000 Cl
ATOM     20  C   UNL     1       3.107   5.308  19.761  0.00  0.00    +0.000 A 
ENDBRANCH  12  14
TORSDOF 1
ENDMDL
MODEL 2
REMARK VINA RESULT:      -7.2      2.768      6.162
REMARK  Name = 
REMARK  1 active torsions:
REMARK  status: ('A' for Active; 'I' for Inactive)
REMARK    1  A    between atoms: N_12  and  C_13
REMARK                            x       y       z     vdW  Elec       q    Type
REMARK                         _______ _______ _______ _____ _____    ______ ____
ROOT
ATOM      1  O   UNL     1       4.104   6.974  17.209  0.00  0.00    +0.000 OA
ATOM      2  C   UNL     1       3.765   5.889  17.685  0.00  0.00    +0.000 A 
ATOM      3  N   UNL     1       2.784   5.887  18.642  0.00  0.00    +0.000 N 
ATOM      4  C   UNL     1       2.372   4.752  19.330  0.00  0.00    +0.000 A 
ATOM      5  C   UNL     1       1.450   4.863  20.369  0.00  0.00    +0.000 A 
ATOM      6  C   UNL     1       1.122   3.734  21.124  0.00  0.00    +0.000 A 
ATOM      7  C   UNL     1       1.701   2.500  20.829  0.00  0.00    +0.000 A 
ATOM      8  C   UNL     1       2.589   2.384  19.758  0.00  0.00    +0.000 A 
ATOM      9  C   UNL     1       2.918   3.516  19.005  0.00  0.00    +0.000 A 
ATOM     10  C   UNL     1       3.860   3.429  17.871  0.00  0.00    +0.000 A 
ATOM     11  O   UNL     1       4.244   2.317  17.524  0.00  0.00    +0.000 OA
ATOM     12  N   UNL     1       4.271   4.646  17.308  0.00  0.00    +0.000 N 
ATOM     13  H   UNL     1       2.415   6.799  18.880  0.00  0.00    +0.000 HD
ENDROOT
BRANCH  12  14
ATOM     14  C   UNL     1       5.261   4.604  16.282  0.00  0.00    +0.000 A 
ATOM     15  C   UNL     1       6.552   5.094  16.530  0.00  0.00    +0.000 A 
ATOM     16  C   UNL     1       7.518   5.076  15.524  0.00  0.00    +0.000 A 
ATOM     17  C   UNL     1       7.189   4.610  14.251  0.00  0.00    +0.000 A 
ATOM     18  C   UNL     1       5.902   4.136  14.000  0.00  0.00    +0.000 A 
ATOM     19 CL   UNL     1       5.484   3.612  12.414  0.00  0.00    +0.000 Cl
ATOM     20  C   UNL     1       4.944   4.106  15.013  0.00  0.00    +0.000 A 
ENDBRANCH  12  14
TORSDOF 1
ENDMDL
MODEL 3
REMARK VINA RESULT:      -7.1      4.070      6.558
REMARK  Name = 
REMARK  1 active torsions:
REMARK  status: ('A' for Active; 'I' for Inactive)
REMARK    1  A    between atoms: N_12  and  C_13
REMARK                            x       y       z     vdW  Elec       q    Type
REMARK                         _______ _______ _______ _____ _____    ______ ____
ROOT
ATOM      1  O   UNL     1       2.236   5.311  20.976  0.00  0.00    +0.000 OA
ATOM      2  C   UNL     1       2.081   6.395  20.411  0.00  0.00    +0.000 A 
ATOM      3  N   UNL     1       1.472   7.403  21.111  0.00  0.00    +0.000 N 
ATOM      4  C   UNL     1       1.149   8.641  20.569  0.00  0.00    +0.000 A 
ATOM      5  C   UNL     1       0.425   9.564  21.321  0.00  0.00    +0.000 A 
ATOM      6  C   UNL     1       0.013  10.763  20.734  0.00  0.00    +0.000 A 
ATOM      7  C   UNL     1       0.339  11.041  19.406  0.00  0.00    +0.000 A 
ATOM      8  C   UNL     1       1.103  10.134  18.670  0.00  0.00    +0.000 A 
ATOM      9  C   UNL     1       1.513   8.934  19.261  0.00  0.00    +0.000 A 
ATOM     10  C   UNL     1       2.316   7.949  18.507  0.00  0.00    +0.000 A 
ATOM     11  O   UNL     1       2.726   8.269  17.396  0.00  0.00    +0.000 OA
ATOM     12  N   UNL     1       2.507   6.702  19.120  0.00  0.00    +0.000 N 
ATOM     13  H   UNL     1       1.195   7.163  22.055  0.00  0.00    +0.000 HD
ENDROOT
BRANCH  12  14
ATOM     14  C   UNL     1       3.186   5.692  18.375  0.00  0.00    +0.000 A 
ATOM     15  C   UNL     1       2.458   4.667  17.754  0.00  0.00    +0.000 A 
ATOM     16  C   UNL     1       3.118   3.664  17.042  0.00  0.00    +0.000 A 
ATOM     17  C   UNL     1       4.511   3.654  16.986  0.00  0.00    +0.000 A 
ATOM     18  C   UNL     1       5.236   4.665  17.615  0.00  0.00    +0.000 A 
ATOM     19 CL   UNL     1       6.958   4.619  17.588  0.00  0.00    +0.000 Cl
ATOM     20  C   UNL     1       4.583   5.698  18.287  0.00  0.00    +0.000 A 
ENDBRANCH  12  14
TORSDOF 1
ENDMDL
MODEL 4
REMARK VINA RESULT:      -6.8      5.406      6.836
REMARK  Name = 
REMARK  1 active torsions:
REMARK  status: ('A' for Active; 'I' for Inactive)
REMARK    1  A    between atoms: N_12  and  C_13
REMARK                            x       y       z     vdW  Elec       q    Type
REMARK                         _______ _______ _______ _____ _____    ______ ____
ROOT
ATOM      1  O   UNL     1       0.527   8.654  21.733  0.00  0.00    +0.000 OA
ATOM      2  C   UNL     1       1.146   8.364  20.707  0.00  0.00    +0.000 A 
ATOM      3  N   UNL     1       1.807   7.165  20.674  0.00  0.00    +0.000 N 
ATOM      4  C   UNL     1       2.618   6.754  19.624  0.00  0.00    +0.000 A 
ATOM      5  C   UNL     1       3.345   5.569  19.727  0.00  0.00    +0.000 A 
ATOM      6  C   UNL     1       4.239   5.216  18.712  0.00  0.00    +0.000 A 
ATOM      7  C   UNL     1       4.390   6.038  17.595  0.00  0.00    +0.000 A 
ATOM      8  C   UNL     1       3.627   7.200  17.474  0.00  0.00    +0.000 A 
ATOM      9  C   UNL     1       2.734   7.551  18.492  0.00  0.00    +0.000 A 
ATOM     10  C   UNL     1       1.917   8.778  18.399  0.00  0.00    +0.000 A 
ATOM     11  O   UNL     1       1.944   9.410  17.348  0.00  0.00    +0.000 OA
ATOM     12  N   UNL     1       1.204   9.141  19.551  0.00  0.00    +0.000 N 
ATOM     13  H   UNL     1       1.728   6.608  21.516  0.00  0.00    +0.000 HD
ENDROOT
BRANCH  12  14
ATOM     14  C   UNL     1       0.491  10.375  19.531  0.00  0.00    +0.000 A 
ATOM     15  C   UNL     1       1.091  11.543  20.024  0.00  0.00    +0.000 A 
ATOM     16  C   UNL     1       0.390  12.749  20.028  0.00  0.00    +0.000 A 
ATOM     17  C   UNL     1      -0.930  12.788  19.580  0.00  0.00    +0.000 A 
ATOM     18  C   UNL     1      -1.532  11.625  19.102  0.00  0.00    +0.000 A 
ATOM     19 CL   UNL     1      -3.179  11.666  18.599  0.00  0.00    +0.000 Cl
ATOM     20  C   UNL     1      -0.823  10.425  19.050  0.00  0.00    +0.000 A 
ENDBRANCH  12  14
TORSDOF 1
ENDMDL
MODEL 5
REMARK VINA RESULT:      -6.8      4.215      7.056
REMARK  Name = 
REMARK  1 active torsions:
REMARK  status: ('A' for Active; 'I' for Inactive)
REMARK    1  A    between atoms: N_12  and  C_13
REMARK                            x       y       z     vdW  Elec       q    Type
REMARK                         _______ _______ _______ _____ _____    ______ ____
ROOT
ATOM      1  O   UNL     1       2.603   8.585  17.054  0.00  0.00    +0.000 OA
ATOM      2  C   UNL     1       2.132   8.488  18.188  0.00  0.00    +0.000 A 
ATOM      3  N   UNL     1       1.429   9.555  18.684  0.00  0.00    +0.000 N 
ATOM      4  C   UNL     1       0.925   9.620  19.977  0.00  0.00    +0.000 A 
ATOM      5  C   UNL     1       0.324  10.792  20.433  0.00  0.00    +0.000 A 
ATOM      6  C   UNL     1      -0.083  10.886  21.766  0.00  0.00    +0.000 A 
ATOM      7  C   UNL     1       0.095   9.807  22.632  0.00  0.00    +0.000 A 
ATOM      8  C   UNL     1       0.656   8.619  22.159  0.00  0.00    +0.000 A 
ATOM      9  C   UNL     1       1.065   8.528  20.825  0.00  0.00    +0.000 A 
ATOM     10  C   UNL     1       1.669   7.288  20.296  0.00  0.00    +0.000 A 
ATOM     11  O   UNL     1       1.681   6.298  21.020  0.00  0.00    +0.000 OA
ATOM     12  N   UNL     1       2.220   7.365  19.008  0.00  0.00    +0.000 N 
ATOM     13  H   UNL     1       1.357  10.349  18.060  0.00  0.00    +0.000 HD
ENDROOT
BRANCH  12  14
ATOM     14  C   UNL     1       2.905   6.218  18.509  0.00  0.00    +0.000 A 
ATOM     15  C   UNL     1       2.181   5.147  17.964  0.00  0.00    +0.000 A 
ATOM     16  C   UNL     1       2.845   4.013  17.495  0.00  0.00    +0.000 A 
ATOM     17  C   UNL     1       4.231   3.922  17.608  0.00  0.00    +0.000 A 
ATOM     18  C   UNL     1       4.951   4.980  18.163  0.00  0.00    +0.000 A 
ATOM     19 CL   UNL     1       6.657   4.841  18.349  0.00  0.00    +0.000 Cl
ATOM     20  C   UNL     1       4.301   6.137  18.590  0.00  0.00    +0.000 A 
ENDBRANCH  12  14
TORSDOF 1
ENDMDL
MODEL 6
REMARK VINA RESULT:      -6.8      1.130      1.586
REMARK  Name = 
REMARK  1 active torsions:
REMARK  status: ('A' for Active; 'I' for Inactive)
REMARK    1  A    between atoms: N_12  and  C_13
REMARK                            x       y       z     vdW  Elec       q    Type
REMARK                         _______ _______ _______ _____ _____    ______ ____
ROOT
ATOM      1  O   UNL     1       6.216   5.504  19.697  0.00  0.00    +0.000 OA
ATOM      2  C   UNL     1       5.893   5.125  18.570  0.00  0.00    +0.000 A 
ATOM      3  N   UNL     1       6.864   5.082  17.604  0.00  0.00    +0.000 N 
ATOM      4  C   UNL     1       6.622   4.766  16.273  0.00  0.00    +0.000 A 
ATOM      5  C   UNL     1       7.650   4.861  15.336  0.00  0.00    +0.000 A 
ATOM      6  C   UNL     1       7.375   4.645  13.984  0.00  0.00    +0.000 A 
ATOM      7  C   UNL     1       6.081   4.320  13.575  0.00  0.00    +0.000 A 
ATOM      8  C   UNL     1       5.064   4.180  14.522  0.00  0.00    +0.000 A 
ATOM      9  C   UNL     1       5.343   4.399  15.875  0.00  0.00    +0.000 A 
ATOM     10  C   UNL     1       4.288   4.268  16.900  0.00  0.00    +0.000 A 
ATOM     11  O   UNL     1       3.196   3.833  16.551  0.00  0.00    +0.000 OA
ATOM     12  N   UNL     1       4.621   4.696  18.194  0.00  0.00    +0.000 N 
ATOM     13  H   UNL     1       7.785   5.374  17.908  0.00  0.00    +0.000 HD
ENDROOT
BRANCH  12  14
ATOM     14  C   UNL     1       3.593   4.683  19.183  0.00  0.00    +0.000 A 
ATOM     15  C   UNL     1       2.879   5.855  19.472  0.00  0.00    +0.000 A 
ATOM     16  C   UNL     1       1.889   5.854  20.454  0.00  0.00    +0.000 A 
ATOM     17  C   UNL     1       1.636   4.694  21.186  0.00  0.00    +0.000 A 
ATOM     18  C   UNL     1       2.355   3.532  20.909  0.00  0.00    +0.000 A 
ATOM     19 CL   UNL     1       2.078   2.117  21.851  0.00  0.00    +0.000 Cl
ATOM     20  C   UNL     1       3.313   3.511  19.897  0.00  0.00    +0.000 A 
ENDBRANCH  12  14
TORSDOF 1
ENDMDL
MODEL 7
REMARK VINA RESULT:      -6.7      5.445      6.840
REMARK  Name = 
REMARK  1 active torsions:
REMARK  status: ('A' for Active; 'I' for Inactive)
REMARK    1  A    between atoms: N_12  and  C_13
REMARK                            x       y       z     vdW  Elec       q    Type
REMARK                         _______ _______ _______ _____ _____    ______ ____
ROOT
ATOM      1  O   UNL     1       0.601   8.597  21.820  0.00  0.00    +0.000 OA
ATOM      2  C   UNL     1       1.186   8.336  20.768  0.00  0.00    +0.000 A 
ATOM      3  N   UNL     1       1.865   7.148  20.688  0.00  0.00    +0.000 N 
ATOM      4  C   UNL     1       2.643   6.770  19.601  0.00  0.00    +0.000 A 
ATOM      5  C   UNL     1       3.392   5.596  19.655  0.00  0.00    +0.000 A 
ATOM      6  C   UNL     1       4.254   5.277  18.603  0.00  0.00    +0.000 A 
ATOM      7  C   UNL     1       4.352   6.121  17.496  0.00  0.00    +0.000 A 
ATOM      8  C   UNL     1       3.566   7.273  17.425  0.00  0.00    +0.000 A 
ATOM      9  C   UNL     1       2.706   7.590  18.481  0.00  0.00    +0.000 A 
ATOM     10  C   UNL     1       1.867   8.805  18.441  0.00  0.00    +0.000 A 
ATOM     11  O   UNL     1       1.845   9.457  17.402  0.00  0.00    +0.000 OA
ATOM     12  N   UNL     1       1.190   9.135  19.625  0.00  0.00    +0.000 N 
ATOM     13  H   UNL     1       1.825   6.575  21.521  0.00  0.00    +0.000 HD
ENDROOT
BRANCH  12  14
ATOM     14  C   UNL     1       0.457  10.358  19.654  0.00  0.00    +0.000 A 
ATOM     15  C   UNL     1      -0.875  10.390  19.217  0.00  0.00    +0.000 A 
ATOM     16  C   UNL     1      -1.590  11.588  19.222  0.00  0.00    +0.000 A 
ATOM     17  C   UNL     1      -0.966  12.769  19.622  0.00  0.00    +0.000 A 
ATOM     18  C   UNL     1       0.363  12.740  20.043  0.00  0.00    +0.000 A 
ATOM     19 CL   UNL     1       1.147  14.209  20.485  0.00  0.00    +0.000 Cl
ATOM     20  C   UNL     1       1.071  11.540  20.087  0.00  0.00    +0.000 A 
ENDBRANCH  12  14
TORSDOF 1
ENDMDL
MODEL 8
REMARK VINA RESULT:      -6.7      1.606      2.056
REMARK  Name = 
REMARK  1 active torsions:
REMARK  status: ('A' for Active; 'I' for Inactive)
REMARK    1  A    between atoms: N_12  and  C_13
REMARK                            x       y       z     vdW  Elec       q    Type
REMARK                         _______ _______ _______ _____ _____    ______ ____
ROOT
ATOM      1  O   UNL     1       6.953   6.858  17.484  0.00  0.00    +0.000 OA
ATOM      2  C   UNL     1       6.565   6.055  16.633  0.00  0.00    +0.000 A 
ATOM      3  N   UNL     1       7.358   5.852  15.534  0.00  0.00    +0.000 N 
ATOM      4  C   UNL     1       7.001   5.051  14.456  0.00  0.00    +0.000 A 
ATOM      5  C   UNL     1       7.819   4.994  13.329  0.00  0.00    +0.000 A 
ATOM      6  C   UNL     1       7.402   4.271  12.209  0.00  0.00    +0.000 A 
ATOM      7  C   UNL     1       6.181   3.596  12.225  0.00  0.00    +0.000 A 
ATOM      8  C   UNL     1       5.387   3.616  13.373  0.00  0.00    +0.000 A 
ATOM      9  C   UNL     1       5.806   4.343  14.492  0.00  0.00    +0.000 A 
ATOM     10  C   UNL     1       4.986   4.392  15.719  0.00  0.00    +0.000 A 
ATOM     11  O   UNL     1       3.993   3.673  15.778  0.00  0.00    +0.000 OA
ATOM     12  N   UNL     1       5.396   5.300  16.707  0.00  0.00    +0.000 N 
ATOM     13  H   UNL     1       8.214   6.392  15.516  0.00  0.00    +0.000 HD
ENDROOT
BRANCH  12  14
ATOM     14  C   UNL     1       4.567   5.450  17.858  0.00  0.00    +0.000 A 
ATOM     15  C   UNL     1       4.526   4.442  18.832  0.00  0.00    +0.000 A 
ATOM     16  C   UNL     1       3.700   4.574  19.949  0.00  0.00    +0.000 A 
ATOM     17  C   UNL     1       2.877   5.692  20.077  0.00  0.00    +0.000 A 
ATOM     18  C   UNL     1       2.907   6.688  19.102  0.00  0.00    +0.000 A 
ATOM     19 CL   UNL     1       1.850   8.041  19.238  0.00  0.00    +0.000 Cl
ATOM     20  C   UNL     1       3.765   6.588  18.007  0.00  0.00    +0.000 A 
ENDBRANCH  12  14
TORSDOF 1
ENDMDL
MODEL 9
REMARK VINA RESULT:      -6.6      3.406      6.118
REMARK  Name = 
REMARK  1 active torsions:
REMARK  status: ('A' for Active; 'I' for Inactive)
REMARK    1  A    between atoms: N_12  and  C_13
REMARK                            x       y       z     vdW  Elec       q    Type
REMARK                         _______ _______ _______ _____ _____    ______ ____
ROOT
ATOM      1  O   UNL     1       4.154   4.408  19.781  0.00  0.00    +0.000 OA
ATOM      2  C   UNL     1       3.748   5.492  19.360  0.00  0.00    +0.000 A 
ATOM      3  N   UNL     1       2.860   6.190  20.135  0.00  0.00    +0.000 N 
ATOM      4  C   UNL     1       2.250   7.376  19.743  0.00  0.00    +0.000 A 
ATOM      5  C   UNL     1       1.271   7.956  20.548  0.00  0.00    +0.000 A 
ATOM      6  C   UNL     1       0.589   9.088  20.097  0.00  0.00    +0.000 A 
ATOM      7  C   UNL     1       0.897   9.645  18.855  0.00  0.00    +0.000 A 
ATOM      8  C   UNL     1       1.910   9.088  18.073  0.00  0.00    +0.000 A 
ATOM      9  C   UNL     1       2.590   7.953  18.526  0.00  0.00    +0.000 A 
ATOM     10  C   UNL     1       3.662   7.335  17.718  0.00  0.00    +0.000 A 
ATOM     11  O   UNL     1       4.029   7.918  16.704  0.00  0.00    +0.000 OA
ATOM     12  N   UNL     1       4.143   6.096  18.167  0.00  0.00    +0.000 N 
ATOM     13  H   UNL     1       2.608   5.743  21.008  0.00  0.00    +0.000 HD
ENDROOT
BRANCH  12  14
ATOM     14  C   UNL     1       5.101   5.421  17.354  0.00  0.00    +0.000 A 
ATOM     15  C   UNL     1       6.415   5.247  17.812  0.00  0.00    +0.000 A 
ATOM     16  C   UNL     1       7.362   4.607  17.012  0.00  0.00    +0.000 A 
ATOM     17  C   UNL     1       7.015   4.177  15.732  0.00  0.00    +0.000 A 
ATOM     18  C   UNL     1       5.712   4.362  15.271  0.00  0.00    +0.000 A 
ATOM     19 CL   UNL     1       5.301   3.877  13.669  0.00  0.00    +0.000 Cl
ATOM     20  C   UNL     1       4.747   4.957  16.081  0.00  0.00    +0.000 A 
ENDBRANCH  12  14
TORSDOF 1
ENDMDL
