MODEL 1
REMARK VINA RESULT:      -8.1      0.000      0.000
REMARK  Name = 
REMARK  5 active torsions:
REMARK  status: ('A' for Active; 'I' for Inactive)
REMARK    1  A    between atoms: C_1  and  N_2
REMARK    2  A    between atoms: N_2  and  C_3
REMARK    3  A    between atoms: C_3  and  C_4
REMARK    4  A    between atoms: C_4  and  O_5
REMARK    5  A    between atoms: O_5  and  N_6
REMARK                            x       y       z     vdW  Elec       q    Type
REMARK                         _______ _______ _______ _____ _____    ______ ____
ROOT
ATOM      1  N   UNL     1       4.402   5.751  17.157  0.00  0.00    +0.000 NA
ATOM      2  C   UNL     1       3.415   5.759  18.013  0.00  0.00    +0.000 A 
ATOM      3  C   UNL     1       2.927   4.324  18.365  0.00  0.00    +0.000 A 
ATOM      4  C   UNL     1       3.629   3.236  17.812  0.00  0.00    +0.000 A 
ATOM      5  C   UNL     1       3.214   1.916  18.020  0.00  0.00    +0.000 A 
ATOM      6  C   UNL     1       2.058   1.650  18.744  0.00  0.00    +0.000 A 
ATOM      7  C   UNL     1       1.364   2.697  19.337  0.00  0.00    +0.000 A 
ATOM      8  C   UNL     1       1.830   4.010  19.204  0.00  0.00    +0.000 A 
ATOM      9  C   UNL     1       1.188   5.031  20.021  0.00  0.00    +0.000 A 
ATOM     10  C   UNL     1       2.094   5.807  20.641  0.00  0.00    +0.000 A 
ATOM     11  C   UNL     1       2.168   7.054  19.882  0.00  0.00    +0.000 A 
ATOM     12  C   UNL     1       1.451   8.148  20.375  0.00  0.00    +0.000 A 
ATOM     13  C   UNL     1       1.240   9.247  19.552  0.00  0.00    +0.000 A 
ATOM     14  C   UNL     1       1.775   9.250  18.269  0.00  0.00    +0.000 A 
ATOM     15  C   UNL     1       2.521   8.158  17.785  0.00  0.00    +0.000 A 
ATOM     16  C   UNL     1       2.734   7.018  18.582  0.00  0.00    +0.000 A 
ENDROOT
BRANCH   1  17
ATOM     17  O   UNL     1       4.962   6.973  16.785  0.00  0.00    +0.000 OA
BRANCH  17  18
ATOM     18  C   UNL     1       6.351   6.936  17.169  0.00  0.00    +0.000 C 
BRANCH  18  19
ATOM     19  C   UNL     1       6.917   5.572  16.758  0.00  0.00    +0.000 C 
BRANCH  19  21
ATOM     20  C   UNL     1       6.591   4.313  14.746  0.00  0.00    +0.000 C 
ATOM     21  N   UNL     1       7.273   5.461  15.337  0.00  0.00    +0.000 NA
ATOM     22  H   UNL     1       7.000   6.308  14.840  0.00  0.00    +0.000 HD
ENDBRANCH  19  21
ENDBRANCH  18  19
ENDBRANCH  17  18
ENDBRANCH   1  17
TORSDOF 4
ENDMDL
MODEL 2
REMARK VINA RESULT:      -8.0      0.843      1.196
REMARK  Name = 
REMARK  5 active torsions:
REMARK  status: ('A' for Active; 'I' for Inactive)
REMARK    1  A    between atoms: C_1  and  N_2
REMARK    2  A    between atoms: N_2  and  C_3
REMARK    3  A    between atoms: C_3  and  C_4
REMARK    4  A    between atoms: C_4  and  O_5
REMARK    5  A    between atoms: O_5  and  N_6
REMARK                            x       y       z     vdW  Elec       q    Type
REMARK                         _______ _______ _______ _____ _____    ______ ____
ROOT
ATOM      1  N   UNL     1       4.379   5.603  17.239  0.00  0.00    +0.000 NA
ATOM      2  C   UNL     1       3.380   5.681  18.077  0.00  0.00    +0.000 A 
ATOM      3  C   UNL     1       2.836   4.280  18.481  0.00  0.00    +0.000 A 
ATOM      4  C   UNL     1       3.507   3.147  17.985  0.00  0.00    +0.000 A 
ATOM      5  C   UNL     1       3.042   1.851  18.241  0.00  0.00    +0.000 A 
ATOM      6  C   UNL     1       1.867   1.656  18.957  0.00  0.00    +0.000 A 
ATOM      7  C   UNL     1       1.202   2.752  19.494  0.00  0.00    +0.000 A 
ATOM      8  C   UNL     1       1.716   4.040  19.314  0.00  0.00    +0.000 A 
ATOM      9  C   UNL     1       1.099   5.117  20.077  0.00  0.00    +0.000 A 
ATOM     10  C   UNL     1       2.022   5.886  20.680  0.00  0.00    +0.000 A 
ATOM     11  C   UNL     1       2.153   7.096  19.871  0.00  0.00    +0.000 A 
ATOM     12  C   UNL     1       1.467   8.235  20.306  0.00  0.00    +0.000 A 
ATOM     13  C   UNL     1       1.309   9.305  19.435  0.00  0.00    +0.000 A 
ATOM     14  C   UNL     1       1.862   9.235  18.161  0.00  0.00    +0.000 A 
ATOM     15  C   UNL     1       2.576   8.098  17.736  0.00  0.00    +0.000 A 
ATOM     16  C   UNL     1       2.736   6.986  18.583  0.00  0.00    +0.000 A 
ENDROOT
BRANCH   1  17
ATOM     17  O   UNL     1       4.987   6.788  16.826  0.00  0.00    +0.000 OA
BRANCH  17  18
ATOM     18  C   UNL     1       6.411   6.602  16.962  0.00  0.00    +0.000 C 
BRANCH  18  19
ATOM     19  C   UNL     1       6.702   5.102  16.847  0.00  0.00    +0.000 C 
BRANCH  19  21
ATOM     20  C   UNL     1       7.671   5.527  18.996  0.00  0.00    +0.000 C 
ATOM     21  N   UNL     1       7.234   4.486  18.070  0.00  0.00    +0.000 NA
ATOM     22  H   UNL     1       6.516   3.916  18.516  0.00  0.00    +0.000 HD
ENDBRANCH  19  21
ENDBRANCH  18  19
ENDBRANCH  17  18
ENDBRANCH   1  17
TORSDOF 4
ENDMDL
MODEL 3
REMARK VINA RESULT:      -7.7      2.164      5.197
REMARK  Name = 
REMARK  5 active torsions:
REMARK  status: ('A' for Active; 'I' for Inactive)
REMARK    1  A    between atoms: C_1  and  N_2
REMARK    2  A    between atoms: N_2  and  C_3
REMARK    3  A    between atoms: C_3  and  C_4
REMARK    4  A    between atoms: C_4  and  O_5
REMARK    5  A    between atoms: O_5  and  N_6
REMARK                            x       y       z     vdW  Elec       q    Type
REMARK                         _______ _______ _______ _____ _____    ______ ____
ROOT
ATOM      1  N   UNL     1       2.810   7.177  18.783  0.00  0.00    +0.000 NA
ATOM      2  C   UNL     1       3.164   5.923  18.686  0.00  0.00    +0.000 A 
ATOM      3  C   UNL     1       4.080   5.661  17.457  0.00  0.00    +0.000 A 
ATOM      4  C   UNL     1       4.471   6.768  16.680  0.00  0.00    +0.000 A 
ATOM      5  C   UNL     1       5.235   6.612  15.517  0.00  0.00    +0.000 A 
ATOM      6  C   UNL     1       5.587   5.343  15.074  0.00  0.00    +0.000 A 
ATOM      7  C   UNL     1       5.252   4.232  15.838  0.00  0.00    +0.000 A 
ATOM      8  C   UNL     1       4.566   4.395  17.047  0.00  0.00    +0.000 A 
ATOM      9  C   UNL     1       4.435   3.223  17.901  0.00  0.00    +0.000 A 
ATOM     10  C   UNL     1       4.764   3.503  19.175  0.00  0.00    +0.000 A 
ATOM     11  C   UNL     1       3.510   3.661  19.908  0.00  0.00    +0.000 A 
ATOM     12  C   UNL     1       3.064   2.569  20.660  0.00  0.00    +0.000 A 
ATOM     13  C   UNL     1       1.755   2.553  21.121  0.00  0.00    +0.000 A 
ATOM     14  C   UNL     1       0.924   3.637  20.854  0.00  0.00    +0.000 A 
ATOM     15  C   UNL     1       1.385   4.747  20.121  0.00  0.00    +0.000 A 
ATOM     16  C   UNL     1       2.697   4.787  19.617  0.00  0.00    +0.000 A 
ENDROOT
BRANCH   1  17
ATOM     17  O   UNL     1       2.018   7.557  19.866  0.00  0.00    +0.000 OA
BRANCH  17  18
ATOM     18  C   UNL     1       1.494   8.867  19.567  0.00  0.00    +0.000 C 
BRANCH  18  19
ATOM     19  C   UNL     1       1.463   9.024  18.043  0.00  0.00    +0.000 C 
BRANCH  19  21
ATOM     20  C   UNL     1       1.797  11.359  18.463  0.00  0.00    +0.000 C 
ATOM     21  N   UNL     1       2.078  10.260  17.543  0.00  0.00    +0.000 NA
ATOM     22  H   UNL     1       3.087  10.140  17.458  0.00  0.00    +0.000 HD
ENDBRANCH  19  21
ENDBRANCH  18  19
ENDBRANCH  17  18
ENDBRANCH   1  17
TORSDOF 4
ENDMDL
MODEL 4
REMARK VINA RESULT:      -7.4      2.555      5.829
REMARK  Name = 
REMARK  5 active torsions:
REMARK  status: ('A' for Active; 'I' for Inactive)
REMARK    1  A    between atoms: C_1  and  N_2
REMARK    2  A    between atoms: N_2  and  C_3
REMARK    3  A    between atoms: C_3  and  C_4
REMARK    4  A    between atoms: C_4  and  O_5
REMARK    5  A    between atoms: O_5  and  N_6
REMARK                            x       y       z     vdW  Elec       q    Type
REMARK                         _______ _______ _______ _____ _____    ______ ____
ROOT
ATOM      1  N   UNL     1       2.722   7.182  19.004  0.00  0.00    +0.000 NA
ATOM      2  C   UNL     1       3.098   5.938  18.864  0.00  0.00    +0.000 A 
ATOM      3  C   UNL     1       4.003   5.733  17.615  0.00  0.00    +0.000 A 
ATOM      4  C   UNL     1       4.362   6.870  16.868  0.00  0.00    +0.000 A 
ATOM      5  C   UNL     1       5.113   6.764  15.691  0.00  0.00    +0.000 A 
ATOM      6  C   UNL     1       5.484   5.517  15.205  0.00  0.00    +0.000 A 
ATOM      7  C   UNL     1       5.180   4.376  15.939  0.00  0.00    +0.000 A 
ATOM      8  C   UNL     1       4.507   4.489  17.160  0.00  0.00    +0.000 A 
ATOM      9  C   UNL     1       4.410   3.289  17.980  0.00  0.00    +0.000 A 
ATOM     10  C   UNL     1       4.751   3.537  19.258  0.00  0.00    +0.000 A 
ATOM     11  C   UNL     1       3.504   3.648  20.011  0.00  0.00    +0.000 A 
ATOM     12  C   UNL     1       3.089   2.526  20.735  0.00  0.00    +0.000 A 
ATOM     13  C   UNL     1       1.787   2.470  21.212  0.00  0.00    +0.000 A 
ATOM     14  C   UNL     1       0.932   3.544  20.989  0.00  0.00    +0.000 A 
ATOM     15  C   UNL     1       1.361   4.685  20.284  0.00  0.00    +0.000 A 
ATOM     16  C   UNL     1       2.666   4.766  19.765  0.00  0.00    +0.000 A 
ENDROOT
BRANCH   1  17
ATOM     17  O   UNL     1       1.936   7.513  20.107  0.00  0.00    +0.000 OA
BRANCH  17  18
ATOM     18  C   UNL     1       1.438   8.848  19.886  0.00  0.00    +0.000 C 
BRANCH  18  19
ATOM     19  C   UNL     1       0.370   9.134  20.946  0.00  0.00    +0.000 C 
BRANCH  19  21
ATOM     20  C   UNL     1       0.037   9.541  23.283  0.00  0.00    +0.000 C 
ATOM     21  N   UNL     1       0.854   9.872  22.119  0.00  0.00    +0.000 NA
ATOM     22  H   UNL     1       1.826   9.631  22.309  0.00  0.00    +0.000 HD
ENDBRANCH  19  21
ENDBRANCH  18  19
ENDBRANCH  17  18
ENDBRANCH   1  17
TORSDOF 4
ENDMDL
MODEL 5
REMARK VINA RESULT:      -7.4      1.124      1.656
REMARK  Name = 
REMARK  5 active torsions:
REMARK  status: ('A' for Active; 'I' for Inactive)
REMARK    1  A    between atoms: C_1  and  N_2
REMARK    2  A    between atoms: N_2  and  C_3
REMARK    3  A    between atoms: C_3  and  C_4
REMARK    4  A    between atoms: C_4  and  O_5
REMARK    5  A    between atoms: O_5  and  N_6
REMARK                            x       y       z     vdW  Elec       q    Type
REMARK                         _______ _______ _______ _____ _____    ______ ____
ROOT
ATOM      1  N   UNL     1       4.499   5.496  17.343  0.00  0.00    +0.000 NA
ATOM      2  C   UNL     1       3.462   5.598  18.131  0.00  0.00    +0.000 A 
ATOM      3  C   UNL     1       2.878   4.209  18.521  0.00  0.00    +0.000 A 
ATOM      4  C   UNL     1       3.555   3.061  18.069  0.00  0.00    +0.000 A 
ATOM      5  C   UNL     1       3.058   1.775  18.314  0.00  0.00    +0.000 A 
ATOM      6  C   UNL     1       1.848   1.605  18.974  0.00  0.00    +0.000 A 
ATOM      7  C   UNL     1       1.174   2.715  19.469  0.00  0.00    +0.000 A 
ATOM      8  C   UNL     1       1.716   3.994  19.302  0.00  0.00    +0.000 A 
ATOM      9  C   UNL     1       1.079   5.087  20.024  0.00  0.00    +0.000 A 
ATOM     10  C   UNL     1       1.984   5.849  20.663  0.00  0.00    +0.000 A 
ATOM     11  C   UNL     1       2.172   7.049  19.851  0.00  0.00    +0.000 A 
ATOM     12  C   UNL     1       1.484   8.202  20.242  0.00  0.00    +0.000 A 
ATOM     13  C   UNL     1       1.383   9.265  19.354  0.00  0.00    +0.000 A 
ATOM     14  C   UNL     1       1.996   9.174  18.109  0.00  0.00    +0.000 A 
ATOM     15  C   UNL     1       2.712   8.023  17.730  0.00  0.00    +0.000 A 
ATOM     16  C   UNL     1       2.814   6.917  18.593  0.00  0.00    +0.000 A 
ENDROOT
BRANCH   1  17
ATOM     17  O   UNL     1       5.144   6.668  16.949  0.00  0.00    +0.000 OA
BRANCH  17  18
ATOM     18  C   UNL     1       6.521   6.324  16.687  0.00  0.00    +0.000 C 
BRANCH  18  19
ATOM     19  C   UNL     1       7.396   7.109  17.670  0.00  0.00    +0.000 C 
BRANCH  19  21
ATOM     20  C   UNL     1       8.436   9.171  18.307  0.00  0.00    +0.000 C 
ATOM     21  N   UNL     1       7.739   8.468  17.233  0.00  0.00    +0.000 NA
ATOM     22  H   UNL     1       8.338   8.431  16.409  0.00  0.00    +0.000 HD
ENDBRANCH  19  21
ENDBRANCH  18  19
ENDBRANCH  17  18
ENDBRANCH   1  17
TORSDOF 4
ENDMDL
MODEL 6
REMARK VINA RESULT:      -7.3      1.927      5.058
REMARK  Name = 
REMARK  5 active torsions:
REMARK  status: ('A' for Active; 'I' for Inactive)
REMARK    1  A    between atoms: C_1  and  N_2
REMARK    2  A    between atoms: N_2  and  C_3
REMARK    3  A    between atoms: C_3  and  C_4
REMARK    4  A    between atoms: C_4  and  O_5
REMARK    5  A    between atoms: O_5  and  N_6
REMARK                            x       y       z     vdW  Elec       q    Type
REMARK                         _______ _______ _______ _____ _____    ______ ____
ROOT
ATOM      1  N   UNL     1       2.630   6.978  18.779  0.00  0.00    +0.000 NA
ATOM      2  C   UNL     1       3.214   5.858  18.446  0.00  0.00    +0.000 A 
ATOM      3  C   UNL     1       2.640   4.639  19.224  0.00  0.00    +0.000 A 
ATOM      4  C   UNL     1       1.554   4.863  20.090  0.00  0.00    +0.000 A 
ATOM      5  C   UNL     1       1.024   3.835  20.880  0.00  0.00    +0.000 A 
ATOM      6  C   UNL     1       1.597   2.570  20.862  0.00  0.00    +0.000 A 
ATOM      7  C   UNL     1       2.645   2.304  19.988  0.00  0.00    +0.000 A 
ATOM      8  C   UNL     1       3.115   3.307  19.134  0.00  0.00    +0.000 A 
ATOM      9  C   UNL     1       4.061   2.911  18.099  0.00  0.00    +0.000 A 
ATOM     10  C   UNL     1       3.713   3.406  16.898  0.00  0.00    +0.000 A 
ATOM     11  C   UNL     1       4.572   4.563  16.656  0.00  0.00    +0.000 A 
ATOM     12  C   UNL     1       5.687   4.372  15.833  0.00  0.00    +0.000 A 
ATOM     13  C   UNL     1       6.687   5.335  15.814  0.00  0.00    +0.000 A 
ATOM     14  C   UNL     1       6.544   6.483  16.586  0.00  0.00    +0.000 A 
ATOM     15  C   UNL     1       5.407   6.684  17.391  0.00  0.00    +0.000 A 
ATOM     16  C   UNL     1       4.386   5.720  17.455  0.00  0.00    +0.000 A 
ENDROOT
BRANCH   1  17
ATOM     17  O   UNL     1       3.023   8.146  18.127  0.00  0.00    +0.000 OA
BRANCH  17  18
ATOM     18  C   UNL     1       1.822   8.795  17.661  0.00  0.00    +0.000 C 
BRANCH  18  19
ATOM     19  C   UNL     1       1.379   9.792  18.737  0.00  0.00    +0.000 C 
BRANCH  19  21
ATOM     20  C   UNL     1      -0.212   9.754  20.527  0.00  0.00    +0.000 C 
ATOM     21  N   UNL     1       1.038   9.186  20.030  0.00  0.00    +0.000 NA
ATOM     22  H   UNL     1       0.933   8.177  19.927  0.00  0.00    +0.000 HD
ENDBRANCH  19  21
ENDBRANCH  18  19
ENDBRANCH  17  18
ENDBRANCH   1  17
TORSDOF 4
ENDMDL
MODEL 7
REMARK VINA RESULT:      -7.2      1.386      4.442
REMARK  Name = 
REMARK  5 active torsions:
REMARK  status: ('A' for Active; 'I' for Inactive)
REMARK    1  A    between atoms: C_1  and  N_2
REMARK    2  A    between atoms: N_2  and  C_3
REMARK    3  A    between atoms: C_3  and  C_4
REMARK    4  A    between atoms: C_4  and  O_5
REMARK    5  A    between atoms: O_5  and  N_6
REMARK                            x       y       z     vdW  Elec       q    Type
REMARK                         _______ _______ _______ _____ _____    ______ ____
ROOT
ATOM      1  N   UNL     1       3.903   5.377  17.125  0.00  0.00    +0.000 NA
ATOM      2  C   UNL     1       3.323   5.320  18.294  0.00  0.00    +0.000 A 
ATOM      3  C   UNL     1       2.635   6.662  18.677  0.00  0.00    +0.000 A 
ATOM      4  C   UNL     1       2.646   7.701  17.728  0.00  0.00    +0.000 A 
ATOM      5  C   UNL     1       2.113   8.963  18.019  0.00  0.00    +0.000 A 
ATOM      6  C   UNL     1       1.600   9.234  19.281  0.00  0.00    +0.000 A 
ATOM      7  C   UNL     1       1.537   8.218  20.228  0.00  0.00    +0.000 A 
ATOM      8  C   UNL     1       1.987   6.933  19.908  0.00  0.00    +0.000 A 
ATOM      9  C   UNL     1       1.699   5.869  20.859  0.00  0.00    +0.000 A 
ATOM     10  C   UNL     1       1.188   4.786  20.247  0.00  0.00    +0.000 A 
ATOM     11  C   UNL     1       2.277   3.818  20.131  0.00  0.00    +0.000 A 
ATOM     12  C   UNL     1       2.326   2.791  21.080  0.00  0.00    +0.000 A 
ATOM     13  C   UNL     1       3.485   2.037  21.202  0.00  0.00    +0.000 A 
ATOM     14  C   UNL     1       4.559   2.294  20.357  0.00  0.00    +0.000 A 
ATOM     15  C   UNL     1       4.495   3.310  19.383  0.00  0.00    +0.000 A 
ATOM     16  C   UNL     1       3.347   4.110  19.248  0.00  0.00    +0.000 A 
ENDROOT
BRANCH   1  17
ATOM     17  O   UNL     1       4.526   4.226  16.641  0.00  0.00    +0.000 OA
BRANCH  17  18
ATOM     18  C   UNL     1       5.617   4.657  15.802  0.00  0.00    +0.000 C 
BRANCH  18  19
ATOM     19  C   UNL     1       6.805   4.992  16.710  0.00  0.00    +0.000 C 
BRANCH  19  21
ATOM     20  C   UNL     1       7.452   7.128  17.580  0.00  0.00    +0.000 C 
ATOM     21  N   UNL     1       7.471   6.263  16.403  0.00  0.00    +0.000 NA
ATOM     22  H   UNL     1       8.437   6.095  16.123  0.00  0.00    +0.000 HD
ENDBRANCH  19  21
ENDBRANCH  18  19
ENDBRANCH  17  18
ENDBRANCH   1  17
TORSDOF 4
ENDMDL
MODEL 8
REMARK VINA RESULT:      -7.2      2.025      4.552
REMARK  Name = 
REMARK  5 active torsions:
REMARK  status: ('A' for Active; 'I' for Inactive)
REMARK    1  A    between atoms: C_1  and  N_2
REMARK    2  A    between atoms: N_2  and  C_3
REMARK    3  A    between atoms: C_3  and  C_4
REMARK    4  A    between atoms: C_4  and  O_5
REMARK    5  A    between atoms: O_5  and  N_6
REMARK                            x       y       z     vdW  Elec       q    Type
REMARK                         _______ _______ _______ _____ _____    ______ ____
ROOT
ATOM      1  N   UNL     1       2.807   3.320  17.319  0.00  0.00    +0.000 NA
ATOM      2  C   UNL     1       3.255   4.529  17.531  0.00  0.00    +0.000 A 
ATOM      3  C   UNL     1       4.564   4.819  16.742  0.00  0.00    +0.000 A 
ATOM      4  C   UNL     1       5.042   3.823  15.870  0.00  0.00    +0.000 A 
ATOM      5  C   UNL     1       6.249   3.975  15.178  0.00  0.00    +0.000 A 
ATOM      6  C   UNL     1       7.035   5.103  15.376  0.00  0.00    +0.000 A 
ATOM      7  C   UNL     1       6.574   6.124  16.199  0.00  0.00    +0.000 A 
ATOM      8  C   UNL     1       5.325   6.012  16.820  0.00  0.00    +0.000 A 
ATOM      9  C   UNL     1       4.806   7.196  17.490  0.00  0.00    +0.000 A 
ATOM     10  C   UNL     1       3.527   7.434  17.149  0.00  0.00    +0.000 A 
ATOM     11  C   UNL     1       2.702   6.957  18.257  0.00  0.00    +0.000 A 
ATOM     12  C   UNL     1       2.241   7.910  19.171  0.00  0.00    +0.000 A 
ATOM     13  C   UNL     1       1.720   7.488  20.386  0.00  0.00    +0.000 A 
ATOM     14  C   UNL     1       1.637   6.126  20.657  0.00  0.00    +0.000 A 
ATOM     15  C   UNL     1       2.076   5.168  19.723  0.00  0.00    +0.000 A 
ATOM     16  C   UNL     1       2.632   5.560  18.492  0.00  0.00    +0.000 A 
ENDROOT
BRANCH   1  17
ATOM     17  O   UNL     1       1.615   2.942  17.937  0.00  0.00    +0.000 OA
BRANCH  17  18
ATOM     18  C   UNL     1       1.938   1.893  18.872  0.00  0.00    +0.000 C 
BRANCH  18  19
ATOM     19  C   UNL     1       3.312   1.331  18.492  0.00  0.00    +0.000 C 
BRANCH  19  21
ATOM     20  C   UNL     1       3.973   2.254  20.602  0.00  0.00    +0.000 C 
ATOM     21  N   UNL     1       4.433   1.879  19.267  0.00  0.00    +0.000 NA
ATOM     22  H   UNL     1       5.176   1.186  19.348  0.00  0.00    +0.000 HD
ENDBRANCH  19  21
ENDBRANCH  18  19
ENDBRANCH  17  18
ENDBRANCH   1  17
TORSDOF 4
ENDMDL
MODEL 9
REMARK VINA RESULT:      -7.1      2.439      5.639
REMARK  Name = 
REMARK  5 active torsions:
REMARK  status: ('A' for Active; 'I' for Inactive)
REMARK    1  A    between atoms: C_1  and  N_2
REMARK    2  A    between atoms: N_2  and  C_3
REMARK    3  A    between atoms: C_3  and  C_4
REMARK    4  A    between atoms: C_4  and  O_5
REMARK    5  A    between atoms: O_5  and  N_6
REMARK                            x       y       z     vdW  Elec       q    Type
REMARK                         _______ _______ _______ _____ _____    ______ ____
ROOT
ATOM      1  N   UNL     1       2.850   7.217  18.818  0.00  0.00    +0.000 NA
ATOM      2  C   UNL     1       3.179   5.957  18.717  0.00  0.00    +0.000 A 
ATOM      3  C   UNL     1       4.082   5.680  17.481  0.00  0.00    +0.000 A 
ATOM      4  C   UNL     1       4.489   6.780  16.703  0.00  0.00    +0.000 A 
ATOM      5  C   UNL     1       5.243   6.612  15.535  0.00  0.00    +0.000 A 
ATOM      6  C   UNL     1       5.567   5.338  15.087  0.00  0.00    +0.000 A 
ATOM      7  C   UNL     1       5.216   4.231  15.852  0.00  0.00    +0.000 A 
ATOM      8  C   UNL     1       4.541   4.405  17.065  0.00  0.00    +0.000 A 
ATOM      9  C   UNL     1       4.393   3.234  17.919  0.00  0.00    +0.000 A 
ATOM     10  C   UNL     1       4.736   3.506  19.191  0.00  0.00    +0.000 A 
ATOM     11  C   UNL     1       3.489   3.687  19.932  0.00  0.00    +0.000 A 
ATOM     12  C   UNL     1       3.028   2.603  20.685  0.00  0.00    +0.000 A 
ATOM     13  C   UNL     1       1.721   2.611  21.154  0.00  0.00    +0.000 A 
ATOM     14  C   UNL     1       0.910   3.710  20.895  0.00  0.00    +0.000 A 
ATOM     15  C   UNL     1       1.387   4.813  20.161  0.00  0.00    +0.000 A 
ATOM     16  C   UNL     1       2.697   4.829  19.648  0.00  0.00    +0.000 A 
ENDROOT
BRANCH   1  17
ATOM     17  O   UNL     1       2.072   7.610  19.907  0.00  0.00    +0.000 OA
BRANCH  17  18
ATOM     18  C   UNL     1       1.391   8.822  19.523  0.00  0.00    +0.000 C 
BRANCH  18  19
ATOM     19  C   UNL     1       0.632   9.343  20.748  0.00  0.00    +0.000 C 
BRANCH  19  21
ATOM     20  C   UNL     1      -0.808  10.332  19.109  0.00  0.00    +0.000 C 
ATOM     21  N   UNL     1      -0.293  10.449  20.470  0.00  0.00    +0.000 NA
ATOM     22  H   UNL     1      -1.070  10.430  21.129  0.00  0.00    +0.000 HD
ENDBRANCH  19  21
ENDBRANCH  18  19
ENDBRANCH  17  18
ENDBRANCH   1  17
TORSDOF 4
ENDMDL
