MODEL 1
REMARK VINA RESULT:      -8.4      0.000      0.000
REMARK  Name = 
REMARK  9 active torsions:
REMARK  status: ('A' for Active; 'I' for Inactive)
REMARK    1  A    between atoms: C_1  and  N_2
REMARK    2  A    between atoms: N_2  and  C_3
REMARK    3  A    between atoms: N_2  and  C_15
REMARK    4  A    between atoms: C_3  and  C_4
REMARK    5  A    between atoms: C_4  and  C_5
REMARK    6  A    between atoms: C_5  and  C_6
REMARK    7  A    between atoms: C_15  and  C_16
REMARK    8  A    between atoms: C_20  and  C_22
REMARK    9  A    between atoms: C_23  and  C_24
REMARK                            x       y       z     vdW  Elec       q    Type
REMARK                         _______ _______ _______ _____ _____    ______ ____
ROOT
ATOM      1  C   UNL     1       1.853   5.172  19.720  0.00  0.00    +0.000 C 
ATOM      2  C   UNL     1       1.860   5.652  18.254  0.00  0.00    +0.000 C 
ATOM      3  C   UNL     1       2.571   6.990  18.060  0.00  0.00    +0.000 C 
ATOM      4  N   UNL     1       2.017   8.004  18.951  0.00  0.00    +0.000 N 
ATOM      5  C   UNL     1       1.808   9.274  18.429  0.00  0.00    +0.000 C 
ATOM      6  O   UNL     1       2.086   9.583  17.271  0.00  0.00    +0.000 OA
ATOM      7  C   UNL     1       2.050   7.647  20.374  0.00  0.00    +0.000 C 
ATOM      8  C   UNL     1       1.346   6.312  20.625  0.00  0.00    +0.000 C 
ENDROOT
BRANCH   5   9
ATOM      9  C   UNL     1       1.188  10.282  19.325  0.00  0.00    +0.000 C 
ATOM     10  C   UNL     1      -0.140  10.467  19.299  0.00  0.00    +0.000 C 
BRANCH  10  11
ATOM     11  C   UNL     1      -0.758  11.453  20.180  0.00  0.00    +0.000 A 
ATOM     12  C   UNL     1       0.000  12.043  21.195  0.00  0.00    +0.000 A 
ATOM     13  C   UNL     1      -0.603  12.921  22.099  0.00  0.00    +0.000 A 
ATOM     14  C   UNL     1      -1.964  13.216  21.990  0.00  0.00    +0.000 A 
ATOM     15 CL   UNL     1      -2.649  14.284  23.162  0.00  0.00    +0.000 Cl
ATOM     16  C   UNL     1      -2.722  12.638  20.964  0.00  0.00    +0.000 A 
ATOM     17 CL   UNL     1      -4.411  12.951  20.774  0.00  0.00    +0.000 Cl
ATOM     18  C   UNL     1      -2.117  11.759  20.060  0.00  0.00    +0.000 A 
ENDBRANCH  10  11
ENDBRANCH   5   9
BRANCH   1  19
ATOM     19  C   UNL     1       3.240   4.605  20.124  0.00  0.00    +0.000 C 
BRANCH  19  21
ATOM     20  C   UNL     1       2.103   2.448  19.900  0.00  0.00    +0.000 C 
ATOM     21  N   UNL     1       3.391   3.140  20.027  0.00  0.00    +0.000 NA
BRANCH  21  22
ATOM     22  C   UNL     1       4.240   2.747  18.878  0.00  0.00    +0.000 C 
BRANCH  22  23
ATOM     23  C   UNL     1       4.973   3.900  18.188  0.00  0.00    +0.000 C 
BRANCH  23  24
ATOM     24  C   UNL     1       4.634   3.987  16.700  0.00  0.00    +0.000 C 
BRANCH  24  25
ATOM     25  C   UNL     1       5.773   4.537  15.910  0.00  0.00    +0.000 A 
ATOM     26  C   UNL     1       6.732   5.421  16.366  0.00  0.00    +0.000 A 
ATOM     27  N   UNL     1       7.581   5.699  15.331  0.00  0.00    +0.000 N 
ATOM     28  C   UNL     1       7.192   5.022  14.199  0.00  0.00    +0.000 A 
ATOM     29  C   UNL     1       7.748   5.015  12.915  0.00  0.00    +0.000 A 
ATOM     30  C   UNL     1       7.127   4.224  11.945  0.00  0.00    +0.000 A 
ATOM     31  C   UNL     1       6.002   3.461  12.251  0.00  0.00    +0.000 A 
ATOM     32  C   UNL     1       5.459   3.480  13.540  0.00  0.00    +0.000 A 
ATOM     33  C   UNL     1       6.063   4.275  14.537  0.00  0.00    +0.000 A 
ATOM     34  H   UNL     1       8.374   6.325  15.381  0.00  0.00    +0.000 HD
ENDBRANCH  24  25
ENDBRANCH  23  24
ENDBRANCH  22  23
ENDBRANCH  21  22
ENDBRANCH  19  21
ENDBRANCH   1  19
TORSDOF 8
ENDMDL
MODEL 2
REMARK VINA RESULT:      -8.3      1.647      2.548
REMARK  Name = 
REMARK  9 active torsions:
REMARK  status: ('A' for Active; 'I' for Inactive)
REMARK    1  A    between atoms: C_1  and  N_2
REMARK    2  A    between atoms: N_2  and  C_3
REMARK    3  A    between atoms: N_2  and  C_15
REMARK    4  A    between atoms: C_3  and  C_4
REMARK    5  A    between atoms: C_4  and  C_5
REMARK    6  A    between atoms: C_5  and  C_6
REMARK    7  A    between atoms: C_15  and  C_16
REMARK    8  A    between atoms: C_20  and  C_22
REMARK    9  A    between atoms: C_23  and  C_24
REMARK                            x       y       z     vdW  Elec       q    Type
REMARK                         _______ _______ _______ _____ _____    ______ ____
ROOT
ATOM      1  C   UNL     1       2.081   5.102  19.455  0.00  0.00    +0.000 C 
ATOM      2  C   UNL     1       1.987   5.760  18.062  0.00  0.00    +0.000 C 
ATOM      3  C   UNL     1       2.577   7.168  18.018  0.00  0.00    +0.000 C 
ATOM      4  N   UNL     1       1.980   8.012  19.046  0.00  0.00    +0.000 N 
ATOM      5  C   UNL     1       1.646   9.314  18.697  0.00  0.00    +0.000 C 
ATOM      6  O   UNL     1       1.850   9.787  17.579  0.00  0.00    +0.000 OA
ATOM      7  C   UNL     1       2.101   7.485  20.411  0.00  0.00    +0.000 C 
ATOM      8  C   UNL     1       1.520   6.074  20.512  0.00  0.00    +0.000 C 
ENDROOT
BRANCH   5   9
ATOM      9  C   UNL     1       0.983  10.145  19.731  0.00  0.00    +0.000 C 
ATOM     10  C   UNL     1      -0.341  10.353  19.671  0.00  0.00    +0.000 C 
BRANCH  10  11
ATOM     11  C   UNL     1      -1.001  11.166  20.687  0.00  0.00    +0.000 A 
ATOM     12  C   UNL     1      -0.720  10.944  22.038  0.00  0.00    +0.000 A 
ATOM     13  C   UNL     1      -1.411  11.654  23.023  0.00  0.00    +0.000 A 
ATOM     14  C   UNL     1      -2.382  12.592  22.661  0.00  0.00    +0.000 A 
ATOM     15 CL   UNL     1      -3.219  13.409  23.932  0.00  0.00    +0.000 Cl
ATOM     16  C   UNL     1      -2.654  12.827  21.308  0.00  0.00    +0.000 A 
ATOM     17 CL   UNL     1      -3.846  13.965  20.788  0.00  0.00    +0.000 Cl
ATOM     18  C   UNL     1      -1.961  12.115  20.323  0.00  0.00    +0.000 A 
ENDBRANCH  10  11
ENDBRANCH   5   9
BRANCH   1  19
ATOM     19  C   UNL     1       3.525   4.612  19.741  0.00  0.00    +0.000 C 
BRANCH  19  21
ATOM     20  C   UNL     1       2.518   2.608  20.722  0.00  0.00    +0.000 C 
ATOM     21  N   UNL     1       3.674   3.169  20.014  0.00  0.00    +0.000 NA
BRANCH  21  22
ATOM     22  C   UNL     1       3.877   2.389  18.771  0.00  0.00    +0.000 C 
BRANCH  22  23
ATOM     23  C   UNL     1       3.715   3.184  17.472  0.00  0.00    +0.000 C 
BRANCH  23  24
ATOM     24  C   UNL     1       5.023   3.268  16.684  0.00  0.00    +0.000 C 
BRANCH  24  25
ATOM     25  C   UNL     1       5.490   4.679  16.551  0.00  0.00    +0.000 A 
ATOM     26  C   UNL     1       5.132   5.567  15.555  0.00  0.00    +0.000 A 
ATOM     27  N   UNL     1       5.795   6.743  15.776  0.00  0.00    +0.000 N 
ATOM     28  C   UNL     1       6.591   6.640  16.892  0.00  0.00    +0.000 A 
ATOM     29  C   UNL     1       7.448   7.577  17.480  0.00  0.00    +0.000 A 
ATOM     30  C   UNL     1       8.148   7.186  18.624  0.00  0.00    +0.000 A 
ATOM     31  C   UNL     1       7.987   5.913  19.166  0.00  0.00    +0.000 A 
ATOM     32  C   UNL     1       7.126   4.989  18.566  0.00  0.00    +0.000 A 
ATOM     33  C   UNL     1       6.412   5.355  17.405  0.00  0.00    +0.000 A 
ATOM     34  H   UNL     1       5.726   7.568  15.195  0.00  0.00    +0.000 HD
ENDBRANCH  24  25
ENDBRANCH  23  24
ENDBRANCH  22  23
ENDBRANCH  21  22
ENDBRANCH  19  21
ENDBRANCH   1  19
TORSDOF 8
ENDMDL
MODEL 3
REMARK VINA RESULT:      -7.9      0.857      1.104
REMARK  Name = 
REMARK  9 active torsions:
REMARK  status: ('A' for Active; 'I' for Inactive)
REMARK    1  A    between atoms: C_1  and  N_2
REMARK    2  A    between atoms: N_2  and  C_3
REMARK    3  A    between atoms: N_2  and  C_15
REMARK    4  A    between atoms: C_3  and  C_4
REMARK    5  A    between atoms: C_4  and  C_5
REMARK    6  A    between atoms: C_5  and  C_6
REMARK    7  A    between atoms: C_15  and  C_16
REMARK    8  A    between atoms: C_20  and  C_22
REMARK    9  A    between atoms: C_23  and  C_24
REMARK                            x       y       z     vdW  Elec       q    Type
REMARK                         _______ _______ _______ _____ _____    ______ ____
ROOT
ATOM      1  C   UNL     1       1.843   5.097  19.829  0.00  0.00    +0.000 C 
ATOM      2  C   UNL     1       1.838   5.609  18.373  0.00  0.00    +0.000 C 
ATOM      3  C   UNL     1       2.513   6.969  18.209  0.00  0.00    +0.000 C 
ATOM      4  N   UNL     1       1.932   7.948  19.121  0.00  0.00    +0.000 N 
ATOM      5  C   UNL     1       1.689   9.223  18.626  0.00  0.00    +0.000 C 
ATOM      6  O   UNL     1       1.960   9.564  17.475  0.00  0.00    +0.000 OA
ATOM      7  C   UNL     1       1.974   7.562  20.536  0.00  0.00    +0.000 C 
ATOM      8  C   UNL     1       1.306   6.203  20.757  0.00  0.00    +0.000 C 
ENDROOT
BRANCH   5   9
ATOM      9  C   UNL     1       1.042  10.194  19.542  0.00  0.00    +0.000 C 
ATOM     10  C   UNL     1      -0.171   9.925  20.049  0.00  0.00    +0.000 C 
BRANCH  10  11
ATOM     11  C   UNL     1      -0.813  10.873  20.953  0.00  0.00    +0.000 A 
ATOM     12  C   UNL     1      -0.742  10.666  22.334  0.00  0.00    +0.000 A 
ATOM     13  C   UNL     1      -1.426  11.516  23.206  0.00  0.00    +0.000 A 
ATOM     14  C   UNL     1      -2.181  12.578  22.702  0.00  0.00    +0.000 A 
ATOM     15 CL   UNL     1      -3.027  13.569  23.836  0.00  0.00    +0.000 Cl
ATOM     16  C   UNL     1      -2.241  12.797  21.321  0.00  0.00    +0.000 A 
ATOM     17 CL   UNL     1      -3.161  14.085  20.627  0.00  0.00    +0.000 Cl
ATOM     18  C   UNL     1      -1.555  11.945  20.448  0.00  0.00    +0.000 A 
ENDBRANCH  10  11
ENDBRANCH   5   9
BRANCH   1  19
ATOM     19  C   UNL     1       3.244   4.559  20.222  0.00  0.00    +0.000 C 
BRANCH  19  21
ATOM     20  C   UNL     1       5.544   4.977  19.491  0.00  0.00    +0.000 C 
ATOM     21  N   UNL     1       4.225   4.448  19.124  0.00  0.00    +0.000 NA
BRANCH  21  22
ATOM     22  C   UNL     1       4.399   3.046  18.679  0.00  0.00    +0.000 C 
BRANCH  22  23
ATOM     23  C   UNL     1       4.588   2.862  17.170  0.00  0.00    +0.000 C 
BRANCH  23  24
ATOM     24  C   UNL     1       4.334   4.157  16.398  0.00  0.00    +0.000 C 
BRANCH  24  25
ATOM     25  C   UNL     1       5.564   4.625  15.695  0.00  0.00    +0.000 A 
ATOM     26  C   UNL     1       6.541   5.449  16.219  0.00  0.00    +0.000 A 
ATOM     27  N   UNL     1       7.483   5.661  15.250  0.00  0.00    +0.000 N 
ATOM     28  C   UNL     1       7.138   4.999  14.095  0.00  0.00    +0.000 A 
ATOM     29  C   UNL     1       7.787   4.943  12.857  0.00  0.00    +0.000 A 
ATOM     30  C   UNL     1       7.191   4.185  11.846  0.00  0.00    +0.000 A 
ATOM     31  C   UNL     1       5.998   3.500  12.070  0.00  0.00    +0.000 A 
ATOM     32  C   UNL     1       5.362   3.567  13.313  0.00  0.00    +0.000 A 
ATOM     33  C   UNL     1       5.939   4.331  14.349  0.00  0.00    +0.000 A 
ATOM     34  H   UNL     1       8.309   6.234  15.357  0.00  0.00    +0.000 HD
ENDBRANCH  24  25
ENDBRANCH  23  24
ENDBRANCH  22  23
ENDBRANCH  21  22
ENDBRANCH  19  21
ENDBRANCH   1  19
TORSDOF 8
ENDMDL
MODEL 4
REMARK VINA RESULT:      -7.5      3.061      4.129
REMARK  Name = 
REMARK  9 active torsions:
REMARK  status: ('A' for Active; 'I' for Inactive)
REMARK    1  A    between atoms: C_1  and  N_2
REMARK    2  A    between atoms: N_2  and  C_3
REMARK    3  A    between atoms: N_2  and  C_15
REMARK    4  A    between atoms: C_3  and  C_4
REMARK    5  A    between atoms: C_4  and  C_5
REMARK    6  A    between atoms: C_5  and  C_6
REMARK    7  A    between atoms: C_15  and  C_16
REMARK    8  A    between atoms: C_20  and  C_22
REMARK    9  A    between atoms: C_23  and  C_24
REMARK                            x       y       z     vdW  Elec       q    Type
REMARK                         _______ _______ _______ _____ _____    ______ ____
ROOT
ATOM      1  C   UNL     1       2.673   6.939  18.878  0.00  0.00    +0.000 C 
ATOM      2  C   UNL     1       2.589   7.133  20.406  0.00  0.00    +0.000 C 
ATOM      3  C   UNL     1       1.334   7.881  20.852  0.00  0.00    +0.000 C 
ATOM      4  N   UNL     1       1.210   9.151  20.146  0.00  0.00    +0.000 N 
ATOM      5  C   UNL     1       0.817  10.261  20.883  0.00  0.00    +0.000 C 
ATOM      6  O   UNL     1       0.551  10.216  22.083  0.00  0.00    +0.000 OA
ATOM      7  C   UNL     1       1.203   9.035  18.683  0.00  0.00    +0.000 C 
ATOM      8  C   UNL     1       2.444   8.295  18.182  0.00  0.00    +0.000 C 
ENDROOT
BRANCH   5   9
ATOM      9  C   UNL     1       0.753  11.560  20.170  0.00  0.00    +0.000 C 
ATOM     10  C   UNL     1       1.856  12.316  20.064  0.00  0.00    +0.000 C 
BRANCH  10  11
ATOM     11  C   UNL     1       1.802  13.594  19.361  0.00  0.00    +0.000 A 
ATOM     12  C   UNL     1       2.956  14.094  18.750  0.00  0.00    +0.000 A 
ATOM     13  C   UNL     1       2.940  15.356  18.151  0.00  0.00    +0.000 A 
ATOM     14  C   UNL     1       1.770  16.121  18.156  0.00  0.00    +0.000 A 
ATOM     15 CL   UNL     1       1.832  17.685  17.425  0.00  0.00    +0.000 Cl
ATOM     16  C   UNL     1       0.610  15.615  18.752  0.00  0.00    +0.000 A 
ATOM     17 CL   UNL     1      -0.869  16.508  18.802  0.00  0.00    +0.000 Cl
ATOM     18  C   UNL     1       0.627  14.351  19.353  0.00  0.00    +0.000 A 
ENDBRANCH  10  11
ENDBRANCH   5   9
BRANCH   1  19
ATOM     19  C   UNL     1       1.715   5.812  18.409  0.00  0.00    +0.000 C 
BRANCH  19  21
ATOM     20  C   UNL     1       0.975   4.132  20.029  0.00  0.00    +0.000 C 
ATOM     21  N   UNL     1       1.955   4.477  18.992  0.00  0.00    +0.000 NA
BRANCH  21  22
ATOM     22  C   UNL     1       1.932   3.412  17.963  0.00  0.00    +0.000 C 
BRANCH  22  23
ATOM     23  C   UNL     1       3.018   3.523  16.888  0.00  0.00    +0.000 C 
BRANCH  23  24
ATOM     24  C   UNL     1       4.418   3.616  17.495  0.00  0.00    +0.000 C 
BRANCH  24  25
ATOM     25  C   UNL     1       5.099   4.885  17.106  0.00  0.00    +0.000 A 
ATOM     26  C   UNL     1       4.826   5.650  15.988  0.00  0.00    +0.000 A 
ATOM     27  N   UNL     1       5.684   6.714  15.980  0.00  0.00    +0.000 N 
ATOM     28  C   UNL     1       6.525   6.658  17.067  0.00  0.00    +0.000 A 
ATOM     29  C   UNL     1       7.559   7.517  17.455  0.00  0.00    +0.000 A 
ATOM     30  C   UNL     1       8.259   7.202  18.623  0.00  0.00    +0.000 A 
ATOM     31  C   UNL     1       7.928   6.080  19.379  0.00  0.00    +0.000 A 
ATOM     32  C   UNL     1       6.891   5.232  18.977  0.00  0.00    +0.000 A 
ATOM     33  C   UNL     1       6.172   5.523  17.798  0.00  0.00    +0.000 A 
ATOM     34  H   UNL     1       5.713   7.434  15.270  0.00  0.00    +0.000 HD
ENDBRANCH  24  25
ENDBRANCH  23  24
ENDBRANCH  22  23
ENDBRANCH  21  22
ENDBRANCH  19  21
ENDBRANCH   1  19
TORSDOF 8
ENDMDL
MODEL 5
REMARK VINA RESULT:      -7.5      4.464     11.584
REMARK  Name = 
REMARK  9 active torsions:
REMARK  status: ('A' for Active; 'I' for Inactive)
REMARK    1  A    between atoms: C_1  and  N_2
REMARK    2  A    between atoms: N_2  and  C_3
REMARK    3  A    between atoms: N_2  and  C_15
REMARK    4  A    between atoms: C_3  and  C_4
REMARK    5  A    between atoms: C_4  and  C_5
REMARK    6  A    between atoms: C_5  and  C_6
REMARK    7  A    between atoms: C_15  and  C_16
REMARK    8  A    between atoms: C_20  and  C_22
REMARK    9  A    between atoms: C_23  and  C_24
REMARK                            x       y       z     vdW  Elec       q    Type
REMARK                         _______ _______ _______ _____ _____    ______ ____
ROOT
ATOM      1  C   UNL     1      -0.182  11.905  21.734  0.00  0.00    +0.000 C 
ATOM      2  C   UNL     1       0.854  12.504  20.759  0.00  0.00    +0.000 C 
ATOM      3  C   UNL     1       0.802  11.879  19.366  0.00  0.00    +0.000 C 
ATOM      4  N   UNL     1       0.921  10.428  19.445  0.00  0.00    +0.000 N 
ATOM      5  C   UNL     1       1.734   9.798  18.511  0.00  0.00    +0.000 C 
ATOM      6  O   UNL     1       2.332  10.399  17.620  0.00  0.00    +0.000 OA
ATOM      7  C   UNL     1      -0.084   9.781  20.296  0.00  0.00    +0.000 C 
ATOM      8  C   UNL     1      -0.072  10.368  21.708  0.00  0.00    +0.000 C 
ENDROOT
BRANCH   5   9
ATOM      9  C   UNL     1       1.897   8.328  18.637  0.00  0.00    +0.000 C 
ATOM     10  C   UNL     1       2.820   7.695  17.897  0.00  0.00    +0.000 C 
BRANCH  10  11
ATOM     11  C   UNL     1       2.990   6.251  18.018  0.00  0.00    +0.000 A 
ATOM     12  C   UNL     1       4.019   5.616  17.317  0.00  0.00    +0.000 A 
ATOM     13  C   UNL     1       4.137   4.225  17.354  0.00  0.00    +0.000 A 
ATOM     14  C   UNL     1       3.230   3.463  18.095  0.00  0.00    +0.000 A 
ATOM     15 CL   UNL     1       3.417   1.746  18.069  0.00  0.00    +0.000 Cl
ATOM     16  C   UNL     1       2.207   4.097  18.810  0.00  0.00    +0.000 A 
ATOM     17 CL   UNL     1       1.046   3.218  19.740  0.00  0.00    +0.000 Cl
ATOM     18  C   UNL     1       2.090   5.491  18.772  0.00  0.00    +0.000 A 
ENDBRANCH  10  11
ENDBRANCH   5   9
BRANCH   1  19
ATOM     19  C   UNL     1      -1.603  12.449  21.436  0.00  0.00    +0.000 C 
BRANCH  19  21
ATOM     20  C   UNL     1      -1.145  13.814  23.417  0.00  0.00    +0.000 C 
ATOM     21  N   UNL     1      -2.134  13.433  22.401  0.00  0.00    +0.000 NA
BRANCH  21  22
ATOM     22  C   UNL     1      -2.604  14.666  21.730  0.00  0.00    +0.000 C 
BRANCH  22  23
ATOM     23  C   UNL     1      -4.106  14.712  21.434  0.00  0.00    +0.000 C 
BRANCH  23  24
ATOM     24  C   UNL     1      -4.927  14.017  22.520  0.00  0.00    +0.000 C 
BRANCH  24  25
ATOM     25  C   UNL     1      -5.839  12.987  21.941  0.00  0.00    +0.000 A 
ATOM     26  C   UNL     1      -6.938  12.427  22.563  0.00  0.00    +0.000 A 
ATOM     27  N   UNL     1      -7.487  11.509  21.711  0.00  0.00    +0.000 N 
ATOM     28  C   UNL     1      -6.762  11.447  20.544  0.00  0.00    +0.000 A 
ATOM     29  C   UNL     1      -6.944  10.650  19.409  0.00  0.00    +0.000 A 
ATOM     30  C   UNL     1      -6.033  10.799  18.359  0.00  0.00    +0.000 A 
ATOM     31  C   UNL     1      -4.990  11.720  18.438  0.00  0.00    +0.000 A 
ATOM     32  C   UNL     1      -4.824  12.510  19.580  0.00  0.00    +0.000 A 
ATOM     33  C   UNL     1      -5.725  12.374  20.657  0.00  0.00    +0.000 A 
ATOM     34  H   UNL     1      -8.300  10.942  21.912  0.00  0.00    +0.000 HD
ENDBRANCH  24  25
ENDBRANCH  23  24
ENDBRANCH  22  23
ENDBRANCH  21  22
ENDBRANCH  19  21
ENDBRANCH   1  19
TORSDOF 8
ENDMDL
MODEL 6
REMARK VINA RESULT:      -7.4      1.221      1.718
REMARK  Name = 
REMARK  9 active torsions:
REMARK  status: ('A' for Active; 'I' for Inactive)
REMARK    1  A    between atoms: C_1  and  N_2
REMARK    2  A    between atoms: N_2  and  C_3
REMARK    3  A    between atoms: N_2  and  C_15
REMARK    4  A    between atoms: C_3  and  C_4
REMARK    5  A    between atoms: C_4  and  C_5
REMARK    6  A    between atoms: C_5  and  C_6
REMARK    7  A    between atoms: C_15  and  C_16
REMARK    8  A    between atoms: C_20  and  C_22
REMARK    9  A    between atoms: C_23  and  C_24
REMARK                            x       y       z     vdW  Elec       q    Type
REMARK                         _______ _______ _______ _____ _____    ______ ____
ROOT
ATOM      1  C   UNL     1       1.852   5.888  19.462  0.00  0.00    +0.000 C 
ATOM      2  C   UNL     1       1.818   6.820  18.232  0.00  0.00    +0.000 C 
ATOM      3  C   UNL     1       2.341   8.224  18.525  0.00  0.00    +0.000 C 
ATOM      4  N   UNL     1       1.637   8.813  19.659  0.00  0.00    +0.000 N 
ATOM      5  C   UNL     1       1.264  10.147  19.563  0.00  0.00    +0.000 C 
ATOM      6  O   UNL     1       1.517  10.851  18.587  0.00  0.00    +0.000 OA
ATOM      7  C   UNL     1       1.694   8.016  20.890  0.00  0.00    +0.000 C 
ATOM      8  C   UNL     1       1.177   6.596  20.653  0.00  0.00    +0.000 C 
ENDROOT
BRANCH   5   9
ATOM      9  C   UNL     1       0.496  10.720  20.696  0.00  0.00    +0.000 C 
ATOM     10  C   UNL     1      -0.094  11.917  20.563  0.00  0.00    +0.000 C 
BRANCH  10  11
ATOM     11  C   UNL     1      -0.855  12.485  21.671  0.00  0.00    +0.000 A 
ATOM     12  C   UNL     1      -2.049  11.878  22.070  0.00  0.00    +0.000 A 
ATOM     13  C   UNL     1      -2.831  12.463  23.070  0.00  0.00    +0.000 A 
ATOM     14  C   UNL     1      -2.422  13.653  23.676  0.00  0.00    +0.000 A 
ATOM     15 CL   UNL     1      -3.454  14.335  24.880  0.00  0.00    +0.000 Cl
ATOM     16  C   UNL     1      -1.218  14.254  23.288  0.00  0.00    +0.000 A 
ATOM     17 CL   UNL     1      -0.654  15.730  23.988  0.00  0.00    +0.000 Cl
ATOM     18  C   UNL     1      -0.436  13.668  22.287  0.00  0.00    +0.000 A 
ENDBRANCH  10  11
ENDBRANCH   5   9
BRANCH   1  19
ATOM     19  C   UNL     1       3.296   5.397  19.746  0.00  0.00    +0.000 C 
BRANCH  19  21
ATOM     20  C   UNL     1       2.226   3.197  19.630  0.00  0.00    +0.000 C 
ATOM     21  N   UNL     1       3.462   3.939  19.909  0.00  0.00    +0.000 NA
BRANCH  21  22
ATOM     22  C   UNL     1       4.528   3.403  19.032  0.00  0.00    +0.000 C 
BRANCH  22  23
ATOM     23  C   UNL     1       5.099   4.400  18.019  0.00  0.00    +0.000 C 
BRANCH  23  24
ATOM     24  C   UNL     1       4.878   3.943  16.577  0.00  0.00    +0.000 C 
BRANCH  24  25
ATOM     25  C   UNL     1       5.942   4.462  15.670  0.00  0.00    +0.000 A 
ATOM     26  C   UNL     1       6.939   5.357  16.007  0.00  0.00    +0.000 A 
ATOM     27  N   UNL     1       7.692   5.595  14.891  0.00  0.00    +0.000 N 
ATOM     28  C   UNL     1       7.202   4.881  13.822  0.00  0.00    +0.000 A 
ATOM     29  C   UNL     1       7.640   4.827  12.495  0.00  0.00    +0.000 A 
ATOM     30  C   UNL     1       6.933   4.006  11.612  0.00  0.00    +0.000 A 
ATOM     31  C   UNL     1       5.840   3.258  12.045  0.00  0.00    +0.000 A 
ATOM     32  C   UNL     1       5.415   3.324  13.376  0.00  0.00    +0.000 A 
ATOM     33  C   UNL     1       6.107   4.151  14.286  0.00  0.00    +0.000 A 
ATOM     34  H   UNL     1       8.486   6.220  14.847  0.00  0.00    +0.000 HD
ENDBRANCH  24  25
ENDBRANCH  23  24
ENDBRANCH  22  23
ENDBRANCH  21  22
ENDBRANCH  19  21
ENDBRANCH   1  19
TORSDOF 8
ENDMDL
MODEL 7
REMARK VINA RESULT:      -7.4      2.291      4.230
REMARK  Name = 
REMARK  9 active torsions:
REMARK  status: ('A' for Active; 'I' for Inactive)
REMARK    1  A    between atoms: C_1  and  N_2
REMARK    2  A    between atoms: N_2  and  C_3
REMARK    3  A    between atoms: N_2  and  C_15
REMARK    4  A    between atoms: C_3  and  C_4
REMARK    5  A    between atoms: C_4  and  C_5
REMARK    6  A    between atoms: C_5  and  C_6
REMARK    7  A    between atoms: C_15  and  C_16
REMARK    8  A    between atoms: C_20  and  C_22
REMARK    9  A    between atoms: C_23  and  C_24
REMARK                            x       y       z     vdW  Elec       q    Type
REMARK                         _______ _______ _______ _____ _____    ______ ____
ROOT
ATOM      1  C   UNL     1       0.989   9.629  18.269  0.00  0.00    +0.000 C 
ATOM      2  C   UNL     1       1.759  10.958  18.420  0.00  0.00    +0.000 C 
ATOM      3  C   UNL     1       1.668  11.552  19.824  0.00  0.00    +0.000 C 
ATOM      4  N   UNL     1       0.276  11.693  20.237  0.00  0.00    +0.000 N 
ATOM      5  C   UNL     1      -0.085  12.861  20.895  0.00  0.00    +0.000 C 
ATOM      6  O   UNL     1       0.711  13.761  21.161  0.00  0.00    +0.000 OA
ATOM      7  C   UNL     1      -0.499  10.448  20.194  0.00  0.00    +0.000 C 
ATOM      8  C   UNL     1      -0.444   9.811  18.804  0.00  0.00    +0.000 C 
ENDROOT
BRANCH   5   9
ATOM      9  C   UNL     1      -1.515  13.021  21.257  0.00  0.00    +0.000 C 
ATOM     10  C   UNL     1      -1.948  12.611  22.459  0.00  0.00    +0.000 C 
BRANCH  10  11
ATOM     11  C   UNL     1      -3.352  12.769  22.824  0.00  0.00    +0.000 A 
ATOM     12  C   UNL     1      -3.755  12.524  24.139  0.00  0.00    +0.000 A 
ATOM     13  C   UNL     1      -5.108  12.585  24.480  0.00  0.00    +0.000 A 
ATOM     14  C   UNL     1      -6.063  12.895  23.509  0.00  0.00    +0.000 A 
ATOM     15 CL   UNL     1      -7.721  12.921  23.995  0.00  0.00    +0.000 Cl
ATOM     16  C   UNL     1      -5.661  13.156  22.194  0.00  0.00    +0.000 A 
ATOM     17 CL   UNL     1      -6.788  13.537  20.940  0.00  0.00    +0.000 Cl
ATOM     18  C   UNL     1      -4.305  13.094  21.854  0.00  0.00    +0.000 A 
ENDBRANCH  10  11
ENDBRANCH   5   9
BRANCH   1  19
ATOM     19  C   UNL     1       1.771   8.459  18.921  0.00  0.00    +0.000 C 
BRANCH  19  21
ATOM     20  C   UNL     1       3.531   7.875  17.322  0.00  0.00    +0.000 C 
ATOM     21  N   UNL     1       2.300   7.440  17.993  0.00  0.00    +0.000 NA
BRANCH  21  22
ATOM     22  C   UNL     1       2.579   6.158  18.681  0.00  0.00    +0.000 C 
BRANCH  22  23
ATOM     23  C   UNL     1       1.646   5.003  18.306  0.00  0.00    +0.000 C 
BRANCH  23  24
ATOM     24  C   UNL     1       2.400   3.847  17.648  0.00  0.00    +0.000 C 
BRANCH  24  25
ATOM     25  C   UNL     1       3.862   3.911  17.940  0.00  0.00    +0.000 A 
ATOM     26  C   UNL     1       4.471   3.594  19.139  0.00  0.00    +0.000 A 
ATOM     27  N   UNL     1       5.814   3.810  19.005  0.00  0.00    +0.000 N 
ATOM     28  C   UNL     1       6.099   4.274  17.742  0.00  0.00    +0.000 A 
ATOM     29  C   UNL     1       7.322   4.639  17.168  0.00  0.00    +0.000 A 
ATOM     30  C   UNL     1       7.309   5.088  15.845  0.00  0.00    +0.000 A 
ATOM     31  C   UNL     1       6.120   5.158  15.121  0.00  0.00    +0.000 A 
ATOM     32  C   UNL     1       4.906   4.789  15.710  0.00  0.00    +0.000 A 
ATOM     33  C   UNL     1       4.890   4.338  17.047  0.00  0.00    +0.000 A 
ATOM     34  H   UNL     1       6.503   3.666  19.732  0.00  0.00    +0.000 HD
ENDBRANCH  24  25
ENDBRANCH  23  24
ENDBRANCH  22  23
ENDBRANCH  21  22
ENDBRANCH  19  21
ENDBRANCH   1  19
TORSDOF 8
ENDMDL
MODEL 8
REMARK VINA RESULT:      -7.3      4.771     10.589
REMARK  Name = 
REMARK  9 active torsions:
REMARK  status: ('A' for Active; 'I' for Inactive)
REMARK    1  A    between atoms: C_1  and  N_2
REMARK    2  A    between atoms: N_2  and  C_3
REMARK    3  A    between atoms: N_2  and  C_15
REMARK    4  A    between atoms: C_3  and  C_4
REMARK    5  A    between atoms: C_4  and  C_5
REMARK    6  A    between atoms: C_5  and  C_6
REMARK    7  A    between atoms: C_15  and  C_16
REMARK    8  A    between atoms: C_20  and  C_22
REMARK    9  A    between atoms: C_23  and  C_24
REMARK                            x       y       z     vdW  Elec       q    Type
REMARK                         _______ _______ _______ _____ _____    ______ ____
ROOT
ATOM      1  C   UNL     1      -0.348  11.496  21.804  0.00  0.00    +0.000 C 
ATOM      2  C   UNL     1       0.688  12.240  20.935  0.00  0.00    +0.000 C 
ATOM      3  C   UNL     1       0.670  11.807  19.470  0.00  0.00    +0.000 C 
ATOM      4  N   UNL     1       0.820  10.360  19.357  0.00  0.00    +0.000 N 
ATOM      5  C   UNL     1       1.659   9.877  18.362  0.00  0.00    +0.000 C 
ATOM      6  O   UNL     1       2.256  10.603  17.569  0.00  0.00    +0.000 OA
ATOM      7  C   UNL     1      -0.183   9.586  20.097  0.00  0.00    +0.000 C 
ATOM      8  C   UNL     1      -0.204   9.979  21.575  0.00  0.00    +0.000 C 
ENDROOT
BRANCH   5   9
ATOM      9  C   UNL     1       1.853   8.407  18.293  0.00  0.00    +0.000 C 
ATOM     10  C   UNL     1       2.976   7.908  17.756  0.00  0.00    +0.000 C 
BRANCH  10  11
ATOM     11  C   UNL     1       3.176   6.464  17.689  0.00  0.00    +0.000 A 
ATOM     12  C   UNL     1       2.243   5.610  18.283  0.00  0.00    +0.000 A 
ATOM     13  C   UNL     1       2.469   4.231  18.302  0.00  0.00    +0.000 A 
ATOM     14  C   UNL     1       3.626   3.701  17.725  0.00  0.00    +0.000 A 
ATOM     15 CL   UNL     1       3.855   1.991  17.815  0.00  0.00    +0.000 Cl
ATOM     16  C   UNL     1       4.554   4.554  17.116  0.00  0.00    +0.000 A 
ATOM     17 CL   UNL     1       6.009   3.969  16.390  0.00  0.00    +0.000 Cl
ATOM     18  C   UNL     1       4.327   5.934  17.097  0.00  0.00    +0.000 A 
ENDBRANCH  10  11
ENDBRANCH   5   9
BRANCH   1  19
ATOM     19  C   UNL     1      -1.777  12.047  21.557  0.00  0.00    +0.000 C 
BRANCH  19  21
ATOM     20  C   UNL     1      -1.071  13.717  23.203  0.00  0.00    +0.000 C 
ATOM     21  N   UNL     1      -2.176  13.201  22.386  0.00  0.00    +0.000 NA
BRANCH  21  22
ATOM     22  C   UNL     1      -2.701  14.316  21.565  0.00  0.00    +0.000 C 
BRANCH  22  23
ATOM     23  C   UNL     1      -4.088  14.081  20.960  0.00  0.00    +0.000 C 
BRANCH  23  24
ATOM     24  C   UNL     1      -4.336  12.605  20.649  0.00  0.00    +0.000 C 
BRANCH  24  25
ATOM     25  C   UNL     1      -4.651  12.395  19.206  0.00  0.00    +0.000 A 
ATOM     26  C   UNL     1      -5.749  12.889  18.529  0.00  0.00    +0.000 A 
ATOM     27  N   UNL     1      -5.684  12.452  17.236  0.00  0.00    +0.000 N 
ATOM     28  C   UNL     1      -4.568  11.669  17.052  0.00  0.00    +0.000 A 
ATOM     29  C   UNL     1      -4.109  11.004  15.909  0.00  0.00    +0.000 A 
ATOM     30  C   UNL     1      -2.928  10.266  16.020  0.00  0.00    +0.000 A 
ATOM     31  C   UNL     1      -2.227  10.206  17.223  0.00  0.00    +0.000 A 
ATOM     32  C   UNL     1      -2.700  10.877  18.355  0.00  0.00    +0.000 A 
ATOM     33  C   UNL     1      -3.894  11.624  18.273  0.00  0.00    +0.000 A 
ATOM     34  H   UNL     1      -6.365  12.657  16.517  0.00  0.00    +0.000 HD
ENDBRANCH  24  25
ENDBRANCH  23  24
ENDBRANCH  22  23
ENDBRANCH  21  22
ENDBRANCH  19  21
ENDBRANCH   1  19
TORSDOF 8
ENDMDL
MODEL 9
REMARK VINA RESULT:      -7.3      1.937      2.859
REMARK  Name = 
REMARK  9 active torsions:
REMARK  status: ('A' for Active; 'I' for Inactive)
REMARK    1  A    between atoms: C_1  and  N_2
REMARK    2  A    between atoms: N_2  and  C_3
REMARK    3  A    between atoms: N_2  and  C_15
REMARK    4  A    between atoms: C_3  and  C_4
REMARK    5  A    between atoms: C_4  and  C_5
REMARK    6  A    between atoms: C_5  and  C_6
REMARK    7  A    between atoms: C_15  and  C_16
REMARK    8  A    between atoms: C_20  and  C_22
REMARK    9  A    between atoms: C_23  and  C_24
REMARK                            x       y       z     vdW  Elec       q    Type
REMARK                         _______ _______ _______ _____ _____    ______ ____
ROOT
ATOM      1  C   UNL     1       1.556   5.205  19.959  0.00  0.00    +0.000 C 
ATOM      2  C   UNL     1       1.807   5.573  18.481  0.00  0.00    +0.000 C 
ATOM      3  C   UNL     1       2.593   6.871  18.307  0.00  0.00    +0.000 C 
ATOM      4  N   UNL     1       1.950   7.965  19.026  0.00  0.00    +0.000 N 
ATOM      5  C   UNL     1       1.876   9.197  18.390  0.00  0.00    +0.000 C 
ATOM      6  O   UNL     1       2.340   9.410  17.271  0.00  0.00    +0.000 OA
ATOM      7  C   UNL     1       1.751   7.716  20.459  0.00  0.00    +0.000 C 
ATOM      8  C   UNL     1       0.963   6.425  20.690  0.00  0.00    +0.000 C 
ENDROOT
BRANCH   5   9
ATOM      9  C   UNL     1       1.167  10.287  19.105  0.00  0.00    +0.000 C 
ATOM     10  C   UNL     1      -0.168  10.384  19.015  0.00  0.00    +0.000 C 
BRANCH  10  11
ATOM     11  C   UNL     1      -0.873  11.451  19.718  0.00  0.00    +0.000 A 
ATOM     12  C   UNL     1      -2.207  11.722  19.400  0.00  0.00    +0.000 A 
ATOM     13  C   UNL     1      -2.866  12.797  20.002  0.00  0.00    +0.000 A 
ATOM     14  C   UNL     1      -2.195  13.603  20.926  0.00  0.00    +0.000 A 
ATOM     15 CL   UNL     1      -3.062  14.934  21.606  0.00  0.00    +0.000 Cl
ATOM     16  C   UNL     1      -0.864  13.324  21.257  0.00  0.00    +0.000 A 
ATOM     17 CL   UNL     1       0.029  14.282  22.384  0.00  0.00    +0.000 Cl
ATOM     18  C   UNL     1      -0.206  12.247  20.653  0.00  0.00    +0.000 A 
ENDBRANCH  10  11
ENDBRANCH   5   9
BRANCH   1  19
ATOM     19  C   UNL     1       2.840   4.631  20.613  0.00  0.00    +0.000 C 
BRANCH  19  21
ATOM     20  C   UNL     1       2.112   2.644  21.845  0.00  0.00    +0.000 C 
ATOM     21  N   UNL     1       2.906   3.160  20.723  0.00  0.00    +0.000 NA
BRANCH  21  22
ATOM     22  C   UNL     1       2.443   2.492  19.485  0.00  0.00    +0.000 C 
BRANCH  22  23
ATOM     23  C   UNL     1       3.557   2.039  18.536  0.00  0.00    +0.000 C 
BRANCH  23  24
ATOM     24  C   UNL     1       4.881   2.746  18.826  0.00  0.00    +0.000 C 
BRANCH  24  25
ATOM     25  C   UNL     1       5.120   3.871  17.876  0.00  0.00    +0.000 A 
ATOM     26  C   UNL     1       4.492   4.061  16.660  0.00  0.00    +0.000 A 
ATOM     27  N   UNL     1       5.009   5.189  16.086  0.00  0.00    +0.000 N 
ATOM     28  C   UNL     1       5.973   5.740  16.898  0.00  0.00    +0.000 A 
ATOM     29  C   UNL     1       6.770   6.875  16.713  0.00  0.00    +0.000 A 
ATOM     30  C   UNL     1       7.684   7.196  17.720  0.00  0.00    +0.000 A 
ATOM     31  C   UNL     1       7.788   6.418  18.871  0.00  0.00    +0.000 A 
ATOM     32  C   UNL     1       6.984   5.287  19.040  0.00  0.00    +0.000 A 
ATOM     33  C   UNL     1       6.057   4.936  18.036  0.00  0.00    +0.000 A 
ATOM     34  H   UNL     1       4.737   5.562  15.186  0.00  0.00    +0.000 HD
ENDBRANCH  24  25
ENDBRANCH  23  24
ENDBRANCH  22  23
ENDBRANCH  21  22
ENDBRANCH  19  21
ENDBRANCH   1  19
TORSDOF 8
ENDMDL
