MODEL 1
REMARK VINA RESULT:      -7.9      0.000      0.000
REMARK  Name = 
REMARK  11 active torsions:
REMARK  status: ('A' for Active; 'I' for Inactive)
REMARK    1  A    between atoms: C_1  and  C_2
REMARK    2  A    between atoms: C_2  and  C_3
REMARK    3  A    between atoms: C_2  and  C_4
REMARK    4  A    between atoms: C_4  and  N_5
REMARK    5  A    between atoms: C_4  and  C_6
REMARK    6  A    between atoms: C_6  and  O_8
REMARK    7  A    between atoms: O_8  and  C_9
REMARK    8  A    between atoms: C_9  and  C_10
REMARK    9  A    between atoms: C_12  and  N_13
REMARK   10  A    between atoms: C_23  and  O_24
REMARK   11  A    between atoms: C_25  and  O_26
REMARK                            x       y       z     vdW  Elec       q    Type
REMARK                         _______ _______ _______ _____ _____    ______ ____
ROOT
ATOM      1  C   UNL     1       3.814   3.753  18.368  0.00  0.00    +0.000 C 
ATOM      2  O   UNL     1       4.321   4.941  19.019  0.00  0.00    +0.000 OA
ATOM      3  C   UNL     1       3.276   5.504  19.857  0.00  0.00    +0.000 C 
ATOM      4  C   UNL     1       2.261   4.362  20.038  0.00  0.00    +0.000 C 
ATOM      5  C   UNL     1       2.325   3.651  18.696  0.00  0.00    +0.000 C 
ENDROOT
BRANCH   3   6
ATOM      6  N   UNL     1       2.799   6.723  19.226  0.00  0.00    +0.000 N 
ATOM      7  C   UNL     1       3.147   7.199  17.987  0.00  0.00    +0.000 A 
ATOM      8  N   UNL     1       2.515   8.309  17.681  0.00  0.00    +0.000 NA
ATOM      9  C   UNL     1       1.789   8.616  18.809  0.00  0.00    +0.000 A 
ATOM     10  C   UNL     1       0.930   9.684  19.114  0.00  0.00    +0.000 A 
ATOM     11  N   UNL     1       0.626  10.681  18.200  0.00  0.00    +0.000 N 
ATOM     12  N   UNL     1       0.389   9.742  20.351  0.00  0.00    +0.000 NA
ATOM     13  C   UNL     1       0.679   8.753  21.224  0.00  0.00    +0.000 A 
ATOM     14  N   UNL     1       1.464   7.673  21.035  0.00  0.00    +0.000 NA
ATOM     15  C   UNL     1       1.987   7.667  19.800  0.00  0.00    +0.000 A 
ATOM     16  H   UNL     1       1.298  10.748  17.443  0.00  0.00    +0.000 HD
ATOM     17  H   UNL     1       0.330  11.539  18.646  0.00  0.00    +0.000 HD
ENDBRANCH   3   6
BRANCH   4  18
ATOM     18  O   UNL     1       0.939   4.682  20.433  0.00  0.00    +0.000 OA
ATOM     19  H   UNL     1       0.575   5.371  19.849  0.00  0.00    +0.000 HD
ENDBRANCH   4  18
BRANCH   5  20
ATOM     20  O   UNL     1       1.863   2.311  18.751  0.00  0.00    +0.000 OA
ATOM     21  H   UNL     1       1.443   2.144  19.612  0.00  0.00    +0.000 HD
ENDBRANCH   5  20
BRANCH   1  22
ATOM     22  C   UNL     1       4.079   3.821  16.860  0.00  0.00    +0.000 C 
BRANCH  22  23
ATOM     23  O   UNL     1       5.478   3.887  16.560  0.00  0.00    +0.000 OA
BRANCH  23  24
ATOM     24  C   UNL     1       5.904   5.099  16.105  0.00  0.00    +0.000 C 
ATOM     25  O   UNL     1       5.284   5.797  15.308  0.00  0.00    +0.000 OA
BRANCH  24  26
ATOM     26  C   UNL     1       7.280   5.462  16.701  0.00  0.00    +0.000 C 
BRANCH  26  28
ATOM     27  C   UNL     1       7.809   5.953  19.161  0.00  0.00    +0.000 C 
ATOM     28  C   UNL     1       7.125   6.456  17.881  0.00  0.00    +0.000 C 
ATOM     29  C   UNL     1       7.700   7.839  17.550  0.00  0.00    +0.000 C 
ENDBRANCH  26  28
BRANCH  26  30
ATOM     30  N   UNL     1       7.929   4.198  17.121  0.00  0.00    +0.000 NA
ATOM     31  H   UNL     1       7.981   3.576  16.311  0.00  0.00    +0.000 HD
ATOM     32  H   UNL     1       7.370   3.724  17.826  0.00  0.00    +0.000 HD
ENDBRANCH  26  30
ENDBRANCH  24  26
ENDBRANCH  23  24
ENDBRANCH  22  23
ENDBRANCH   1  22
TORSDOF 9
ENDMDL
MODEL 2
REMARK VINA RESULT:      -7.4      2.153      5.742
REMARK  Name = 
REMARK  11 active torsions:
REMARK  status: ('A' for Active; 'I' for Inactive)
REMARK    1  A    between atoms: C_1  and  C_2
REMARK    2  A    between atoms: C_2  and  C_3
REMARK    3  A    between atoms: C_2  and  C_4
REMARK    4  A    between atoms: C_4  and  N_5
REMARK    5  A    between atoms: C_4  and  C_6
REMARK    6  A    between atoms: C_6  and  O_8
REMARK    7  A    between atoms: O_8  and  C_9
REMARK    8  A    between atoms: C_9  and  C_10
REMARK    9  A    between atoms: C_12  and  N_13
REMARK   10  A    between atoms: C_23  and  O_24
REMARK   11  A    between atoms: C_25  and  O_26
REMARK                            x       y       z     vdW  Elec       q    Type
REMARK                         _______ _______ _______ _____ _____    ______ ____
ROOT
ATOM      1  C   UNL     1       1.901   3.241  19.724  0.00  0.00    +0.000 C 
ATOM      2  O   UNL     1       2.586   3.172  18.452  0.00  0.00    +0.000 OA
ATOM      3  C   UNL     1       3.945   2.706  18.671  0.00  0.00    +0.000 C 
ATOM      4  C   UNL     1       3.920   2.067  20.070  0.00  0.00    +0.000 C 
ATOM      5  C   UNL     1       2.931   2.950  20.815  0.00  0.00    +0.000 C 
ENDROOT
BRANCH   3   6
ATOM      6  N   UNL     1       4.845   3.829  18.468  0.00  0.00    +0.000 N 
ATOM      7  C   UNL     1       5.364   4.652  19.436  0.00  0.00    +0.000 A 
ATOM      8  N   UNL     1       6.182   5.554  18.940  0.00  0.00    +0.000 NA
ATOM      9  C   UNL     1       6.123   5.363  17.578  0.00  0.00    +0.000 A 
ATOM     10  C   UNL     1       6.751   6.018  16.508  0.00  0.00    +0.000 A 
ATOM     11  N   UNL     1       7.657   7.052  16.694  0.00  0.00    +0.000 N 
ATOM     12  N   UNL     1       6.452   5.630  15.248  0.00  0.00    +0.000 NA
ATOM     13  C   UNL     1       5.582   4.609  15.083  0.00  0.00    +0.000 A 
ATOM     14  N   UNL     1       4.942   3.893  16.031  0.00  0.00    +0.000 NA
ATOM     15  C   UNL     1       5.262   4.324  17.259  0.00  0.00    +0.000 A 
ATOM     16  H   UNL     1       7.582   7.489  17.606  0.00  0.00    +0.000 HD
ATOM     17  H   UNL     1       7.729   7.654  15.885  0.00  0.00    +0.000 HD
ENDBRANCH   3   6
BRANCH   4  18
ATOM     18  O   UNL     1       5.143   1.898  20.763  0.00  0.00    +0.000 OA
ATOM     19  H   UNL     1       5.088   2.314  21.642  0.00  0.00    +0.000 HD
ENDBRANCH   4  18
BRANCH   5  20
ATOM     20  O   UNL     1       2.365   2.318  21.952  0.00  0.00    +0.000 OA
ATOM     21  H   UNL     1       2.990   2.359  22.696  0.00  0.00    +0.000 HD
ENDBRANCH   5  20
BRANCH   1  22
ATOM     22  C   UNL     1       1.238   4.613  19.896  0.00  0.00    +0.000 C 
BRANCH  22  23
ATOM     23  O   UNL     1       2.193   5.639  20.195  0.00  0.00    +0.000 OA
BRANCH  23  24
ATOM     24  C   UNL     1       2.309   6.602  19.238  0.00  0.00    +0.000 C 
ATOM     25  O   UNL     1       2.541   6.378  18.053  0.00  0.00    +0.000 OA
BRANCH  24  26
ATOM     26  C   UNL     1       2.141   8.010  19.846  0.00  0.00    +0.000 C 
BRANCH  26  28
ATOM     27  C   UNL     1       0.319   9.813  19.823  0.00  0.00    +0.000 C 
ATOM     28  C   UNL     1       1.193   8.877  18.977  0.00  0.00    +0.000 C 
ATOM     29  C   UNL     1       1.963   9.735  17.964  0.00  0.00    +0.000 C 
ENDBRANCH  26  28
BRANCH  26  30
ATOM     30  N   UNL     1       1.628   7.839  21.225  0.00  0.00    +0.000 NA
ATOM     31  H   UNL     1       1.892   6.907  21.556  0.00  0.00    +0.000 HD
ATOM     32  H   UNL     1       0.612   7.884  21.240  0.00  0.00    +0.000 HD
ENDBRANCH  26  30
ENDBRANCH  24  26
ENDBRANCH  23  24
ENDBRANCH  22  23
ENDBRANCH   1  22
TORSDOF 9
ENDMDL
MODEL 3
REMARK VINA RESULT:      -7.4      0.963      1.200
REMARK  Name = 
REMARK  11 active torsions:
REMARK  status: ('A' for Active; 'I' for Inactive)
REMARK    1  A    between atoms: C_1  and  C_2
REMARK    2  A    between atoms: C_2  and  C_3
REMARK    3  A    between atoms: C_2  and  C_4
REMARK    4  A    between atoms: C_4  and  N_5
REMARK    5  A    between atoms: C_4  and  C_6
REMARK    6  A    between atoms: C_6  and  O_8
REMARK    7  A    between atoms: O_8  and  C_9
REMARK    8  A    between atoms: C_9  and  C_10
REMARK    9  A    between atoms: C_12  and  N_13
REMARK   10  A    between atoms: C_23  and  O_24
REMARK   11  A    between atoms: C_25  and  O_26
REMARK                            x       y       z     vdW  Elec       q    Type
REMARK                         _______ _______ _______ _____ _____    ______ ____
ROOT
ATOM      1  C   UNL     1       3.626   3.665  18.468  0.00  0.00    +0.000 C 
ATOM      2  O   UNL     1       4.171   4.840  19.113  0.00  0.00    +0.000 OA
ATOM      3  C   UNL     1       3.142   5.445  19.940  0.00  0.00    +0.000 C 
ATOM      4  C   UNL     1       2.087   4.341  20.125  0.00  0.00    +0.000 C 
ATOM      5  C   UNL     1       2.133   3.618  18.788  0.00  0.00    +0.000 C 
ENDROOT
BRANCH   3   6
ATOM      6  N   UNL     1       2.712   6.676  19.297  0.00  0.00    +0.000 N 
ATOM      7  C   UNL     1       3.083   7.129  18.057  0.00  0.00    +0.000 A 
ATOM      8  N   UNL     1       2.492   8.259  17.739  0.00  0.00    +0.000 NA
ATOM      9  C   UNL     1       1.770   8.599  18.860  0.00  0.00    +0.000 A 
ATOM     10  C   UNL     1       0.946   9.698  19.152  0.00  0.00    +0.000 A 
ATOM     11  N   UNL     1       0.682  10.698  18.228  0.00  0.00    +0.000 N 
ATOM     12  N   UNL     1       0.400   9.784  20.385  0.00  0.00    +0.000 NA
ATOM     13  C   UNL     1       0.651   8.792  21.267  0.00  0.00    +0.000 A 
ATOM     14  N   UNL     1       1.399   7.685  21.090  0.00  0.00    +0.000 NA
ATOM     15  C   UNL     1       1.929   7.651  19.859  0.00  0.00    +0.000 A 
ATOM     16  H   UNL     1       1.361  10.736  17.475  0.00  0.00    +0.000 HD
ATOM     17  H   UNL     1       0.413  11.569  18.666  0.00  0.00    +0.000 HD
ENDBRANCH   3   6
BRANCH   4  18
ATOM     18  O   UNL     1       0.775   4.710  20.510  0.00  0.00    +0.000 OA
ATOM     19  H   UNL     1       0.770   4.996  21.442  0.00  0.00    +0.000 HD
ENDBRANCH   4  18
BRANCH   5  20
ATOM     20  O   UNL     1       1.625   2.295  18.851  0.00  0.00    +0.000 OA
ATOM     21  H   UNL     1       2.357   1.668  18.985  0.00  0.00    +0.000 HD
ENDBRANCH   5  20
BRANCH   1  22
ATOM     22  C   UNL     1       3.901   3.711  16.960  0.00  0.00    +0.000 C 
BRANCH  22  23
ATOM     23  O   UNL     1       5.277   3.453  16.655  0.00  0.00    +0.000 OA
BRANCH  23  24
ATOM     24  C   UNL     1       5.846   4.348  15.799  0.00  0.00    +0.000 C 
ATOM     25  O   UNL     1       6.294   4.060  14.692  0.00  0.00    +0.000 OA
BRANCH  24  26
ATOM     26  C   UNL     1       5.877   5.762  16.415  0.00  0.00    +0.000 C 
BRANCH  26  28
ATOM     27  C   UNL     1       7.427   7.558  17.386  0.00  0.00    +0.000 C 
ATOM     28  C   UNL     1       7.279   6.080  16.996  0.00  0.00    +0.000 C 
ATOM     29  C   UNL     1       7.597   5.230  18.232  0.00  0.00    +0.000 C 
ENDBRANCH  26  28
BRANCH  26  30
ATOM     30  N   UNL     1       5.486   6.717  15.352  0.00  0.00    +0.000 NA
ATOM     31  H   UNL     1       4.963   7.484  15.782  0.00  0.00    +0.000 HD
ATOM     32  H   UNL     1       4.866   6.273  14.679  0.00  0.00    +0.000 HD
ENDBRANCH  26  30
ENDBRANCH  24  26
ENDBRANCH  23  24
ENDBRANCH  22  23
ENDBRANCH   1  22
TORSDOF 9
ENDMDL
MODEL 4
REMARK VINA RESULT:      -7.1      1.669      2.532
REMARK  Name = 
REMARK  11 active torsions:
REMARK  status: ('A' for Active; 'I' for Inactive)
REMARK    1  A    between atoms: C_1  and  C_2
REMARK    2  A    between atoms: C_2  and  C_3
REMARK    3  A    between atoms: C_2  and  C_4
REMARK    4  A    between atoms: C_4  and  N_5
REMARK    5  A    between atoms: C_4  and  C_6
REMARK    6  A    between atoms: C_6  and  O_8
REMARK    7  A    between atoms: O_8  and  C_9
REMARK    8  A    between atoms: C_9  and  C_10
REMARK    9  A    between atoms: C_12  and  N_13
REMARK   10  A    between atoms: C_23  and  O_24
REMARK   11  A    between atoms: C_25  and  O_26
REMARK                            x       y       z     vdW  Elec       q    Type
REMARK                         _______ _______ _______ _____ _____    ______ ____
ROOT
ATOM      1  C   UNL     1       4.881   4.059  18.596  0.00  0.00    +0.000 C 
ATOM      2  O   UNL     1       4.728   5.142  19.544  0.00  0.00    +0.000 OA
ATOM      3  C   UNL     1       3.314   5.340  19.813  0.00  0.00    +0.000 C 
ATOM      4  C   UNL     1       2.639   4.041  19.337  0.00  0.00    +0.000 C 
ATOM      5  C   UNL     1       3.482   3.658  18.131  0.00  0.00    +0.000 C 
ENDROOT
BRANCH   3   6
ATOM      6  N   UNL     1       2.901   6.577  19.173  0.00  0.00    +0.000 N 
ATOM      7  C   UNL     1       3.321   7.054  17.956  0.00  0.00    +0.000 A 
ATOM      8  N   UNL     1       2.734   8.184  17.632  0.00  0.00    +0.000 NA
ATOM      9  C   UNL     1       1.963   8.500  18.727  0.00  0.00    +0.000 A 
ATOM     10  C   UNL     1       1.119   9.588  19.002  0.00  0.00    +0.000 A 
ATOM     11  N   UNL     1       0.885  10.601  18.085  0.00  0.00    +0.000 N 
ATOM     12  N   UNL     1       0.521   9.650  20.212  0.00  0.00    +0.000 NA
ATOM     13  C   UNL     1       0.742   8.645  21.088  0.00  0.00    +0.000 A 
ATOM     14  N   UNL     1       1.507   7.546  20.925  0.00  0.00    +0.000 NA
ATOM     15  C   UNL     1       2.088   7.537  19.717  0.00  0.00    +0.000 A 
ATOM     16  H   UNL     1       1.595  10.657  17.361  0.00  0.00    +0.000 HD
ATOM     17  H   UNL     1       0.591  11.463  18.525  0.00  0.00    +0.000 HD
ENDBRANCH   3   6
BRANCH   4  18
ATOM     18  O   UNL     1       1.251   4.058  19.061  0.00  0.00    +0.000 OA
ATOM     19  H   UNL     1       1.079   3.647  18.194  0.00  0.00    +0.000 HD
ENDBRANCH   4  18
BRANCH   5  20
ATOM     20  O   UNL     1       3.386   2.282  17.798  0.00  0.00    +0.000 OA
ATOM     21  H   UNL     1       3.676   2.146  16.879  0.00  0.00    +0.000 HD
ENDBRANCH   5  20
BRANCH   1  22
ATOM     22  C   UNL     1       5.782   4.493  17.435  0.00  0.00    +0.000 C 
BRANCH  22  23
ATOM     23  O   UNL     1       5.108   4.421  16.173  0.00  0.00    +0.000 OA
BRANCH  23  24
ATOM     24  C   UNL     1       5.598   5.261  15.218  0.00  0.00    +0.000 C 
ATOM     25  O   UNL     1       5.215   6.415  15.049  0.00  0.00    +0.000 OA
BRANCH  24  26
ATOM     26  C   UNL     1       6.674   4.561  14.363  0.00  0.00    +0.000 C 
BRANCH  26  28
ATOM     27  C   UNL     1       7.376   4.730  11.904  0.00  0.00    +0.000 C 
ATOM     28  C   UNL     1       6.224   4.461  12.883  0.00  0.00    +0.000 C 
ATOM     29  C   UNL     1       5.633   3.084  12.552  0.00  0.00    +0.000 C 
ENDBRANCH  26  28
BRANCH  26  30
ATOM     30  N   UNL     1       7.929   5.335  14.511  0.00  0.00    +0.000 NA
ATOM     31  H   UNL     1       8.698   4.678  14.668  0.00  0.00    +0.000 HD
ATOM     32  H   UNL     1       7.884   5.942  15.325  0.00  0.00    +0.000 HD
ENDBRANCH  26  30
ENDBRANCH  24  26
ENDBRANCH  23  24
ENDBRANCH  22  23
ENDBRANCH   1  22
TORSDOF 9
ENDMDL
MODEL 5
REMARK VINA RESULT:      -7.1      1.649      2.378
REMARK  Name = 
REMARK  11 active torsions:
REMARK  status: ('A' for Active; 'I' for Inactive)
REMARK    1  A    between atoms: C_1  and  C_2
REMARK    2  A    between atoms: C_2  and  C_3
REMARK    3  A    between atoms: C_2  and  C_4
REMARK    4  A    between atoms: C_4  and  N_5
REMARK    5  A    between atoms: C_4  and  C_6
REMARK    6  A    between atoms: C_6  and  O_8
REMARK    7  A    between atoms: O_8  and  C_9
REMARK    8  A    between atoms: C_9  and  C_10
REMARK    9  A    between atoms: C_12  and  N_13
REMARK   10  A    between atoms: C_23  and  O_24
REMARK   11  A    between atoms: C_25  and  O_26
REMARK                            x       y       z     vdW  Elec       q    Type
REMARK                         _______ _______ _______ _____ _____    ______ ____
ROOT
ATOM      1  C   UNL     1       4.712   4.060  19.247  0.00  0.00    +0.000 C 
ATOM      2  O   UNL     1       4.193   5.073  20.141  0.00  0.00    +0.000 OA
ATOM      3  C   UNL     1       2.773   5.244  19.888  0.00  0.00    +0.000 C 
ATOM      4  C   UNL     1       2.357   3.979  19.117  0.00  0.00    +0.000 C 
ATOM      5  C   UNL     1       3.591   3.686  18.279  0.00  0.00    +0.000 C 
ENDROOT
BRANCH   3   6
ATOM      6  N   UNL     1       2.583   6.521  19.221  0.00  0.00    +0.000 N 
ATOM      7  C   UNL     1       3.104   6.903  18.010  0.00  0.00    +0.000 A 
ATOM      8  N   UNL     1       2.718   8.108  17.656  0.00  0.00    +0.000 NA
ATOM      9  C   UNL     1       1.984   8.564  18.727  0.00  0.00    +0.000 A 
ATOM     10  C   UNL     1       1.323   9.779  18.965  0.00  0.00    +0.000 A 
ATOM     11  N   UNL     1       1.280  10.802  18.029  0.00  0.00    +0.000 N 
ATOM     12  N   UNL     1       0.714   9.959  20.158  0.00  0.00    +0.000 NA
ATOM     13  C   UNL     1       0.747   8.946  21.053  0.00  0.00    +0.000 A 
ATOM     14  N   UNL     1       1.325   7.735  20.924  0.00  0.00    +0.000 NA
ATOM     15  C   UNL     1       1.925   7.610  19.731  0.00  0.00    +0.000 A 
ATOM     16  H   UNL     1       2.006  10.729  17.324  0.00  0.00    +0.000 HD
ATOM     17  H   UNL     1       1.121  11.707  18.451  0.00  0.00    +0.000 HD
ENDBRANCH   3   6
BRANCH   4  18
ATOM     18  O   UNL     1       1.163   4.008  18.355  0.00  0.00    +0.000 OA
ATOM     19  H   UNL     1       0.489   3.442  18.771  0.00  0.00    +0.000 HD
ENDBRANCH   4  18
BRANCH   5  20
ATOM     20  O   UNL     1       3.665   2.336  17.847  0.00  0.00    +0.000 OA
ATOM     21  H   UNL     1       2.913   2.137  17.263  0.00  0.00    +0.000 HD
ENDBRANCH   5  20
BRANCH   1  22
ATOM     22  C   UNL     1       5.961   4.579  18.525  0.00  0.00    +0.000 C 
BRANCH  22  23
ATOM     23  O   UNL     1       5.908   4.334  17.114  0.00  0.00    +0.000 OA
BRANCH  23  24
ATOM     24  C   UNL     1       7.080   4.556  16.455  0.00  0.00    +0.000 C 
ATOM     25  O   UNL     1       8.183   4.205  16.865  0.00  0.00    +0.000 OA
BRANCH  24  26
ATOM     26  C   UNL     1       6.840   5.329  15.142  0.00  0.00    +0.000 C 
BRANCH  26  28
ATOM     27  C   UNL     1       5.585   3.843  13.473  0.00  0.00    +0.000 C 
ATOM     28  C   UNL     1       6.951   4.386  13.917  0.00  0.00    +0.000 C 
ATOM     29  C   UNL     1       7.600   5.079  12.712  0.00  0.00    +0.000 C 
ENDBRANCH  26  28
BRANCH  26  30
ATOM     30  N   UNL     1       5.503   5.960  15.238  0.00  0.00    +0.000 NA
ATOM     31  H   UNL     1       5.622   6.976  15.236  0.00  0.00    +0.000 HD
ATOM     32  H   UNL     1       5.051   5.714  16.115  0.00  0.00    +0.000 HD
ENDBRANCH  26  30
ENDBRANCH  24  26
ENDBRANCH  23  24
ENDBRANCH  22  23
ENDBRANCH   1  22
TORSDOF 9
ENDMDL
MODEL 6
REMARK VINA RESULT:      -7.0      1.348      1.632
REMARK  Name = 
REMARK  11 active torsions:
REMARK  status: ('A' for Active; 'I' for Inactive)
REMARK    1  A    between atoms: C_1  and  C_2
REMARK    2  A    between atoms: C_2  and  C_3
REMARK    3  A    between atoms: C_2  and  C_4
REMARK    4  A    between atoms: C_4  and  N_5
REMARK    5  A    between atoms: C_4  and  C_6
REMARK    6  A    between atoms: C_6  and  O_8
REMARK    7  A    between atoms: O_8  and  C_9
REMARK    8  A    between atoms: C_9  and  C_10
REMARK    9  A    between atoms: C_12  and  N_13
REMARK   10  A    between atoms: C_23  and  O_24
REMARK   11  A    between atoms: C_25  and  O_26
REMARK                            x       y       z     vdW  Elec       q    Type
REMARK                         _______ _______ _______ _____ _____    ______ ____
ROOT
ATOM      1  C   UNL     1       4.246   3.776  19.347  0.00  0.00    +0.000 C 
ATOM      2  O   UNL     1       3.619   4.773  20.187  0.00  0.00    +0.000 OA
ATOM      3  C   UNL     1       2.288   5.052  19.677  0.00  0.00    +0.000 C 
ATOM      4  C   UNL     1       1.961   3.859  18.761  0.00  0.00    +0.000 C 
ATOM      5  C   UNL     1       3.317   3.528  18.160  0.00  0.00    +0.000 C 
ENDROOT
BRANCH   3   6
ATOM      6  N   UNL     1       2.304   6.372  19.070  0.00  0.00    +0.000 N 
ATOM      7  C   UNL     1       2.888   6.723  17.878  0.00  0.00    +0.000 A 
ATOM      8  N   UNL     1       2.696   7.988  17.580  0.00  0.00    +0.000 NA
ATOM      9  C   UNL     1       2.031   8.503  18.669  0.00  0.00    +0.000 A 
ATOM     10  C   UNL     1       1.563   9.794  18.962  0.00  0.00    +0.000 A 
ATOM     11  N   UNL     1       1.688  10.852  18.074  0.00  0.00    +0.000 N 
ATOM     12  N   UNL     1       0.978  10.011  20.161  0.00  0.00    +0.000 NA
ATOM     13  C   UNL     1       0.847   8.966  21.007  0.00  0.00    +0.000 A 
ATOM     14  N   UNL     1       1.232   7.687  20.824  0.00  0.00    +0.000 NA
ATOM     15  C   UNL     1       1.817   7.525  19.628  0.00  0.00    +0.000 A 
ATOM     16  H   UNL     1       2.400  10.700  17.368  0.00  0.00    +0.000 HD
ATOM     17  H   UNL     1       1.666  11.751  18.537  0.00  0.00    +0.000 HD
ENDBRANCH   3   6
BRANCH   4  18
ATOM     18  O   UNL     1       0.944   4.007  17.787  0.00  0.00    +0.000 OA
ATOM     19  H   UNL     1       0.232   3.361  17.948  0.00  0.00    +0.000 HD
ENDBRANCH   4  18
BRANCH   5  20
ATOM     20  O   UNL     1       3.399   2.201  17.664  0.00  0.00    +0.000 OA
ATOM     21  H   UNL     1       2.814   2.102  16.893  0.00  0.00    +0.000 HD
ENDBRANCH   5  20
BRANCH   1  22
ATOM     22  C   UNL     1       5.639   4.247  18.913  0.00  0.00    +0.000 C 
BRANCH  22  23
ATOM     23  O   UNL     1       5.872   4.025  17.517  0.00  0.00    +0.000 OA
BRANCH  23  24
ATOM     24  C   UNL     1       6.820   4.833  16.964  0.00  0.00    +0.000 C 
ATOM     25  O   UNL     1       7.820   4.428  16.378  0.00  0.00    +0.000 OA
BRANCH  24  26
ATOM     26  C   UNL     1       6.485   6.321  17.197  0.00  0.00    +0.000 C 
BRANCH  26  28
ATOM     27  C   UNL     1       7.513   8.631  17.612  0.00  0.00    +0.000 C 
ATOM     28  C   UNL     1       7.751   7.114  17.609  0.00  0.00    +0.000 C 
ATOM     29  C   UNL     1       8.256   6.712  19.001  0.00  0.00    +0.000 C 
ENDBRANCH  26  28
BRANCH  26  30
ATOM     30  N   UNL     1       5.886   6.841  15.945  0.00  0.00    +0.000 NA
ATOM     31  H   UNL     1       5.119   7.471  16.190  0.00  0.00    +0.000 HD
ATOM     32  H   UNL     1       5.487   6.084  15.396  0.00  0.00    +0.000 HD
ENDBRANCH  26  30
ENDBRANCH  24  26
ENDBRANCH  23  24
ENDBRANCH  22  23
ENDBRANCH   1  22
TORSDOF 9
ENDMDL
MODEL 7
REMARK VINA RESULT:      -7.0      2.294      5.805
REMARK  Name = 
REMARK  11 active torsions:
REMARK  status: ('A' for Active; 'I' for Inactive)
REMARK    1  A    between atoms: C_1  and  C_2
REMARK    2  A    between atoms: C_2  and  C_3
REMARK    3  A    between atoms: C_2  and  C_4
REMARK    4  A    between atoms: C_4  and  N_5
REMARK    5  A    between atoms: C_4  and  C_6
REMARK    6  A    between atoms: C_6  and  O_8
REMARK    7  A    between atoms: O_8  and  C_9
REMARK    8  A    between atoms: C_9  and  C_10
REMARK    9  A    between atoms: C_12  and  N_13
REMARK   10  A    between atoms: C_23  and  O_24
REMARK   11  A    between atoms: C_25  and  O_26
REMARK                            x       y       z     vdW  Elec       q    Type
REMARK                         _______ _______ _______ _____ _____    ______ ____
ROOT
ATOM      1  C   UNL     1       1.931   3.647  19.969  0.00  0.00    +0.000 C 
ATOM      2  O   UNL     1       2.403   3.712  18.603  0.00  0.00    +0.000 OA
ATOM      3  C   UNL     1       3.707   3.075  18.523  0.00  0.00    +0.000 C 
ATOM      4  C   UNL     1       3.808   2.225  19.802  0.00  0.00    +0.000 C 
ATOM      5  C   UNL     1       3.066   3.076  20.819  0.00  0.00    +0.000 C 
ENDROOT
BRANCH   3   6
ATOM      6  N   UNL     1       4.706   4.114  18.334  0.00  0.00    +0.000 N 
ATOM      7  C   UNL     1       5.237   4.930  19.301  0.00  0.00    +0.000 A 
ATOM      8  N   UNL     1       6.151   5.744  18.822  0.00  0.00    +0.000 NA
ATOM      9  C   UNL     1       6.151   5.506  17.467  0.00  0.00    +0.000 A 
ATOM     10  C   UNL     1       6.888   6.067  16.412  0.00  0.00    +0.000 A 
ATOM     11  N   UNL     1       7.864   7.032  16.615  0.00  0.00    +0.000 N 
ATOM     12  N   UNL     1       6.626   5.656  15.152  0.00  0.00    +0.000 NA
ATOM     13  C   UNL     1       5.687   4.702  14.973  0.00  0.00    +0.000 A 
ATOM     14  N   UNL     1       4.940   4.077  15.905  0.00  0.00    +0.000 NA
ATOM     15  C   UNL     1       5.226   4.527  17.135  0.00  0.00    +0.000 A 
ATOM     16  H   UNL     1       7.776   7.509  17.506  0.00  0.00    +0.000 HD
ATOM     17  H   UNL     1       8.029   7.595  15.792  0.00  0.00    +0.000 HD
ENDBRANCH   3   6
BRANCH   4  18
ATOM     18  O   UNL     1       5.089   1.818  20.249  0.00  0.00    +0.000 OA
ATOM     19  H   UNL     1       5.700   1.752  19.493  0.00  0.00    +0.000 HD
ENDBRANCH   4  18
BRANCH   5  20
ATOM     20  O   UNL     1       2.598   2.333  21.934  0.00  0.00    +0.000 OA
ATOM     21  H   UNL     1       3.344   1.880  22.363  0.00  0.00    +0.000 HD
ENDBRANCH   5  20
BRANCH   1  22
ATOM     22  C   UNL     1       1.486   5.036  20.443  0.00  0.00    +0.000 C 
BRANCH  22  23
ATOM     23  O   UNL     1       2.364   6.070  19.982  0.00  0.00    +0.000 OA
BRANCH  23  24
ATOM     24  C   UNL     1       1.831   7.324  20.015  0.00  0.00    +0.000 C 
ATOM     25  O   UNL     1       1.414   7.873  21.031  0.00  0.00    +0.000 OA
BRANCH  24  26
ATOM     26  C   UNL     1       1.797   7.948  18.604  0.00  0.00    +0.000 C 
BRANCH  26  28
ATOM     27  C   UNL     1       2.363  10.311  17.789  0.00  0.00    +0.000 C 
ATOM     28  C   UNL     1       1.447   9.457  18.677  0.00  0.00    +0.000 C 
ATOM     29  C   UNL     1      -0.005   9.733  18.265  0.00  0.00    +0.000 C 
ENDBRANCH  26  28
BRANCH  26  30
ATOM     30  N   UNL     1       3.122   7.714  17.984  0.00  0.00    +0.000 NA
ATOM     31  H   UNL     1       3.321   8.487  17.344  0.00  0.00    +0.000 HD
ATOM     32  H   UNL     1       3.114   6.861  17.430  0.00  0.00    +0.000 HD
ENDBRANCH  26  30
ENDBRANCH  24  26
ENDBRANCH  23  24
ENDBRANCH  22  23
ENDBRANCH   1  22
TORSDOF 9
ENDMDL
MODEL 8
REMARK VINA RESULT:      -6.9      3.412      5.316
REMARK  Name = 
REMARK  11 active torsions:
REMARK  status: ('A' for Active; 'I' for Inactive)
REMARK    1  A    between atoms: C_1  and  C_2
REMARK    2  A    between atoms: C_2  and  C_3
REMARK    3  A    between atoms: C_2  and  C_4
REMARK    4  A    between atoms: C_4  and  N_5
REMARK    5  A    between atoms: C_4  and  C_6
REMARK    6  A    between atoms: C_6  and  O_8
REMARK    7  A    between atoms: O_8  and  C_9
REMARK    8  A    between atoms: C_9  and  C_10
REMARK    9  A    between atoms: C_12  and  N_13
REMARK   10  A    between atoms: C_23  and  O_24
REMARK   11  A    between atoms: C_25  and  O_26
REMARK                            x       y       z     vdW  Elec       q    Type
REMARK                         _______ _______ _______ _____ _____    ______ ____
ROOT
ATOM      1  C   UNL     1       6.591   4.833  16.064  0.00  0.00    +0.000 C 
ATOM      2  O   UNL     1       5.356   5.581  16.164  0.00  0.00    +0.000 OA
ATOM      3  C   UNL     1       4.969   5.669  17.562  0.00  0.00    +0.000 C 
ATOM      4  C   UNL     1       6.250   5.333  18.346  0.00  0.00    +0.000 C 
ATOM      5  C   UNL     1       6.914   4.293  17.456  0.00  0.00    +0.000 C 
ENDROOT
BRANCH   3   6
ATOM      6  N   UNL     1       3.818   4.806  17.767  0.00  0.00    +0.000 N 
ATOM      7  C   UNL     1       3.321   3.875  16.890  0.00  0.00    +0.000 A 
ATOM      8  N   UNL     1       2.292   3.223  17.382  0.00  0.00    +0.000 NA
ATOM      9  C   UNL     1       2.055   3.819  18.600  0.00  0.00    +0.000 A 
ATOM     10  C   UNL     1       1.086   3.586  19.589  0.00  0.00    +0.000 A 
ATOM     11  N   UNL     1       0.140   2.578  19.484  0.00  0.00    +0.000 N 
ATOM     12  N   UNL     1       1.074   4.384  20.680  0.00  0.00    +0.000 NA
ATOM     13  C   UNL     1       2.014   5.349  20.777  0.00  0.00    +0.000 A 
ATOM     14  N   UNL     1       3.002   5.646  19.908  0.00  0.00    +0.000 NA
ATOM     15  C   UNL     1       2.964   4.837  18.839  0.00  0.00    +0.000 A 
ATOM     16  H   UNL     1       0.007   2.252  18.532  0.00  0.00    +0.000 HD
ATOM     17  H   UNL     1      -0.685   2.761  20.040  0.00  0.00    +0.000 HD
ENDBRANCH   3   6
BRANCH   4  18
ATOM     18  O   UNL     1       6.133   4.915  19.694  0.00  0.00    +0.000 OA
ATOM     19  H   UNL     1       5.979   3.954  19.732  0.00  0.00    +0.000 HD
ENDBRANCH   4  18
BRANCH   5  20
ATOM     20  O   UNL     1       8.308   4.169  17.688  0.00  0.00    +0.000 OA
ATOM     21  H   UNL     1       8.470   3.472  18.348  0.00  0.00    +0.000 HD
ENDBRANCH   5  20
BRANCH   1  22
ATOM     22  C   UNL     1       6.452   3.718  15.021  0.00  0.00    +0.000 C 
BRANCH  22  23
ATOM     23  O   UNL     1       5.755   4.158  13.850  0.00  0.00    +0.000 OA
BRANCH  23  24
ATOM     24  C   UNL     1       6.514   4.201  12.719  0.00  0.00    +0.000 C 
ATOM     25  O   UNL     1       7.521   4.891  12.586  0.00  0.00    +0.000 OA
BRANCH  24  26
ATOM     26  C   UNL     1       5.925   3.291  11.621  0.00  0.00    +0.000 C 
BRANCH  26  28
ATOM     27  C   UNL     1       5.725   0.802  11.043  0.00  0.00    +0.000 C 
ATOM     28  C   UNL     1       6.623   1.907  11.618  0.00  0.00    +0.000 C 
ATOM     29  C   UNL     1       7.929   1.922  10.813  0.00  0.00    +0.000 C 
ENDBRANCH  26  28
BRANCH  26  30
ATOM     30  N   UNL     1       4.469   3.178  11.874  0.00  0.00    +0.000 NA
ATOM     31  H   UNL     1       4.264   3.600  12.783  0.00  0.00    +0.000 HD
ATOM     32  H   UNL     1       4.188   2.202  11.928  0.00  0.00    +0.000 HD
ENDBRANCH  26  30
ENDBRANCH  24  26
ENDBRANCH  23  24
ENDBRANCH  22  23
ENDBRANCH   1  22
TORSDOF 9
ENDMDL
MODEL 9
REMARK VINA RESULT:      -6.8      2.195      6.338
REMARK  Name = 
REMARK  11 active torsions:
REMARK  status: ('A' for Active; 'I' for Inactive)
REMARK    1  A    between atoms: C_1  and  C_2
REMARK    2  A    between atoms: C_2  and  C_3
REMARK    3  A    between atoms: C_2  and  C_4
REMARK    4  A    between atoms: C_4  and  N_5
REMARK    5  A    between atoms: C_4  and  C_6
REMARK    6  A    between atoms: C_6  and  O_8
REMARK    7  A    between atoms: O_8  and  C_9
REMARK    8  A    between atoms: C_9  and  C_10
REMARK    9  A    between atoms: C_12  and  N_13
REMARK   10  A    between atoms: C_23  and  O_24
REMARK   11  A    between atoms: C_25  and  O_26
REMARK                            x       y       z     vdW  Elec       q    Type
REMARK                         _______ _______ _______ _____ _____    ______ ____
ROOT
ATOM      1  C   UNL     1       1.210   5.014  19.451  0.00  0.00    +0.000 C 
ATOM      2  O   UNL     1       2.023   5.398  18.317  0.00  0.00    +0.000 OA
ATOM      3  C   UNL     1       2.622   4.207  17.740  0.00  0.00    +0.000 C 
ATOM      4  C   UNL     1       1.785   3.040  18.292  0.00  0.00    +0.000 C 
ATOM      5  C   UNL     1       1.434   3.522  19.691  0.00  0.00    +0.000 C 
ENDROOT
BRANCH   3   6
ATOM      6  N   UNL     1       4.041   4.216  18.057  0.00  0.00    +0.000 N 
ATOM      7  C   UNL     1       4.607   4.089  19.300  0.00  0.00    +0.000 A 
ATOM      8  N   UNL     1       5.920   4.096  19.256  0.00  0.00    +0.000 NA
ATOM      9  C   UNL     1       6.220   4.327  17.932  0.00  0.00    +0.000 A 
ATOM     10  C   UNL     1       7.441   4.462  17.254  0.00  0.00    +0.000 A 
ATOM     11  N   UNL     1       8.667   4.329  17.889  0.00  0.00    +0.000 N 
ATOM     12  N   UNL     1       7.417   4.740  15.932  0.00  0.00    +0.000 NA
ATOM     13  C   UNL     1       6.216   4.847  15.322  0.00  0.00    +0.000 A 
ATOM     14  N   UNL     1       4.988   4.713  15.863  0.00  0.00    +0.000 NA
ATOM     15  C   UNL     1       5.064   4.451  17.176  0.00  0.00    +0.000 A 
ATOM     16  H   UNL     1       8.610   4.446  18.896  0.00  0.00    +0.000 HD
ATOM     17  H   UNL     1       9.411   4.807  17.400  0.00  0.00    +0.000 HD
ENDBRANCH   3   6
BRANCH   4  18
ATOM     18  O   UNL     1       2.341   1.737  18.279  0.00  0.00    +0.000 OA
ATOM     19  H   UNL     1       1.752   1.119  18.749  0.00  0.00    +0.000 HD
ENDBRANCH   4  18
BRANCH   5  20
ATOM     20  O   UNL     1       0.295   2.875  20.235  0.00  0.00    +0.000 OA
ATOM     21  H   UNL     1       0.540   1.987  20.548  0.00  0.00    +0.000 HD
ENDBRANCH   5  20
BRANCH   1  22
ATOM     22  C   UNL     1       1.572   5.865  20.674  0.00  0.00    +0.000 C 
BRANCH  22  23
ATOM     23  O   UNL     1       2.306   7.042  20.314  0.00  0.00    +0.000 OA
BRANCH  23  24
ATOM     24  C   UNL     1       1.613   8.207  20.447  0.00  0.00    +0.000 C 
ATOM     25  O   UNL     1       1.362   8.746  21.522  0.00  0.00    +0.000 OA
BRANCH  24  26
ATOM     26  C   UNL     1       1.162   8.744  19.073  0.00  0.00    +0.000 C 
BRANCH  26  28
ATOM     27  C   UNL     1       1.703  11.189  18.527  0.00  0.00    +0.000 C 
ATOM     28  C   UNL     1       0.706  10.221  19.180  0.00  0.00    +0.000 C 
ATOM     29  C   UNL     1      -0.667  10.449  18.533  0.00  0.00    +0.000 C 
ENDBRANCH  26  28
BRANCH  26  30
ATOM     30  N   UNL     1       2.301   8.580  18.139  0.00  0.00    +0.000 NA
ATOM     31  H   UNL     1       2.202   9.264  17.385  0.00  0.00    +0.000 HD
ATOM     32  H   UNL     1       2.284   7.658  17.709  0.00  0.00    +0.000 HD
ENDBRANCH  26  30
ENDBRANCH  24  26
ENDBRANCH  23  24
ENDBRANCH  22  23
ENDBRANCH   1  22
TORSDOF 9
ENDMDL
