MODEL 1
REMARK VINA RESULT:      -7.9      0.000      0.000
REMARK  Name = 
REMARK  4 active torsions:
REMARK  status: ('A' for Active; 'I' for Inactive)
REMARK    1  A    between atoms: C_1  and  C_2
REMARK    2  A    between atoms: C_7  and  C_9
REMARK    3  A    between atoms: C_11  and  S_12
REMARK    4  A    between atoms: S_12  and  N_15
REMARK                            x       y       z     vdW  Elec       q    Type
REMARK                         _______ _______ _______ _____ _____    ______ ____
ROOT
ATOM      1  C   UNL     1       2.319   6.533  19.951  0.00  0.00    +0.000 A 
ATOM      2  C   UNL     1       3.200   5.918  19.077  0.00  0.00    +0.000 A 
ATOM      3  C   UNL     1       3.478   4.621  19.594  0.00  0.00    +0.000 A 
ATOM      4  C   UNL     1       2.746   4.465  20.749  0.00  0.00    +0.000 A 
ATOM      5  N   UNL     1       2.042   5.613  20.949  0.00  0.00    +0.000 N 
ATOM      6  H   UNL     1       1.411   5.807  21.716  0.00  0.00    +0.000 HD
ENDROOT
BRANCH   1  13
ATOM      7  C   UNL     1      -1.393  12.198  23.120  0.00  0.00    +0.000 C 
ATOM      8  C   UNL     1      -0.763  11.176  22.250  0.00  0.00    +0.000 A 
ATOM      9  N   UNL     1      -0.553  11.327  20.960  0.00  0.00    +0.000 NA
ATOM     10  N   UNL     1       0.114  10.252  20.415  0.00  0.00    +0.000 NA
ATOM     11  C   UNL     1       0.366   9.323  21.308  0.00  0.00    +0.000 A 
ATOM     12  N   UNL     1       1.027   8.134  21.165  0.00  0.00    +0.000 N 
ATOM     13  C   UNL     1       1.698   7.847  20.000  0.00  0.00    +0.000 C 
ATOM     14  O   UNL     1       1.818   8.604  19.045  0.00  0.00    +0.000 OA
ATOM     15  S   UNL     1      -0.218   9.666  22.876  0.00  0.00    +0.000 S 
ATOM     16  H   UNL     1       1.057   7.513  21.955  0.00  0.00    +0.000 HD
ENDBRANCH   1  13
BRANCH   3  17
ATOM     17  S   UNL     1       4.554   3.445  18.920  0.00  0.00    +0.000 S 
ATOM     18  O   UNL     1       4.911   2.618  20.049  0.00  0.00    +0.000 OA
ATOM     19  O   UNL     1       3.852   2.916  17.770  0.00  0.00    +0.000 OA
BRANCH  17  20
ATOM     20  N   UNL     1       5.960   4.287  18.375  0.00  0.00    +0.000 NA
ATOM     21  C   UNL     1       6.433   5.297  19.383  0.00  0.00    +0.000 C 
ATOM     22  C   UNL     1       7.702   6.039  18.970  0.00  0.00    +0.000 C 
ATOM     23  S   UNL     1       7.470   6.962  17.426  0.00  0.00    +0.000 S 
ATOM     24  C   UNL     1       6.982   5.535  16.419  0.00  0.00    +0.000 C 
ATOM     25  C   UNL     1       5.756   4.828  16.992  0.00  0.00    +0.000 C 
ENDBRANCH  17  20
ENDBRANCH   3  17
TORSDOF 3
ENDMDL
MODEL 2
REMARK VINA RESULT:      -7.7      5.489      7.377
REMARK  Name = 
REMARK  4 active torsions:
REMARK  status: ('A' for Active; 'I' for Inactive)
REMARK    1  A    between atoms: C_1  and  C_2
REMARK    2  A    between atoms: C_7  and  C_9
REMARK    3  A    between atoms: C_11  and  S_12
REMARK    4  A    between atoms: S_12  and  N_15
REMARK                            x       y       z     vdW  Elec       q    Type
REMARK                         _______ _______ _______ _____ _____    ______ ____
ROOT
ATOM      1  C   UNL     1       8.290   8.629  18.302  0.00  0.00    +0.000 A 
ATOM      2  C   UNL     1       7.485   8.167  17.275  0.00  0.00    +0.000 A 
ATOM      3  C   UNL     1       7.301   6.769  17.471  0.00  0.00    +0.000 A 
ATOM      4  C   UNL     1       7.971   6.416  18.621  0.00  0.00    +0.000 A 
ATOM      5  N   UNL     1       8.552   7.542  19.121  0.00  0.00    +0.000 N 
ATOM      6  H   UNL     1       9.115   7.608  19.960  0.00  0.00    +0.000 HD
ENDROOT
BRANCH   1  13
ATOM      7  C   UNL     1       8.922  16.072  17.978  0.00  0.00    +0.000 C 
ATOM      8  C   UNL     1       9.070  14.603  18.112  0.00  0.00    +0.000 A 
ATOM      9  N   UNL     1      10.023  14.014  18.802  0.00  0.00    +0.000 NA
ATOM     10  N   UNL     1       9.879  12.643  18.817  0.00  0.00    +0.000 NA
ATOM     11  C   UNL     1       8.836  12.250  18.124  0.00  0.00    +0.000 A 
ATOM     12  N   UNL     1       8.347  10.987  17.926  0.00  0.00    +0.000 N 
ATOM     13  C   UNL     1       8.856   9.926  18.637  0.00  0.00    +0.000 C 
ATOM     14  O   UNL     1       9.708  10.001  19.513  0.00  0.00    +0.000 OA
ATOM     15  S   UNL     1       7.964  13.510  17.370  0.00  0.00    +0.000 S 
ATOM     16  H   UNL     1       7.571  10.875  17.297  0.00  0.00    +0.000 HD
ENDBRANCH   1  13
BRANCH   3  17
ATOM     17  S   UNL     1       6.416   5.686  16.452  0.00  0.00    +0.000 S 
ATOM     18  O   UNL     1       5.821   6.555  15.463  0.00  0.00    +0.000 OA
ATOM     19  O   UNL     1       7.365   4.652  16.097  0.00  0.00    +0.000 OA
BRANCH  17  20
ATOM     20  N   UNL     1       5.163   4.986  17.412  0.00  0.00    +0.000 NA
ATOM     21  C   UNL     1       4.458   3.874  16.688  0.00  0.00    +0.000 C 
ATOM     22  C   UNL     1       3.369   3.189  17.510  0.00  0.00    +0.000 C 
ATOM     23  S   UNL     1       2.067   4.351  18.004  0.00  0.00    +0.000 S 
ATOM     24  C   UNL     1       3.160   5.506  18.877  0.00  0.00    +0.000 C 
ATOM     25  C   UNL     1       4.259   6.047  17.966  0.00  0.00    +0.000 C 
ENDBRANCH  17  20
ENDBRANCH   3  17
TORSDOF 3
ENDMDL
MODEL 3
REMARK VINA RESULT:      -7.5      5.566      8.106
REMARK  Name = 
REMARK  4 active torsions:
REMARK  status: ('A' for Active; 'I' for Inactive)
REMARK    1  A    between atoms: C_1  and  C_2
REMARK    2  A    between atoms: C_7  and  C_9
REMARK    3  A    between atoms: C_11  and  S_12
REMARK    4  A    between atoms: S_12  and  N_15
REMARK                            x       y       z     vdW  Elec       q    Type
REMARK                         _______ _______ _______ _____ _____    ______ ____
ROOT
ATOM      1  C   UNL     1       8.453   8.755  18.514  0.00  0.00    +0.000 A 
ATOM      2  C   UNL     1       7.608   8.423  17.468  0.00  0.00    +0.000 A 
ATOM      3  C   UNL     1       7.352   7.025  17.552  0.00  0.00    +0.000 A 
ATOM      4  C   UNL     1       8.021   6.543  18.655  0.00  0.00    +0.000 A 
ATOM      5  N   UNL     1       8.669   7.591  19.235  0.00  0.00    +0.000 N 
ATOM      6  H   UNL     1       9.248   7.557  20.064  0.00  0.00    +0.000 HD
ENDROOT
BRANCH   1  13
ATOM      7  C   UNL     1      11.955  15.294  17.576  0.00  0.00    +0.000 C 
ATOM      8  C   UNL     1      11.392  13.994  18.013  0.00  0.00    +0.000 A 
ATOM      9  N   UNL     1      11.311  13.604  19.267  0.00  0.00    +0.000 NA
ATOM     10  N   UNL     1      10.678  12.386  19.390  0.00  0.00    +0.000 NA
ATOM     11  C   UNL     1      10.322  11.896  18.225  0.00  0.00    +0.000 A 
ATOM     12  N   UNL     1       9.654  10.737  17.935  0.00  0.00    +0.000 N 
ATOM     13  C   UNL     1       9.093   9.988  18.943  0.00  0.00    +0.000 C 
ATOM     14  O   UNL     1       9.082  10.289  20.130  0.00  0.00    +0.000 OA
ATOM     15  S   UNL     1      10.757  12.858  16.883  0.00  0.00    +0.000 S 
ATOM     16  H   UNL     1       9.535  10.491  16.969  0.00  0.00    +0.000 HD
ENDBRANCH   1  13
BRANCH   3  17
ATOM     17  S   UNL     1       6.394   6.079  16.465  0.00  0.00    +0.000 S 
ATOM     18  O   UNL     1       5.647   7.065  15.719  0.00  0.00    +0.000 OA
ATOM     19  O   UNL     1       7.334   5.181  15.829  0.00  0.00    +0.000 OA
BRANCH  17  20
ATOM     20  N   UNL     1       5.297   5.150  17.423  0.00  0.00    +0.000 NA
ATOM     21  C   UNL     1       4.643   4.058  16.624  0.00  0.00    +0.000 C 
ATOM     22  C   UNL     1       3.697   3.176  17.436  0.00  0.00    +0.000 C 
ATOM     23  S   UNL     1       2.336   4.135  18.157  0.00  0.00    +0.000 S 
ATOM     24  C   UNL     1       3.384   5.292  19.080  0.00  0.00    +0.000 C 
ATOM     25  C   UNL     1       4.347   6.042  18.163  0.00  0.00    +0.000 C 
ENDBRANCH  17  20
ENDBRANCH   3  17
TORSDOF 3
ENDMDL
MODEL 4
REMARK VINA RESULT:      -7.4      1.071      1.609
REMARK  Name = 
REMARK  4 active torsions:
REMARK  status: ('A' for Active; 'I' for Inactive)
REMARK    1  A    between atoms: C_1  and  C_2
REMARK    2  A    between atoms: C_7  and  C_9
REMARK    3  A    between atoms: C_11  and  S_12
REMARK    4  A    between atoms: S_12  and  N_15
REMARK                            x       y       z     vdW  Elec       q    Type
REMARK                         _______ _______ _______ _____ _____    ______ ____
ROOT
ATOM      1  C   UNL     1       2.126   6.920  19.907  0.00  0.00    +0.000 A 
ATOM      2  C   UNL     1       2.947   6.323  18.964  0.00  0.00    +0.000 A 
ATOM      3  C   UNL     1       3.262   5.018  19.437  0.00  0.00    +0.000 A 
ATOM      4  C   UNL     1       2.611   4.839  20.637  0.00  0.00    +0.000 A 
ATOM      5  N   UNL     1       1.920   5.982  20.905  0.00  0.00    +0.000 N 
ATOM      6  H   UNL     1       1.342   6.159  21.717  0.00  0.00    +0.000 HD
ENDROOT
BRANCH   1  13
ATOM      7  C   UNL     1      -1.645  12.394  23.330  0.00  0.00    +0.000 C 
ATOM      8  C   UNL     1      -0.997  11.425  22.413  0.00  0.00    +0.000 A 
ATOM      9  N   UNL     1      -0.757  11.655  21.141  0.00  0.00    +0.000 NA
ATOM     10  N   UNL     1      -0.079  10.612  20.546  0.00  0.00    +0.000 NA
ATOM     11  C   UNL     1       0.149   9.629  21.386  0.00  0.00    +0.000 A 
ATOM     12  N   UNL     1       0.810   8.448  21.187  0.00  0.00    +0.000 N 
ATOM     13  C   UNL     1       1.508   8.231  20.022  0.00  0.00    +0.000 C 
ATOM     14  O   UNL     1       1.652   9.044  19.118  0.00  0.00    +0.000 OA
ATOM     15  S   UNL     1      -0.470   9.878  22.959  0.00  0.00    +0.000 S 
ATOM     16  H   UNL     1       0.820   7.781  21.938  0.00  0.00    +0.000 HD
ENDBRANCH   1  13
BRANCH   3  17
ATOM     17  S   UNL     1       4.292   3.857  18.670  0.00  0.00    +0.000 S 
ATOM     18  O   UNL     1       5.318   3.604  19.656  0.00  0.00    +0.000 OA
ATOM     19  O   UNL     1       3.398   2.819  18.205  0.00  0.00    +0.000 OA
BRANCH  17  20
ATOM     20  N   UNL     1       5.007   4.631  17.302  0.00  0.00    +0.000 NA
ATOM     21  C   UNL     1       4.834   3.822  16.047  0.00  0.00    +0.000 C 
ATOM     22  C   UNL     1       5.409   4.483  14.797  0.00  0.00    +0.000 C 
ATOM     23  S   UNL     1       7.194   4.772  14.948  0.00  0.00    +0.000 S 
ATOM     24  C   UNL     1       7.098   5.785  16.450  0.00  0.00    +0.000 C 
ATOM     25  C   UNL     1       6.420   5.039  17.596  0.00  0.00    +0.000 C 
ENDBRANCH  17  20
ENDBRANCH   3  17
TORSDOF 3
ENDMDL
MODEL 5
REMARK VINA RESULT:      -7.4      5.416      7.708
REMARK  Name = 
REMARK  4 active torsions:
REMARK  status: ('A' for Active; 'I' for Inactive)
REMARK    1  A    between atoms: C_1  and  C_2
REMARK    2  A    between atoms: C_7  and  C_9
REMARK    3  A    between atoms: C_11  and  S_12
REMARK    4  A    between atoms: S_12  and  N_15
REMARK                            x       y       z     vdW  Elec       q    Type
REMARK                         _______ _______ _______ _____ _____    ______ ____
ROOT
ATOM      1  C   UNL     1       8.227   8.801  18.044  0.00  0.00    +0.000 A 
ATOM      2  C   UNL     1       7.600   8.003  17.103  0.00  0.00    +0.000 A 
ATOM      3  C   UNL     1       7.618   6.667  17.595  0.00  0.00    +0.000 A 
ATOM      4  C   UNL     1       8.229   6.683  18.828  0.00  0.00    +0.000 A 
ATOM      5  N   UNL     1       8.580   7.972  19.097  0.00  0.00    +0.000 N 
ATOM      6  H   UNL     1       9.047   8.307  19.930  0.00  0.00    +0.000 HD
ENDROOT
BRANCH   1  13
ATOM      7  C   UNL     1      12.333  14.765  19.910  0.00  0.00    +0.000 C 
ATOM      8  C   UNL     1      11.302  13.763  19.544  0.00  0.00    +0.000 A 
ATOM      9  N   UNL     1      10.134  14.061  19.019  0.00  0.00    +0.000 NA
ATOM     10  N   UNL     1       9.403  12.933  18.711  0.00  0.00    +0.000 NA
ATOM     11  C   UNL     1      10.040  11.831  19.031  0.00  0.00    +0.000 A 
ATOM     12  N   UNL     1       9.664  10.527  18.859  0.00  0.00    +0.000 N 
ATOM     13  C   UNL     1       8.552  10.217  18.113  0.00  0.00    +0.000 C 
ATOM     14  O   UNL     1       7.854  11.022  17.510  0.00  0.00    +0.000 OA
ATOM     15  S   UNL     1      11.563  12.075  19.764  0.00  0.00    +0.000 S 
ATOM     16  H   UNL     1      10.258   9.811  19.239  0.00  0.00    +0.000 HD
ENDBRANCH   1  13
BRANCH   3  17
ATOM     17  S   UNL     1       7.008   5.258  16.795  0.00  0.00    +0.000 S 
ATOM     18  O   UNL     1       6.860   5.681  15.421  0.00  0.00    +0.000 OA
ATOM     19  O   UNL     1       7.910   4.194  17.180  0.00  0.00    +0.000 OA
BRANCH  17  20
ATOM     20  N   UNL     1       5.445   4.930  17.452  0.00  0.00    +0.000 NA
ATOM     21  C   UNL     1       4.583   6.160  17.487  0.00  0.00    +0.000 C 
ATOM     22  C   UNL     1       3.172   5.916  18.018  0.00  0.00    +0.000 C 
ATOM     23  S   UNL     1       3.193   5.287  19.719  0.00  0.00    +0.000 S 
ATOM     24  C   UNL     1       4.212   3.827  19.373  0.00  0.00    +0.000 C 
ATOM     25  C   UNL     1       5.558   4.205  18.760  0.00  0.00    +0.000 C 
ENDBRANCH  17  20
ENDBRANCH   3  17
TORSDOF 3
ENDMDL
MODEL 6
REMARK VINA RESULT:      -7.3      5.317      7.241
REMARK  Name = 
REMARK  4 active torsions:
REMARK  status: ('A' for Active; 'I' for Inactive)
REMARK    1  A    between atoms: C_1  and  C_2
REMARK    2  A    between atoms: C_7  and  C_9
REMARK    3  A    between atoms: C_11  and  S_12
REMARK    4  A    between atoms: S_12  and  N_15
REMARK                            x       y       z     vdW  Elec       q    Type
REMARK                         _______ _______ _______ _____ _____    ______ ____
ROOT
ATOM      1  C   UNL     1       8.180   8.412  18.255  0.00  0.00    +0.000 A 
ATOM      2  C   UNL     1       7.344   7.963  17.246  0.00  0.00    +0.000 A 
ATOM      3  C   UNL     1       7.154   6.565  17.439  0.00  0.00    +0.000 A 
ATOM      4  C   UNL     1       7.852   6.200  18.568  0.00  0.00    +0.000 A 
ATOM      5  N   UNL     1       8.455   7.318  19.059  0.00  0.00    +0.000 N 
ATOM      6  H   UNL     1       9.041   7.374  19.883  0.00  0.00    +0.000 HD
ENDROOT
BRANCH   1  13
ATOM      7  C   UNL     1       8.906  15.846  17.905  0.00  0.00    +0.000 C 
ATOM      8  C   UNL     1       9.037  14.375  18.042  0.00  0.00    +0.000 A 
ATOM      9  N   UNL     1       9.987  13.775  18.727  0.00  0.00    +0.000 NA
ATOM     10  N   UNL     1       9.824  12.407  18.747  0.00  0.00    +0.000 NA
ATOM     11  C   UNL     1       8.771  12.025  18.063  0.00  0.00    +0.000 A 
ATOM     12  N   UNL     1       8.265  10.769  17.871  0.00  0.00    +0.000 N 
ATOM     13  C   UNL     1       8.765   9.702  18.582  0.00  0.00    +0.000 C 
ATOM     14  O   UNL     1       9.624   9.769  19.452  0.00  0.00    +0.000 OA
ATOM     15  S   UNL     1       7.911  13.295  17.311  0.00  0.00    +0.000 S 
ATOM     16  H   UNL     1       7.484  10.665  17.248  0.00  0.00    +0.000 HD
ENDBRANCH   1  13
BRANCH   3  17
ATOM     17  S   UNL     1       6.233   5.496  16.437  0.00  0.00    +0.000 S 
ATOM     18  O   UNL     1       5.943   6.289  15.264  0.00  0.00    +0.000 OA
ATOM     19  O   UNL     1       7.019   4.282  16.371  0.00  0.00    +0.000 OA
BRANCH  17  20
ATOM     20  N   UNL     1       4.756   5.160  17.267  0.00  0.00    +0.000 NA
ATOM     21  C   UNL     1       4.100   6.413  17.773  0.00  0.00    +0.000 C 
ATOM     22  C   UNL     1       2.765   6.176  18.476  0.00  0.00    +0.000 C 
ATOM     23  S   UNL     1       2.949   5.101  19.926  0.00  0.00    +0.000 S 
ATOM     24  C   UNL     1       3.677   3.698  19.036  0.00  0.00    +0.000 C 
ATOM     25  C   UNL     1       4.956   4.093  18.302  0.00  0.00    +0.000 C 
ENDBRANCH  17  20
ENDBRANCH   3  17
TORSDOF 3
ENDMDL
MODEL 7
REMARK VINA RESULT:      -7.2      5.751      8.211
REMARK  Name = 
REMARK  4 active torsions:
REMARK  status: ('A' for Active; 'I' for Inactive)
REMARK    1  A    between atoms: C_1  and  C_2
REMARK    2  A    between atoms: C_7  and  C_9
REMARK    3  A    between atoms: C_11  and  S_12
REMARK    4  A    between atoms: S_12  and  N_15
REMARK                            x       y       z     vdW  Elec       q    Type
REMARK                         _______ _______ _______ _____ _____    ______ ____
ROOT
ATOM      1  C   UNL     1       8.645   9.103  18.596  0.00  0.00    +0.000 A 
ATOM      2  C   UNL     1       8.576   7.821  19.118  0.00  0.00    +0.000 A 
ATOM      3  C   UNL     1       7.723   7.060  18.270  0.00  0.00    +0.000 A 
ATOM      4  C   UNL     1       7.314   7.880  17.242  0.00  0.00    +0.000 A 
ATOM      5  N   UNL     1       7.883   9.102  17.439  0.00  0.00    +0.000 N 
ATOM      6  H   UNL     1       7.773   9.919  16.852  0.00  0.00    +0.000 HD
ENDROOT
BRANCH   1  13
ATOM      7  C   UNL     1      12.329  15.531  17.592  0.00  0.00    +0.000 C 
ATOM      8  C   UNL     1      11.724  14.255  18.044  0.00  0.00    +0.000 A 
ATOM      9  N   UNL     1      11.611  13.893  19.304  0.00  0.00    +0.000 NA
ATOM     10  N   UNL     1      10.945  12.694  19.440  0.00  0.00    +0.000 NA
ATOM     11  C   UNL     1      10.598  12.189  18.279  0.00  0.00    +0.000 A 
ATOM     12  N   UNL     1       9.906  11.042  18.000  0.00  0.00    +0.000 N 
ATOM     13  C   UNL     1       9.308  10.328  19.012  0.00  0.00    +0.000 C 
ATOM     14  O   UNL     1       9.283  10.653  20.192  0.00  0.00    +0.000 OA
ATOM     15  S   UNL     1      11.082  13.112  16.926  0.00  0.00    +0.000 S 
ATOM     16  H   UNL     1       9.798  10.779  17.037  0.00  0.00    +0.000 HD
ENDBRANCH   1  13
BRANCH   3  17
ATOM     17  S   UNL     1       7.255   5.407  18.483  0.00  0.00    +0.000 S 
ATOM     18  O   UNL     1       8.011   4.703  17.473  0.00  0.00    +0.000 OA
ATOM     19  O   UNL     1       7.434   5.152  19.897  0.00  0.00    +0.000 OA
BRANCH  17  20
ATOM     20  N   UNL     1       5.574   5.297  18.105  0.00  0.00    +0.000 NA
ATOM     21  C   UNL     1       4.718   5.357  19.339  0.00  0.00    +0.000 C 
ATOM     22  C   UNL     1       3.218   5.309  19.057  0.00  0.00    +0.000 C 
ATOM     23  S   UNL     1       2.741   3.779  18.206  0.00  0.00    +0.000 S 
ATOM     24  C   UNL     1       3.843   3.998  16.782  0.00  0.00    +0.000 C 
ATOM     25  C   UNL     1       5.304   4.125  17.209  0.00  0.00    +0.000 C 
ENDBRANCH  17  20
ENDBRANCH   3  17
TORSDOF 3
ENDMDL
MODEL 8
REMARK VINA RESULT:      -7.1      1.684      1.703
REMARK  Name = 
REMARK  4 active torsions:
REMARK  status: ('A' for Active; 'I' for Inactive)
REMARK    1  A    between atoms: C_1  and  C_2
REMARK    2  A    between atoms: C_7  and  C_9
REMARK    3  A    between atoms: C_11  and  S_12
REMARK    4  A    between atoms: S_12  and  N_15
REMARK                            x       y       z     vdW  Elec       q    Type
REMARK                         _______ _______ _______ _____ _____    ______ ____
ROOT
ATOM      1  C   UNL     1       2.185   7.173  19.050  0.00  0.00    +0.000 A 
ATOM      2  C   UNL     1       2.485   6.170  18.143  0.00  0.00    +0.000 A 
ATOM      3  C   UNL     1       2.738   4.983  18.886  0.00  0.00    +0.000 A 
ATOM      4  C   UNL     1       2.564   5.278  20.219  0.00  0.00    +0.000 A 
ATOM      5  N   UNL     1       2.218   6.593  20.308  0.00  0.00    +0.000 N 
ATOM      6  H   UNL     1       2.023   7.108  21.157  0.00  0.00    +0.000 HD
ENDROOT
BRANCH   1  13
ATOM      7  C   UNL     1      -0.513  13.777  21.288  0.00  0.00    +0.000 C 
ATOM      8  C   UNL     1      -0.027  12.566  20.583  0.00  0.00    +0.000 A 
ATOM      9  N   UNL     1       0.369  12.546  19.329  0.00  0.00    +0.000 NA
ATOM     10  N   UNL     1       0.838  11.305  18.955  0.00  0.00    +0.000 NA
ATOM     11  C   UNL     1       0.761  10.433  19.933  0.00  0.00    +0.000 A 
ATOM     12  N   UNL     1       1.148   9.122  19.963  0.00  0.00    +0.000 N 
ATOM     13  C   UNL     1       1.876   8.588  18.926  0.00  0.00    +0.000 C 
ATOM     14  O   UNL     1       2.281   9.207  17.950  0.00  0.00    +0.000 OA
ATOM     15  S   UNL     1       0.082  11.041  21.377  0.00  0.00    +0.000 S 
ATOM     16  H   UNL     1       0.940   8.587  20.788  0.00  0.00    +0.000 HD
ENDBRANCH   1  13
BRANCH   3  17
ATOM     17  S   UNL     1       3.203   3.441  18.252  0.00  0.00    +0.000 S 
ATOM     18  O   UNL     1       3.258   2.591  19.419  0.00  0.00    +0.000 OA
ATOM     19  O   UNL     1       2.282   3.196  17.163  0.00  0.00    +0.000 OA
BRANCH  17  20
ATOM     20  N   UNL     1       4.796   3.611  17.606  0.00  0.00    +0.000 NA
ATOM     21  C   UNL     1       5.647   4.520  18.447  0.00  0.00    +0.000 C 
ATOM     22  C   UNL     1       7.082   4.668  17.946  0.00  0.00    +0.000 C 
ATOM     23  S   UNL     1       7.140   5.358  16.269  0.00  0.00    +0.000 S 
ATOM     24  C   UNL     1       6.122   4.072  15.495  0.00  0.00    +0.000 C 
ATOM     25  C   UNL     1       4.747   3.965  16.150  0.00  0.00    +0.000 C 
ENDBRANCH  17  20
ENDBRANCH   3  17
TORSDOF 3
ENDMDL
MODEL 9
REMARK VINA RESULT:      -7.1      3.148      8.746
REMARK  Name = 
REMARK  4 active torsions:
REMARK  status: ('A' for Active; 'I' for Inactive)
REMARK    1  A    between atoms: C_1  and  C_2
REMARK    2  A    between atoms: C_7  and  C_9
REMARK    3  A    between atoms: C_11  and  S_12
REMARK    4  A    between atoms: S_12  and  N_15
REMARK                            x       y       z     vdW  Elec       q    Type
REMARK                         _______ _______ _______ _____ _____    ______ ____
ROOT
ATOM      1  C   UNL     1       1.976   7.827  19.551  0.00  0.00    +0.000 A 
ATOM      2  C   UNL     1       1.494   8.993  18.979  0.00  0.00    +0.000 A 
ATOM      3  C   UNL     1       0.829   9.728  20.002  0.00  0.00    +0.000 A 
ATOM      4  C   UNL     1       0.942   9.011  21.172  0.00  0.00    +0.000 A 
ATOM      5  N   UNL     1       1.644   7.877  20.896  0.00  0.00    +0.000 N 
ATOM      6  H   UNL     1       1.890   7.147  21.551  0.00  0.00    +0.000 HD
ENDROOT
BRANCH   1  13
ATOM      7  C   UNL     1       6.673   4.201  15.001  0.00  0.00    +0.000 C 
ATOM      8  C   UNL     1       5.617   4.668  15.932  0.00  0.00    +0.000 A 
ATOM      9  N   UNL     1       4.944   3.882  16.745  0.00  0.00    +0.000 NA
ATOM     10  N   UNL     1       4.077   4.590  17.549  0.00  0.00    +0.000 NA
ATOM     11  C   UNL     1       4.114   5.878  17.300  0.00  0.00    +0.000 A 
ATOM     12  N   UNL     1       3.432   6.902  17.899  0.00  0.00    +0.000 N 
ATOM     13  C   UNL     1       2.696   6.673  19.038  0.00  0.00    +0.000 C 
ATOM     14  O   UNL     1       2.624   5.606  19.634  0.00  0.00    +0.000 OA
ATOM     15  S   UNL     1       5.182   6.331  16.046  0.00  0.00    +0.000 S 
ATOM     16  H   UNL     1       3.538   7.826  17.518  0.00  0.00    +0.000 HD
ENDBRANCH   1  13
BRANCH   3  17
ATOM     17  S   UNL     1       0.004  11.238  19.824  0.00  0.00    +0.000 S 
ATOM     18  O   UNL     1      -0.103  11.733  21.177  0.00  0.00    +0.000 OA
ATOM     19  O   UNL     1       0.745  11.947  18.802  0.00  0.00    +0.000 OA
BRANCH  17  20
ATOM     20  N   UNL     1      -1.578  10.892  19.226  0.00  0.00    +0.000 NA
ATOM     21  C   UNL     1      -1.535  10.232  17.876  0.00  0.00    +0.000 C 
ATOM     22  C   UNL     1      -2.908   9.862  17.321  0.00  0.00    +0.000 C 
ATOM     23  S   UNL     1      -3.967  11.321  17.117  0.00  0.00    +0.000 S 
ATOM     24  C   UNL     1      -3.892  11.859  18.847  0.00  0.00    +0.000 C 
ATOM     25  C   UNL     1      -2.456  12.105  19.304  0.00  0.00    +0.000 C 
ENDBRANCH  17  20
ENDBRANCH   3  17
TORSDOF 3
ENDMDL
