MODEL 1
REMARK VINA RESULT:      -8.3      0.000      0.000
REMARK  Name = 
REMARK  8 active torsions:
REMARK  status: ('A' for Active; 'I' for Inactive)
REMARK    1  A    between atoms: C_2  and  O_3
REMARK    2  A    between atoms: C_2  and  C_4
REMARK    3  A    between atoms: C_4  and  O_5
REMARK    4  A    between atoms: C_7  and  C_8
REMARK    5  A    between atoms: N_10  and  C_11
REMARK    6  A    between atoms: C_15  and  N_16
REMARK    7  A    between atoms: C_22  and  O_23
REMARK    8  A    between atoms: C_24  and  O_25
REMARK                            x       y       z     vdW  Elec       q    Type
REMARK                         _______ _______ _______ _____ _____    ______ ____
ROOT
ATOM      1  C   UNL     1       5.684   5.449  16.223  0.00  0.00    +0.000 C 
ATOM      2  C   UNL     1       4.740   6.505  16.706  0.00  0.00    +0.000 C 
ATOM      3  C   UNL     1       3.728   6.281  17.566  0.00  0.00    +0.000 C 
ATOM      4  C   UNL     1       3.425   4.899  18.117  0.00  0.00    +0.000 C 
ATOM      5  C   UNL     1       4.551   3.856  17.885  0.00  0.00    +0.000 C 
ATOM      6  C   UNL     1       5.260   4.011  16.537  0.00  0.00    +0.000 C 
ENDROOT
BRANCH   3   7
ATOM      7  C   UNL     1       2.927   7.335  18.106  0.00  0.00    +0.000 A 
ATOM      8  C   UNL     1       2.384   7.411  19.366  0.00  0.00    +0.000 A 
ATOM      9  N   UNL     1       1.706   8.608  19.382  0.00  0.00    +0.000 N 
ATOM     10  N   UNL     1       1.835   9.211  18.177  0.00  0.00    +0.000 NA
ATOM     11  N   UNL     1       2.575   8.445  17.392  0.00  0.00    +0.000 NA
BRANCH   9  12
ATOM     12  C   UNL     1       0.971   9.194  20.444  0.00  0.00    +0.000 A 
ATOM     13  C   UNL     1       1.072   8.683  21.751  0.00  0.00    +0.000 A 
ATOM     14  C   UNL     1       0.350   9.263  22.795  0.00  0.00    +0.000 A 
ATOM     15  C   UNL     1      -0.489  10.352  22.552  0.00  0.00    +0.000 A 
ATOM     16  C   UNL     1      -0.599  10.860  21.249  0.00  0.00    +0.000 A 
ATOM     17  C   UNL     1       0.137  10.296  20.192  0.00  0.00    +0.000 A 
BRANCH  16  18
ATOM     18  N   UNL     1      -1.503  11.987  20.989  0.00  0.00    +0.000 N 
ATOM     19  O   UNL     1      -1.296  12.668  19.973  0.00  0.00    +0.000 OA
ATOM     20  O   UNL     1      -2.415  12.192  21.798  0.00  0.00    +0.000 OA
ENDBRANCH  16  18
ENDBRANCH   9  12
ENDBRANCH   3   7
BRANCH   1  22
ATOM     21  O   UNL     1       7.617   6.898  16.817  0.00  0.00    +0.000 OA
ATOM     22  C   UNL     1       7.104   5.791  16.766  0.00  0.00    +0.000 C 
BRANCH  22  23
ATOM     23  O   UNL     1       7.778   4.659  17.119  0.00  0.00    +0.000 OA
ATOM     24  H   UNL     1       7.642   4.528  18.088  0.00  0.00    +0.000 HD
ENDBRANCH  22  23
ENDBRANCH   1  22
BRANCH   1  25
ATOM     25  O   UNL     1       5.759   5.580  14.784  0.00  0.00    +0.000 OA
ATOM     26  H   UNL     1       5.626   6.526  14.580  0.00  0.00    +0.000 HD
ENDBRANCH   1  25
BRANCH   4  27
ATOM     27  O   UNL     1       2.239   4.363  17.520  0.00  0.00    +0.000 OA
ATOM     28  H   UNL     1       1.588   5.074  17.410  0.00  0.00    +0.000 HD
ENDBRANCH   4  27
BRANCH   5  29
ATOM     29  O   UNL     1       5.531   3.900  18.915  0.00  0.00    +0.000 OA
ATOM     30  H   UNL     1       5.285   4.607  19.538  0.00  0.00    +0.000 HD
ENDBRANCH   5  29
TORSDOF 8
ENDMDL
MODEL 2
REMARK VINA RESULT:      -8.1      0.735      1.016
REMARK  Name = 
REMARK  8 active torsions:
REMARK  status: ('A' for Active; 'I' for Inactive)
REMARK    1  A    between atoms: C_2  and  O_3
REMARK    2  A    between atoms: C_2  and  C_4
REMARK    3  A    between atoms: C_4  and  O_5
REMARK    4  A    between atoms: C_7  and  C_8
REMARK    5  A    between atoms: N_10  and  C_11
REMARK    6  A    between atoms: C_15  and  N_16
REMARK    7  A    between atoms: C_22  and  O_23
REMARK    8  A    between atoms: C_24  and  O_25
REMARK                            x       y       z     vdW  Elec       q    Type
REMARK                         _______ _______ _______ _____ _____    ______ ____
ROOT
ATOM      1  C   UNL     1       5.569   5.265  16.256  0.00  0.00    +0.000 C 
ATOM      2  C   UNL     1       4.666   6.360  16.730  0.00  0.00    +0.000 C 
ATOM      3  C   UNL     1       3.651   6.183  17.599  0.00  0.00    +0.000 C 
ATOM      4  C   UNL     1       3.303   4.820  18.170  0.00  0.00    +0.000 C 
ATOM      5  C   UNL     1       4.390   3.735  17.945  0.00  0.00    +0.000 C 
ATOM      6  C   UNL     1       5.097   3.847  16.592  0.00  0.00    +0.000 C 
ENDROOT
BRANCH   3   7
ATOM      7  C   UNL     1       2.891   7.271  18.128  0.00  0.00    +0.000 A 
ATOM      8  C   UNL     1       2.323   7.366  19.376  0.00  0.00    +0.000 A 
ATOM      9  N   UNL     1       1.704   8.594  19.386  0.00  0.00    +0.000 N 
ATOM     10  N   UNL     1       1.890   9.199  18.188  0.00  0.00    +0.000 NA
ATOM     11  N   UNL     1       2.610   8.402  17.415  0.00  0.00    +0.000 NA
BRANCH   9  12
ATOM     12  C   UNL     1       0.975   9.209  20.435  0.00  0.00    +0.000 A 
ATOM     13  C   UNL     1       0.456   8.439  21.493  0.00  0.00    +0.000 A 
ATOM     14  C   UNL     1      -0.258   9.046  22.526  0.00  0.00    +0.000 A 
ATOM     15  C   UNL     1      -0.476  10.425  22.516  0.00  0.00    +0.000 A 
ATOM     16  C   UNL     1       0.031  11.196  21.460  0.00  0.00    +0.000 A 
ATOM     17  C   UNL     1       0.769  10.599  20.423  0.00  0.00    +0.000 A 
BRANCH  16  18
ATOM     18  N   UNL     1      -0.222  12.642  21.437  0.00  0.00    +0.000 N 
ATOM     19  O   UNL     1      -1.286  13.032  20.931  0.00  0.00    +0.000 OA
ATOM     20  O   UNL     1       0.640  13.385  21.920  0.00  0.00    +0.000 OA
ENDBRANCH  16  18
ENDBRANCH   9  12
ENDBRANCH   3   7
BRANCH   1  22
ATOM     21  O   UNL     1       7.778   4.760  17.283  0.00  0.00    +0.000 OA
ATOM     22  C   UNL     1       7.003   5.564  16.788  0.00  0.00    +0.000 C 
BRANCH  22  23
ATOM     23  O   UNL     1       7.284   6.896  16.716  0.00  0.00    +0.000 OA
ATOM     24  H   UNL     1       7.139   7.175  15.780  0.00  0.00    +0.000 HD
ENDBRANCH  22  23
ENDBRANCH   1  22
BRANCH   1  25
ATOM     25  O   UNL     1       5.641   5.374  14.816  0.00  0.00    +0.000 OA
ATOM     26  H   UNL     1       6.411   5.939  14.614  0.00  0.00    +0.000 HD
ENDBRANCH   1  25
BRANCH   4  27
ATOM     27  O   UNL     1       2.096   4.318  17.585  0.00  0.00    +0.000 OA
ATOM     28  H   UNL     1       1.336   4.643  18.094  0.00  0.00    +0.000 HD
ENDBRANCH   4  27
BRANCH   5  29
ATOM     29  O   UNL     1       5.376   3.758  18.970  0.00  0.00    +0.000 OA
ATOM     30  H   UNL     1       5.827   4.620  18.938  0.00  0.00    +0.000 HD
ENDBRANCH   5  29
TORSDOF 8
ENDMDL
MODEL 3
REMARK VINA RESULT:      -8.1      1.190      1.974
REMARK  Name = 
REMARK  8 active torsions:
REMARK  status: ('A' for Active; 'I' for Inactive)
REMARK    1  A    between atoms: C_2  and  O_3
REMARK    2  A    between atoms: C_2  and  C_4
REMARK    3  A    between atoms: C_4  and  O_5
REMARK    4  A    between atoms: C_7  and  C_8
REMARK    5  A    between atoms: N_10  and  C_11
REMARK    6  A    between atoms: C_15  and  N_16
REMARK    7  A    between atoms: C_22  and  O_23
REMARK    8  A    between atoms: C_24  and  O_25
REMARK                            x       y       z     vdW  Elec       q    Type
REMARK                         _______ _______ _______ _____ _____    ______ ____
ROOT
ATOM      1  C   UNL     1       5.554   5.647  16.310  0.00  0.00    +0.000 C 
ATOM      2  C   UNL     1       4.594   6.503  17.075  0.00  0.00    +0.000 C 
ATOM      3  C   UNL     1       3.615   6.025  17.866  0.00  0.00    +0.000 C 
ATOM      4  C   UNL     1       3.370   4.536  18.039  0.00  0.00    +0.000 C 
ATOM      5  C   UNL     1       4.519   3.633  17.515  0.00  0.00    +0.000 C 
ATOM      6  C   UNL     1       5.182   4.163  16.242  0.00  0.00    +0.000 C 
ENDROOT
BRANCH   3   7
ATOM      7  C   UNL     1       2.800   6.868  18.682  0.00  0.00    +0.000 A 
ATOM      8  C   UNL     1       2.256   8.085  18.346  0.00  0.00    +0.000 A 
ATOM      9  N   UNL     1       1.570   8.483  19.470  0.00  0.00    +0.000 N 
ATOM     10  N   UNL     1       1.709   7.544  20.435  0.00  0.00    +0.000 NA
ATOM     11  N   UNL     1       2.457   6.557  19.967  0.00  0.00    +0.000 NA
BRANCH   9  12
ATOM     12  C   UNL     1       0.810   9.663  19.670  0.00  0.00    +0.000 A 
ATOM     13  C   UNL     1       0.411  10.452  18.575  0.00  0.00    +0.000 A 
ATOM     14  C   UNL     1      -0.340  11.611  18.774  0.00  0.00    +0.000 A 
ATOM     15  C   UNL     1      -0.695  12.007  20.065  0.00  0.00    +0.000 A 
ATOM     16  C   UNL     1      -0.292  11.230  21.160  0.00  0.00    +0.000 A 
ATOM     17  C   UNL     1       0.449  10.049  20.972  0.00  0.00    +0.000 A 
BRANCH  16  18
ATOM     18  N   UNL     1      -0.642  11.662  22.519  0.00  0.00    +0.000 N 
ATOM     19  O   UNL     1      -0.511  10.838  23.437  0.00  0.00    +0.000 OA
ATOM     20  O   UNL     1      -1.049  12.820  22.667  0.00  0.00    +0.000 OA
ENDBRANCH  16  18
ENDBRANCH   9  12
ENDBRANCH   3   7
BRANCH   1  22
ATOM     21  O   UNL     1       7.754   5.031  17.293  0.00  0.00    +0.000 OA
ATOM     22  C   UNL     1       6.978   5.885  16.894  0.00  0.00    +0.000 C 
BRANCH  22  23
ATOM     23  O   UNL     1       7.249   7.218  16.996  0.00  0.00    +0.000 OA
ATOM     24  H   UNL     1       7.344   7.424  17.958  0.00  0.00    +0.000 HD
ENDBRANCH  22  23
ENDBRANCH   1  22
BRANCH   1  25
ATOM     25  O   UNL     1       5.582   6.155  14.955  0.00  0.00    +0.000 OA
ATOM     26  H   UNL     1       4.760   5.853  14.523  0.00  0.00    +0.000 HD
ENDBRANCH   1  25
BRANCH   4  27
ATOM     27  O   UNL     1       2.184   4.133  17.346  0.00  0.00    +0.000 OA
ATOM     28  H   UNL     1       1.624   3.616  17.946  0.00  0.00    +0.000 HD
ENDBRANCH   4  27
BRANCH   5  29
ATOM     29  O   UNL     1       5.527   3.439  18.500  0.00  0.00    +0.000 OA
ATOM     30  H   UNL     1       5.908   4.308  18.719  0.00  0.00    +0.000 HD
ENDBRANCH   5  29
TORSDOF 8
ENDMDL
MODEL 4
REMARK VINA RESULT:      -8.0      1.966      2.275
REMARK  Name = 
REMARK  8 active torsions:
REMARK  status: ('A' for Active; 'I' for Inactive)
REMARK    1  A    between atoms: C_2  and  O_3
REMARK    2  A    between atoms: C_2  and  C_4
REMARK    3  A    between atoms: C_4  and  O_5
REMARK    4  A    between atoms: C_7  and  C_8
REMARK    5  A    between atoms: N_10  and  C_11
REMARK    6  A    between atoms: C_15  and  N_16
REMARK    7  A    between atoms: C_22  and  O_23
REMARK    8  A    between atoms: C_24  and  O_25
REMARK                            x       y       z     vdW  Elec       q    Type
REMARK                         _______ _______ _______ _____ _____    ______ ____
ROOT
ATOM      1  C   UNL     1       5.622   5.582  16.333  0.00  0.00    +0.000 C 
ATOM      2  C   UNL     1       4.640   6.560  16.898  0.00  0.00    +0.000 C 
ATOM      3  C   UNL     1       3.650   6.234  17.751  0.00  0.00    +0.000 C 
ATOM      4  C   UNL     1       3.416   4.805  18.210  0.00  0.00    +0.000 C 
ATOM      5  C   UNL     1       4.584   3.832  17.894  0.00  0.00    +0.000 C 
ATOM      6  C   UNL     1       5.266   4.109  16.552  0.00  0.00    +0.000 C 
ENDROOT
BRANCH   3   7
ATOM      7  C   UNL     1       2.812   7.211  18.371  0.00  0.00    +0.000 A 
ATOM      8  C   UNL     1       2.260   8.329  17.792  0.00  0.00    +0.000 A 
ATOM      9  N   UNL     1       1.551   8.932  18.804  0.00  0.00    +0.000 N 
ATOM     10  N   UNL     1       1.684   8.206  19.939  0.00  0.00    +0.000 NA
ATOM     11  N   UNL     1       2.451   7.157  19.687  0.00  0.00    +0.000 NA
BRANCH   9  12
ATOM     12  C   UNL     1       0.774  10.117  18.754  0.00  0.00    +0.000 A 
ATOM     13  C   UNL     1       1.277  11.325  19.273  0.00  0.00    +0.000 A 
ATOM     14  C   UNL     1       0.513  12.491  19.221  0.00  0.00    +0.000 A 
ATOM     15  C   UNL     1      -0.766  12.470  18.661  0.00  0.00    +0.000 A 
ATOM     16  C   UNL     1      -1.276  11.268  18.151  0.00  0.00    +0.000 A 
ATOM     17  C   UNL     1      -0.508  10.090  18.180  0.00  0.00    +0.000 A 
BRANCH  16  18
ATOM     18  N   UNL     1      -2.631  11.241  17.588  0.00  0.00    +0.000 N 
ATOM     19  O   UNL     1      -2.743  11.267  16.353  0.00  0.00    +0.000 OA
ATOM     20  O   UNL     1      -3.582  11.195  18.378  0.00  0.00    +0.000 OA
ENDBRANCH  16  18
ENDBRANCH   9  12
ENDBRANCH   3   7
BRANCH   1  22
ATOM     21  O   UNL     1       7.523   7.066  16.942  0.00  0.00    +0.000 OA
ATOM     22  C   UNL     1       7.033   5.949  16.882  0.00  0.00    +0.000 C 
BRANCH  22  23
ATOM     23  O   UNL     1       7.730   4.830  17.229  0.00  0.00    +0.000 OA
ATOM     24  H   UNL     1       8.663   4.965  16.936  0.00  0.00    +0.000 HD
ENDBRANCH  22  23
ENDBRANCH   1  22
BRANCH   1  25
ATOM     25  O   UNL     1       5.671   5.814  14.905  0.00  0.00    +0.000 OA
ATOM     26  H   UNL     1       4.764   5.684  14.567  0.00  0.00    +0.000 HD
ENDBRANCH   1  25
BRANCH   4  27
ATOM     27  O   UNL     1       2.247   4.259  17.590  0.00  0.00    +0.000 OA
ATOM     28  H   UNL     1       1.523   4.239  18.236  0.00  0.00    +0.000 HD
ENDBRANCH   4  27
BRANCH   5  29
ATOM     29  O   UNL     1       5.574   3.849  18.915  0.00  0.00    +0.000 OA
ATOM     30  H   UNL     1       5.466   3.047  19.456  0.00  0.00    +0.000 HD
ENDBRANCH   5  29
TORSDOF 8
ENDMDL
MODEL 5
REMARK VINA RESULT:      -8.0      1.502      1.955
REMARK  Name = 
REMARK  8 active torsions:
REMARK  status: ('A' for Active; 'I' for Inactive)
REMARK    1  A    between atoms: C_2  and  O_3
REMARK    2  A    between atoms: C_2  and  C_4
REMARK    3  A    between atoms: C_4  and  O_5
REMARK    4  A    between atoms: C_7  and  C_8
REMARK    5  A    between atoms: N_10  and  C_11
REMARK    6  A    between atoms: C_15  and  N_16
REMARK    7  A    between atoms: C_22  and  O_23
REMARK    8  A    between atoms: C_24  and  O_25
REMARK                            x       y       z     vdW  Elec       q    Type
REMARK                         _______ _______ _______ _____ _____    ______ ____
ROOT
ATOM      1  C   UNL     1       5.548   4.712  16.810  0.00  0.00    +0.000 C 
ATOM      2  C   UNL     1       4.589   5.858  16.894  0.00  0.00    +0.000 C 
ATOM      3  C   UNL     1       3.883   6.176  17.996  0.00  0.00    +0.000 C 
ATOM      4  C   UNL     1       3.975   5.367  19.278  0.00  0.00    +0.000 C 
ATOM      5  C   UNL     1       5.169   4.376  19.325  0.00  0.00    +0.000 C 
ATOM      6  C   UNL     1       5.475   3.721  17.975  0.00  0.00    +0.000 C 
ENDROOT
BRANCH   3   7
ATOM      7  C   UNL     1       3.075   7.352  18.082  0.00  0.00    +0.000 A 
ATOM      8  C   UNL     1       2.226   7.711  19.100  0.00  0.00    +0.000 A 
ATOM      9  N   UNL     1       1.688   8.912  18.700  0.00  0.00    +0.000 N 
ATOM     10  N   UNL     1       2.193   9.247  17.489  0.00  0.00    +0.000 NA
ATOM     11  N   UNL     1       3.037   8.304  17.102  0.00  0.00    +0.000 NA
BRANCH   9  12
ATOM     12  C   UNL     1       0.759   9.737  19.383  0.00  0.00    +0.000 A 
ATOM     13  C   UNL     1      -0.081  10.612  18.668  0.00  0.00    +0.000 A 
ATOM     14  C   UNL     1      -0.998  11.420  19.341  0.00  0.00    +0.000 A 
ATOM     15  C   UNL     1      -1.086  11.377  20.734  0.00  0.00    +0.000 A 
ATOM     16  C   UNL     1      -0.246  10.513  21.451  0.00  0.00    +0.000 A 
ATOM     17  C   UNL     1       0.669   9.679  20.783  0.00  0.00    +0.000 A 
BRANCH  16  18
ATOM     18  N   UNL     1      -0.319  10.488  22.917  0.00  0.00    +0.000 N 
ATOM     19  O   UNL     1       0.421   9.695  23.518  0.00  0.00    +0.000 OA
ATOM     20  O   UNL     1      -1.116  11.258  23.466  0.00  0.00    +0.000 OA
ENDBRANCH  16  18
ENDBRANCH   9  12
ENDBRANCH   3   7
BRANCH   1  22
ATOM     21  O   UNL     1       7.269   6.310  15.987  0.00  0.00    +0.000 OA
ATOM     22  C   UNL     1       6.977   5.298  16.607  0.00  0.00    +0.000 C 
BRANCH  22  23
ATOM     23  O   UNL     1       7.924   4.480  17.149  0.00  0.00    +0.000 OA
ATOM     24  H   UNL     1       8.749   5.013  17.249  0.00  0.00    +0.000 HD
ENDBRANCH  22  23
ENDBRANCH   1  22
BRANCH   1  25
ATOM     25  O   UNL     1       5.233   3.989  15.598  0.00  0.00    +0.000 OA
ATOM     26  H   UNL     1       4.478   3.404  15.806  0.00  0.00    +0.000 HD
ENDBRANCH   1  25
BRANCH   4  27
ATOM     27  O   UNL     1       2.788   4.589  19.473  0.00  0.00    +0.000 OA
ATOM     28  H   UNL     1       2.012   5.162  19.370  0.00  0.00    +0.000 HD
ENDBRANCH   4  27
BRANCH   5  29
ATOM     29  O   UNL     1       6.355   5.002  19.800  0.00  0.00    +0.000 OA
ATOM     30  H   UNL     1       6.745   5.509  19.066  0.00  0.00    +0.000 HD
ENDBRANCH   5  29
TORSDOF 8
ENDMDL
MODEL 6
REMARK VINA RESULT:      -8.0      1.583      2.137
REMARK  Name = 
REMARK  8 active torsions:
REMARK  status: ('A' for Active; 'I' for Inactive)
REMARK    1  A    between atoms: C_2  and  O_3
REMARK    2  A    between atoms: C_2  and  C_4
REMARK    3  A    between atoms: C_4  and  O_5
REMARK    4  A    between atoms: C_7  and  C_8
REMARK    5  A    between atoms: N_10  and  C_11
REMARK    6  A    between atoms: C_15  and  N_16
REMARK    7  A    between atoms: C_22  and  O_23
REMARK    8  A    between atoms: C_24  and  O_25
REMARK                            x       y       z     vdW  Elec       q    Type
REMARK                         _______ _______ _______ _____ _____    ______ ____
ROOT
ATOM      1  C   UNL     1       5.285   4.611  17.525  0.00  0.00    +0.000 C 
ATOM      2  C   UNL     1       4.566   5.923  17.553  0.00  0.00    +0.000 C 
ATOM      3  C   UNL     1       3.292   6.081  17.962  0.00  0.00    +0.000 C 
ATOM      4  C   UNL     1       2.438   4.911  18.417  0.00  0.00    +0.000 C 
ATOM      5  C   UNL     1       3.233   3.606  18.690  0.00  0.00    +0.000 C 
ATOM      6  C   UNL     1       4.393   3.381  17.718  0.00  0.00    +0.000 C 
ENDROOT
BRANCH   3   7
ATOM      7  C   UNL     1       2.679   7.364  18.097  0.00  0.00    +0.000 A 
ATOM      8  C   UNL     1       1.941   7.831  19.158  0.00  0.00    +0.000 A 
ATOM      9  N   UNL     1       1.577   9.108  18.797  0.00  0.00    +0.000 N 
ATOM     10  N   UNL     1       2.074   9.382  17.566  0.00  0.00    +0.000 NA
ATOM     11  N   UNL     1       2.745   8.328  17.131  0.00  0.00    +0.000 NA
BRANCH   9  12
ATOM     12  C   UNL     1       0.816  10.052  19.530  0.00  0.00    +0.000 A 
ATOM     13  C   UNL     1       0.398  11.255  18.930  0.00  0.00    +0.000 A 
ATOM     14  C   UNL     1      -0.354  12.182  19.653  0.00  0.00    +0.000 A 
ATOM     15  C   UNL     1      -0.692  11.931  20.984  0.00  0.00    +0.000 A 
ATOM     16  C   UNL     1      -0.271  10.738  21.589  0.00  0.00    +0.000 A 
ATOM     17  C   UNL     1       0.472   9.787  20.866  0.00  0.00    +0.000 A 
BRANCH  16  18
ATOM     18  N   UNL     1      -0.602  10.487  22.997  0.00  0.00    +0.000 N 
ATOM     19  O   UNL     1      -1.650  10.982  23.438  0.00  0.00    +0.000 OA
ATOM     20  O   UNL     1       0.183   9.799  23.660  0.00  0.00    +0.000 OA
ENDBRANCH  16  18
ENDBRANCH   9  12
ENDBRANCH   3   7
BRANCH   1  22
ATOM     21  O   UNL     1       6.375   5.084  19.711  0.00  0.00    +0.000 OA
ATOM     22  C   UNL     1       6.448   4.680  18.560  0.00  0.00    +0.000 C 
BRANCH  22  23
ATOM     23  O   UNL     1       7.630   4.304  17.995  0.00  0.00    +0.000 OA
ATOM     24  H   UNL     1       8.232   4.033  18.730  0.00  0.00    +0.000 HD
ENDBRANCH  22  23
ENDBRANCH   1  22
BRANCH   1  25
ATOM     25  O   UNL     1       5.909   4.502  16.224  0.00  0.00    +0.000 OA
ATOM     26  H   UNL     1       5.195   4.579  15.562  0.00  0.00    +0.000 HD
ENDBRANCH   1  25
BRANCH   4  27
ATOM     27  O   UNL     1       1.449   4.591  17.432  0.00  0.00    +0.000 OA
ATOM     28  H   UNL     1       0.583   4.904  17.736  0.00  0.00    +0.000 HD
ENDBRANCH   4  27
BRANCH   5  29
ATOM     29  O   UNL     1       3.744   3.568  20.017  0.00  0.00    +0.000 OA
ATOM     30  H   UNL     1       4.467   4.216  20.082  0.00  0.00    +0.000 HD
ENDBRANCH   5  29
TORSDOF 8
ENDMDL
MODEL 7
REMARK VINA RESULT:      -8.0      1.907      3.015
REMARK  Name = 
REMARK  8 active torsions:
REMARK  status: ('A' for Active; 'I' for Inactive)
REMARK    1  A    between atoms: C_2  and  O_3
REMARK    2  A    between atoms: C_2  and  C_4
REMARK    3  A    between atoms: C_4  and  O_5
REMARK    4  A    between atoms: C_7  and  C_8
REMARK    5  A    between atoms: N_10  and  C_11
REMARK    6  A    between atoms: C_15  and  N_16
REMARK    7  A    between atoms: C_22  and  O_23
REMARK    8  A    between atoms: C_24  and  O_25
REMARK                            x       y       z     vdW  Elec       q    Type
REMARK                         _______ _______ _______ _____ _____    ______ ____
ROOT
ATOM      1  C   UNL     1       5.890   4.181  16.181  0.00  0.00    +0.000 C 
ATOM      2  C   UNL     1       4.763   4.681  17.029  0.00  0.00    +0.000 C 
ATOM      3  C   UNL     1       4.920   5.463  18.115  0.00  0.00    +0.000 C 
ATOM      4  C   UNL     1       6.290   5.899  18.606  0.00  0.00    +0.000 C 
ATOM      5  C   UNL     1       7.440   5.660  17.591  0.00  0.00    +0.000 C 
ATOM      6  C   UNL     1       7.285   4.370  16.783  0.00  0.00    +0.000 C 
ENDROOT
BRANCH   3   7
ATOM      7  C   UNL     1       3.817   6.027  18.826  0.00  0.00    +0.000 A 
ATOM      8  C   UNL     1       3.336   7.312  18.742  0.00  0.00    +0.000 A 
ATOM      9  N   UNL     1       2.279   7.347  19.621  0.00  0.00    +0.000 N 
ATOM     10  N   UNL     1       2.145   6.134  20.209  0.00  0.00    +0.000 NA
ATOM     11  N   UNL     1       3.076   5.324  19.733  0.00  0.00    +0.000 NA
BRANCH   9  12
ATOM     12  C   UNL     1       1.414   8.430  19.921  0.00  0.00    +0.000 A 
ATOM     13  C   UNL     1       0.957   9.285  18.901  0.00  0.00    +0.000 A 
ATOM     14  C   UNL     1       0.103  10.347  19.197  0.00  0.00    +0.000 A 
ATOM     15  C   UNL     1      -0.301  10.581  20.513  0.00  0.00    +0.000 A 
ATOM     16  C   UNL     1       0.158   9.736  21.535  0.00  0.00    +0.000 A 
ATOM     17  C   UNL     1       1.004   8.651  21.247  0.00  0.00    +0.000 A 
BRANCH  16  18
ATOM     18  N   UNL     1      -0.245   9.999  22.922  0.00  0.00    +0.000 N 
ATOM     19  O   UNL     1      -1.305  10.617  23.107  0.00  0.00    +0.000 OA
ATOM     20  O   UNL     1       0.496   9.591  23.824  0.00  0.00    +0.000 OA
ENDBRANCH  16  18
ENDBRANCH   9  12
ENDBRANCH   3   7
BRANCH   1  22
ATOM     21  O   UNL     1       5.975   4.291  13.697  0.00  0.00    +0.000 OA
ATOM     22  C   UNL     1       5.750   4.828  14.770  0.00  0.00    +0.000 C 
BRANCH  22  23
ATOM     23  O   UNL     1       5.415   6.147  14.867  0.00  0.00    +0.000 OA
ATOM     24  H   UNL     1       4.767   6.230  15.608  0.00  0.00    +0.000 HD
ENDBRANCH  22  23
ENDBRANCH   1  22
BRANCH   1  25
ATOM     25  O   UNL     1       5.679   2.762  15.997  0.00  0.00    +0.000 OA
ATOM     26  H   UNL     1       5.430   2.398  16.868  0.00  0.00    +0.000 HD
ENDBRANCH   1  25
BRANCH   4  27
ATOM     27  O   UNL     1       6.646   5.198  19.803  0.00  0.00    +0.000 OA
ATOM     28  H   UNL     1       6.857   4.277  19.581  0.00  0.00    +0.000 HD
ENDBRANCH   4  27
BRANCH   5  29
ATOM     29  O   UNL     1       7.575   6.747  16.683  0.00  0.00    +0.000 OA
ATOM     30  H   UNL     1       6.702   7.167  16.581  0.00  0.00    +0.000 HD
ENDBRANCH   5  29
TORSDOF 8
ENDMDL
MODEL 8
REMARK VINA RESULT:      -7.9      2.015      2.424
REMARK  Name = 
REMARK  8 active torsions:
REMARK  status: ('A' for Active; 'I' for Inactive)
REMARK    1  A    between atoms: C_2  and  O_3
REMARK    2  A    between atoms: C_2  and  C_4
REMARK    3  A    between atoms: C_4  and  O_5
REMARK    4  A    between atoms: C_7  and  C_8
REMARK    5  A    between atoms: N_10  and  C_11
REMARK    6  A    between atoms: C_15  and  N_16
REMARK    7  A    between atoms: C_22  and  O_23
REMARK    8  A    between atoms: C_24  and  O_25
REMARK                            x       y       z     vdW  Elec       q    Type
REMARK                         _______ _______ _______ _____ _____    ______ ____
ROOT
ATOM      1  C   UNL     1       5.580   5.628  16.235  0.00  0.00    +0.000 C 
ATOM      2  C   UNL     1       4.621   6.584  16.872  0.00  0.00    +0.000 C 
ATOM      3  C   UNL     1       3.644   6.222  17.726  0.00  0.00    +0.000 C 
ATOM      4  C   UNL     1       3.403   4.773  18.112  0.00  0.00    +0.000 C 
ATOM      5  C   UNL     1       4.553   3.806  17.720  0.00  0.00    +0.000 C 
ATOM      6  C   UNL     1       5.212   4.149  16.381  0.00  0.00    +0.000 C 
ENDROOT
BRANCH   3   7
ATOM      7  C   UNL     1       2.830   7.173  18.415  0.00  0.00    +0.000 A 
ATOM      8  C   UNL     1       2.352   8.368  17.935  0.00  0.00    +0.000 A 
ATOM      9  N   UNL     1       1.634   8.902  18.979  0.00  0.00    +0.000 N 
ATOM     10  N   UNL     1       1.692   8.060  20.039  0.00  0.00    +0.000 NA
ATOM     11  N   UNL     1       2.417   7.005  19.706  0.00  0.00    +0.000 NA
BRANCH   9  12
ATOM     12  C   UNL     1       0.915  10.123  19.026  0.00  0.00    +0.000 A 
ATOM     13  C   UNL     1      -0.455  10.135  19.352  0.00  0.00    +0.000 A 
ATOM     14  C   UNL     1      -1.160  11.338  19.401  0.00  0.00    +0.000 A 
ATOM     15  C   UNL     1      -0.517  12.544  19.115  0.00  0.00    +0.000 A 
ATOM     16  C   UNL     1       0.845  12.536  18.782  0.00  0.00    +0.000 A 
ATOM     17  C   UNL     1       1.572  11.333  18.748  0.00  0.00    +0.000 A 
BRANCH  16  18
ATOM     18  N   UNL     1       1.514  13.802  18.455  0.00  0.00    +0.000 N 
ATOM     19  O   UNL     1       0.874  14.851  18.623  0.00  0.00    +0.000 OA
ATOM     20  O   UNL     1       2.674  13.747  18.030  0.00  0.00    +0.000 OA
ENDBRANCH  16  18
ENDBRANCH   9  12
ENDBRANCH   3   7
BRANCH   1  22
ATOM     21  O   UNL     1       7.494   7.060  16.926  0.00  0.00    +0.000 OA
ATOM     22  C   UNL     1       7.006   5.951  16.775  0.00  0.00    +0.000 C 
BRANCH  22  23
ATOM     23  O   UNL     1       7.717   4.808  16.993  0.00  0.00    +0.000 OA
ATOM     24  H   UNL     1       8.653   4.993  16.739  0.00  0.00    +0.000 HD
ENDBRANCH  22  23
ENDBRANCH   1  22
BRANCH   1  25
ATOM     25  O   UNL     1       5.604   5.937  14.821  0.00  0.00    +0.000 OA
ATOM     26  H   UNL     1       6.278   6.632  14.696  0.00  0.00    +0.000 HD
ENDBRANCH   1  25
BRANCH   4  27
ATOM     27  O   UNL     1       2.216   4.273  17.487  0.00  0.00    +0.000 OA
ATOM     28  H   UNL     1       1.530   4.146  18.161  0.00  0.00    +0.000 HD
ENDBRANCH   4  27
BRANCH   5  29
ATOM     29  O   UNL     1       5.564   3.758  18.719  0.00  0.00    +0.000 OA
ATOM     30  H   UNL     1       5.540   2.877  19.133  0.00  0.00    +0.000 HD
ENDBRANCH   5  29
TORSDOF 8
ENDMDL
MODEL 9
REMARK VINA RESULT:      -7.9      1.259      1.526
REMARK  Name = 
REMARK  8 active torsions:
REMARK  status: ('A' for Active; 'I' for Inactive)
REMARK    1  A    between atoms: C_2  and  O_3
REMARK    2  A    between atoms: C_2  and  C_4
REMARK    3  A    between atoms: C_4  and  O_5
REMARK    4  A    between atoms: C_7  and  C_8
REMARK    5  A    between atoms: N_10  and  C_11
REMARK    6  A    between atoms: C_15  and  N_16
REMARK    7  A    between atoms: C_22  and  O_23
REMARK    8  A    between atoms: C_24  and  O_25
REMARK                            x       y       z     vdW  Elec       q    Type
REMARK                         _______ _______ _______ _____ _____    ______ ____
ROOT
ATOM      1  C   UNL     1       5.347   6.087  16.453  0.00  0.00    +0.000 C 
ATOM      2  C   UNL     1       4.348   6.686  17.391  0.00  0.00    +0.000 C 
ATOM      3  C   UNL     1       3.518   5.970  18.175  0.00  0.00    +0.000 C 
ATOM      4  C   UNL     1       3.501   4.452  18.159  0.00  0.00    +0.000 C 
ATOM      5  C   UNL     1       4.715   3.805  17.439  0.00  0.00    +0.000 C 
ATOM      6  C   UNL     1       5.183   4.584  16.208  0.00  0.00    +0.000 C 
ENDROOT
BRANCH   3   7
ATOM      7  C   UNL     1       2.668   6.573  19.152  0.00  0.00    +0.000 A 
ATOM      8  C   UNL     1       2.253   7.882  19.207  0.00  0.00    +0.000 A 
ATOM      9  N   UNL     1       1.462   7.951  20.330  0.00  0.00    +0.000 N 
ATOM     10  N   UNL     1       1.417   6.733  20.921  0.00  0.00    +0.000 NA
ATOM     11  N   UNL     1       2.148   5.887  20.213  0.00  0.00    +0.000 NA
BRANCH   9  12
ATOM     12  C   UNL     1       0.764   9.068  20.854  0.00  0.00    +0.000 A 
ATOM     13  C   UNL     1       0.376   9.100  22.206  0.00  0.00    +0.000 A 
ATOM     14  C   UNL     1      -0.307  10.202  22.721  0.00  0.00    +0.000 A 
ATOM     15  C   UNL     1      -0.624  11.283  21.895  0.00  0.00    +0.000 A 
ATOM     16  C   UNL     1      -0.247  11.253  20.545  0.00  0.00    +0.000 A 
ATOM     17  C   UNL     1       0.459  10.156  20.019  0.00  0.00    +0.000 A 
BRANCH  16  18
ATOM     18  N   UNL     1      -0.604  12.377  19.671  0.00  0.00    +0.000 N 
ATOM     19  O   UNL     1      -1.680  12.310  19.057  0.00  0.00    +0.000 OA
ATOM     20  O   UNL     1       0.188  13.324  19.598  0.00  0.00    +0.000 OA
ENDBRANCH  16  18
ENDBRANCH   9  12
ENDBRANCH   3   7
BRANCH   1  22
ATOM     21  O   UNL     1       7.161   7.575  17.281  0.00  0.00    +0.000 OA
ATOM     22  C   UNL     1       6.770   6.461  16.966  0.00  0.00    +0.000 C 
BRANCH  22  23
ATOM     23  O   UNL     1       7.599   5.379  16.946  0.00  0.00    +0.000 OA
ATOM     24  H   UNL     1       7.276   4.750  17.636  0.00  0.00    +0.000 HD
ENDBRANCH  22  23
ENDBRANCH   1  22
BRANCH   1  25
ATOM     25  O   UNL     1       5.186   6.759  15.182  0.00  0.00    +0.000 OA
ATOM     26  H   UNL     1       5.512   7.672  15.302  0.00  0.00    +0.000 HD
ENDBRANCH   1  25
BRANCH   4  27
ATOM     27  O   UNL     1       2.326   3.965  17.499  0.00  0.00    +0.000 OA
ATOM     28  H   UNL     1       1.753   3.530  18.150  0.00  0.00    +0.000 HD
ENDBRANCH   4  27
BRANCH   5  29
ATOM     29  O   UNL     1       5.822   3.643  18.317  0.00  0.00    +0.000 OA
ATOM     30  H   UNL     1       6.637   3.676  17.787  0.00  0.00    +0.000 HD
ENDBRANCH   5  29
TORSDOF 8
ENDMDL
