MODEL 1
REMARK VINA RESULT:      -7.3      0.000      0.000
REMARK  Name = 
REMARK  12 active torsions:
REMARK  status: ('A' for Active; 'I' for Inactive)
REMARK    1  A    between atoms: C_1  and  C_2
REMARK    2  A    between atoms: C_2  and  N_3
REMARK    3  A    between atoms: N_3  and  C_4
REMARK    4  A    between atoms: N_3  and  C_6
REMARK    5  A    between atoms: C_4  and  C_5
REMARK    6  A    between atoms: C_6  and  C_7
REMARK    7  A    between atoms: C_7  and  O_8
REMARK    8  A    between atoms: C_7  and  C_9
REMARK    9  A    between atoms: C_9  and  N_10
REMARK   10  A    between atoms: C_11  and  C_12
REMARK   11  A    between atoms: C_13  and  C_14
REMARK   12  A    between atoms: C_22  and  N_23
REMARK                            x       y       z     vdW  Elec       q    Type
REMARK                         _______ _______ _______ _____ _____    ______ ____
ROOT
ATOM      1  N   UNL     1       4.921   5.344  17.585  0.00  0.00    +0.000 N 
ATOM      2  C   UNL     1       4.182   6.506  17.464  0.00  0.00    +0.000 A 
ATOM      3  C   UNL     1       4.418   7.495  16.363  0.00  0.00    +0.000 C 
ATOM      4  C   UNL     1       3.263   6.528  18.513  0.00  0.00    +0.000 A 
ATOM      5  C   UNL     1       3.330   5.232  19.145  0.00  0.00    +0.000 A 
ATOM      6  C   UNL     1       2.611   4.612  20.193  0.00  0.00    +0.000 A 
ATOM      7  C   UNL     1       2.866   3.268  20.514  0.00  0.00    +0.000 A 
ATOM      8  C   UNL     1       3.850   2.545  19.840  0.00  0.00    +0.000 A 
ATOM      9  C   UNL     1       4.613   3.156  18.842  0.00  0.00    +0.000 A 
ATOM     10  C   UNL     1       4.337   4.501  18.513  0.00  0.00    +0.000 A 
ENDROOT
BRANCH   4  11
ATOM     11  C   UNL     1       2.356   7.656  18.783  0.00  0.00    +0.000 A 
ATOM     12  C   UNL     1       1.924   8.504  17.754  0.00  0.00    +0.000 A 
ATOM     13  C   UNL     1       1.067   9.579  18.016  0.00  0.00    +0.000 A 
ATOM     14  C   UNL     1       0.661   9.851  19.318  0.00  0.00    +0.000 A 
ATOM     15  C   UNL     1       1.080   9.023  20.354  0.00  0.00    +0.000 A 
ATOM     16  C   UNL     1       1.893   7.920  20.082  0.00  0.00    +0.000 A 
ENDBRANCH   4  11
BRANCH   7  17
ATOM     17  N   UNL     1       2.069   2.616  21.561  0.00  0.00    +0.000 N 
ATOM     18  O   UNL     1       0.837   2.794  21.546  0.00  0.00    +0.000 OA
ATOM     19  O   UNL     1       2.668   1.922  22.398  0.00  0.00    +0.000 OA
ENDBRANCH   7  17
BRANCH   1  20
ATOM     20  C   UNL     1       6.129   5.027  16.842  0.00  0.00    +0.000 C 
BRANCH  20  21
ATOM     21  C   UNL     1       5.898   4.238  15.545  0.00  0.00    +0.000 C 
BRANCH  21  22
ATOM     22  O   UNL     1       6.033   2.845  15.871  0.00  0.00    +0.000 OA
ATOM     23  H   UNL     1       6.496   2.413  15.131  0.00  0.00    +0.000 HD
ENDBRANCH  21  22
BRANCH  21  24
ATOM     24  C   UNL     1       6.853   4.644  14.383  0.00  0.00    +0.000 C 
BRANCH  24  25
ATOM     25  N   UNL     1       6.565   3.950  13.101  0.00  0.00    +0.000 NA
BRANCH  25  27
ATOM     26  C   UNL     1       4.731   3.170  11.541  0.00  0.00    +0.000 C 
ATOM     27  C   UNL     1       5.112   3.803  12.877  0.00  0.00    +0.000 C 
ENDBRANCH  25  27
BRANCH  25  28
ATOM     28  C   UNL     1       7.270   4.570  11.963  0.00  0.00    +0.000 C 
ATOM     29  C   UNL     1       8.167   5.770  12.266  0.00  0.00    +0.000 C 
ENDBRANCH  25  28
ENDBRANCH  24  25
ENDBRANCH  21  24
ENDBRANCH  20  21
ENDBRANCH   1  20
TORSDOF 9
ENDMDL
MODEL 2
REMARK VINA RESULT:      -7.3      1.797      2.980
REMARK  Name = 
REMARK  12 active torsions:
REMARK  status: ('A' for Active; 'I' for Inactive)
REMARK    1  A    between atoms: C_1  and  C_2
REMARK    2  A    between atoms: C_2  and  N_3
REMARK    3  A    between atoms: N_3  and  C_4
REMARK    4  A    between atoms: N_3  and  C_6
REMARK    5  A    between atoms: C_4  and  C_5
REMARK    6  A    between atoms: C_6  and  C_7
REMARK    7  A    between atoms: C_7  and  O_8
REMARK    8  A    between atoms: C_7  and  C_9
REMARK    9  A    between atoms: C_9  and  N_10
REMARK   10  A    between atoms: C_11  and  C_12
REMARK   11  A    between atoms: C_13  and  C_14
REMARK   12  A    between atoms: C_22  and  N_23
REMARK                            x       y       z     vdW  Elec       q    Type
REMARK                         _______ _______ _______ _____ _____    ______ ____
ROOT
ATOM      1  N   UNL     1       3.012   7.110  18.095  0.00  0.00    +0.000 N 
ATOM      2  C   UNL     1       2.228   8.033  18.762  0.00  0.00    +0.000 A 
ATOM      3  C   UNL     1       1.839   9.345  18.150  0.00  0.00    +0.000 C 
ATOM      4  C   UNL     1       1.926   7.498  20.014  0.00  0.00    +0.000 A 
ATOM      5  C   UNL     1       2.376   6.126  19.994  0.00  0.00    +0.000 A 
ATOM      6  C   UNL     1       2.292   5.051  20.909  0.00  0.00    +0.000 A 
ATOM      7  C   UNL     1       2.761   3.780  20.536  0.00  0.00    +0.000 A 
ATOM      8  C   UNL     1       3.348   3.571  19.289  0.00  0.00    +0.000 A 
ATOM      9  C   UNL     1       3.495   4.632  18.392  0.00  0.00    +0.000 A 
ATOM     10  C   UNL     1       3.004   5.902  18.768  0.00  0.00    +0.000 A 
ENDROOT
BRANCH   4  11
ATOM     11  C   UNL     1       1.184   8.224  21.058  0.00  0.00    +0.000 A 
ATOM     12  C   UNL     1       1.853   8.961  22.045  0.00  0.00    +0.000 A 
ATOM     13  C   UNL     1       1.145   9.645  23.040  0.00  0.00    +0.000 A 
ATOM     14  C   UNL     1      -0.243   9.567  23.091  0.00  0.00    +0.000 A 
ATOM     15  C   UNL     1      -0.926   8.840  22.123  0.00  0.00    +0.000 A 
ATOM     16  C   UNL     1      -0.219   8.202  21.100  0.00  0.00    +0.000 A 
ENDBRANCH   4  11
BRANCH   7  17
ATOM     17  N   UNL     1       2.611   2.657  21.470  0.00  0.00    +0.000 N 
ATOM     18  O   UNL     1       1.496   2.488  21.997  0.00  0.00    +0.000 OA
ATOM     19  O   UNL     1       3.601   1.939  21.678  0.00  0.00    +0.000 OA
ENDBRANCH   7  17
BRANCH   1  20
ATOM     20  C   UNL     1       3.734   7.349  16.857  0.00  0.00    +0.000 C 
BRANCH  20  21
ATOM     21  C   UNL     1       5.097   6.647  16.762  0.00  0.00    +0.000 C 
BRANCH  21  22
ATOM     22  O   UNL     1       6.100   7.642  17.024  0.00  0.00    +0.000 OA
ATOM     23  H   UNL     1       6.846   7.473  16.421  0.00  0.00    +0.000 HD
ENDBRANCH  21  22
BRANCH  21  24
ATOM     24  C   UNL     1       5.345   5.937  15.397  0.00  0.00    +0.000 C 
BRANCH  24  25
ATOM     25  N   UNL     1       6.642   5.215  15.326  0.00  0.00    +0.000 NA
BRANCH  25  27
ATOM     26  C   UNL     1       7.690   4.565  17.535  0.00  0.00    +0.000 C 
ATOM     27  C   UNL     1       6.755   4.194  16.387  0.00  0.00    +0.000 C 
ENDBRANCH  25  27
BRANCH  25  28
ATOM     28  C   UNL     1       6.907   4.683  13.974  0.00  0.00    +0.000 C 
ATOM     29  C   UNL     1       7.973   5.392  13.140  0.00  0.00    +0.000 C 
ENDBRANCH  25  28
ENDBRANCH  24  25
ENDBRANCH  21  24
ENDBRANCH  20  21
ENDBRANCH   1  20
TORSDOF 9
ENDMDL
MODEL 3
REMARK VINA RESULT:      -7.2      1.748      3.020
REMARK  Name = 
REMARK  12 active torsions:
REMARK  status: ('A' for Active; 'I' for Inactive)
REMARK    1  A    between atoms: C_1  and  C_2
REMARK    2  A    between atoms: C_2  and  N_3
REMARK    3  A    between atoms: N_3  and  C_4
REMARK    4  A    between atoms: N_3  and  C_6
REMARK    5  A    between atoms: C_4  and  C_5
REMARK    6  A    between atoms: C_6  and  C_7
REMARK    7  A    between atoms: C_7  and  O_8
REMARK    8  A    between atoms: C_7  and  C_9
REMARK    9  A    between atoms: C_9  and  N_10
REMARK   10  A    between atoms: C_11  and  C_12
REMARK   11  A    between atoms: C_13  and  C_14
REMARK   12  A    between atoms: C_22  and  N_23
REMARK                            x       y       z     vdW  Elec       q    Type
REMARK                         _______ _______ _______ _____ _____    ______ ____
ROOT
ATOM      1  N   UNL     1       3.111   7.295  17.957  0.00  0.00    +0.000 N 
ATOM      2  C   UNL     1       2.347   8.299  18.524  0.00  0.00    +0.000 A 
ATOM      3  C   UNL     1       2.116   9.612  17.841  0.00  0.00    +0.000 C 
ATOM      4  C   UNL     1       1.898   7.834  19.759  0.00  0.00    +0.000 A 
ATOM      5  C   UNL     1       2.240   6.432  19.821  0.00  0.00    +0.000 A 
ATOM      6  C   UNL     1       1.993   5.402  20.757  0.00  0.00    +0.000 A 
ATOM      7  C   UNL     1       2.391   4.086  20.466  0.00  0.00    +0.000 A 
ATOM      8  C   UNL     1       3.065   3.787  19.282  0.00  0.00    +0.000 A 
ATOM      9  C   UNL     1       3.371   4.800  18.370  0.00  0.00    +0.000 A 
ATOM     10  C   UNL     1       2.951   6.117  18.662  0.00  0.00    +0.000 A 
ENDROOT
BRANCH   4  11
ATOM     11  C   UNL     1       1.129   8.652  20.712  0.00  0.00    +0.000 A 
ATOM     12  C   UNL     1       1.439   8.661  22.079  0.00  0.00    +0.000 A 
ATOM     13  C   UNL     1       0.701   9.435  22.982  0.00  0.00    +0.000 A 
ATOM     14  C   UNL     1      -0.388  10.180  22.541  0.00  0.00    +0.000 A 
ATOM     15  C   UNL     1      -0.714  10.183  21.189  0.00  0.00    +0.000 A 
ATOM     16  C   UNL     1       0.057   9.451  20.282  0.00  0.00    +0.000 A 
ENDBRANCH   4  11
BRANCH   7  17
ATOM     17  N   UNL     1       2.073   3.012  21.415  0.00  0.00    +0.000 N 
ATOM     18  O   UNL     1       0.873   2.737  21.597  0.00  0.00    +0.000 OA
ATOM     19  O   UNL     1       3.018   2.440  21.981  0.00  0.00    +0.000 OA
ENDBRANCH   7  17
BRANCH   1  20
ATOM     20  C   UNL     1       3.954   7.433  16.781  0.00  0.00    +0.000 C 
BRANCH  20  21
ATOM     21  C   UNL     1       5.326   6.752  16.889  0.00  0.00    +0.000 C 
BRANCH  21  22
ATOM     22  O   UNL     1       6.299   7.795  17.058  0.00  0.00    +0.000 OA
ATOM     23  H   UNL     1       6.826   7.581  17.850  0.00  0.00    +0.000 HD
ENDBRANCH  21  22
BRANCH  21  24
ATOM     24  C   UNL     1       5.674   5.841  15.674  0.00  0.00    +0.000 C 
BRANCH  24  25
ATOM     25  N   UNL     1       6.225   4.516  16.059  0.00  0.00    +0.000 NA
BRANCH  25  27
ATOM     26  C   UNL     1       5.495   4.007  13.690  0.00  0.00    +0.000 C 
ATOM     27  C   UNL     1       6.355   3.621  14.891  0.00  0.00    +0.000 C 
ENDBRANCH  25  27
BRANCH  25  28
ATOM     28  C   UNL     1       7.471   4.638  16.841  0.00  0.00    +0.000 C 
ATOM     29  C   UNL     1       7.343   4.650  18.364  0.00  0.00    +0.000 C 
ENDBRANCH  25  28
ENDBRANCH  24  25
ENDBRANCH  21  24
ENDBRANCH  20  21
ENDBRANCH   1  20
TORSDOF 9
ENDMDL
MODEL 4
REMARK VINA RESULT:      -7.2      1.910      3.207
REMARK  Name = 
REMARK  12 active torsions:
REMARK  status: ('A' for Active; 'I' for Inactive)
REMARK    1  A    between atoms: C_1  and  C_2
REMARK    2  A    between atoms: C_2  and  N_3
REMARK    3  A    between atoms: N_3  and  C_4
REMARK    4  A    between atoms: N_3  and  C_6
REMARK    5  A    between atoms: C_4  and  C_5
REMARK    6  A    between atoms: C_6  and  C_7
REMARK    7  A    between atoms: C_7  and  O_8
REMARK    8  A    between atoms: C_7  and  C_9
REMARK    9  A    between atoms: C_9  and  N_10
REMARK   10  A    between atoms: C_11  and  C_12
REMARK   11  A    between atoms: C_13  and  C_14
REMARK   12  A    between atoms: C_22  and  N_23
REMARK                            x       y       z     vdW  Elec       q    Type
REMARK                         _______ _______ _______ _____ _____    ______ ____
ROOT
ATOM      1  N   UNL     1       3.437   7.006  17.913  0.00  0.00    +0.000 N 
ATOM      2  C   UNL     1       2.649   8.045  18.373  0.00  0.00    +0.000 A 
ATOM      3  C   UNL     1       2.494   9.329  17.616  0.00  0.00    +0.000 C 
ATOM      4  C   UNL     1       2.098   7.644  19.590  0.00  0.00    +0.000 A 
ATOM      5  C   UNL     1       2.410   6.242  19.741  0.00  0.00    +0.000 A 
ATOM      6  C   UNL     1       2.074   5.259  20.700  0.00  0.00    +0.000 A 
ATOM      7  C   UNL     1       2.471   3.926  20.500  0.00  0.00    +0.000 A 
ATOM      8  C   UNL     1       3.229   3.564  19.387  0.00  0.00    +0.000 A 
ATOM      9  C   UNL     1       3.622   4.530  18.457  0.00  0.00    +0.000 A 
ATOM     10  C   UNL     1       3.202   5.864  18.656  0.00  0.00    +0.000 A 
ENDROOT
BRANCH   4  11
ATOM     11  C   UNL     1       1.272   8.516  20.442  0.00  0.00    +0.000 A 
ATOM     12  C   UNL     1       1.415   8.517  21.836  0.00  0.00    +0.000 A 
ATOM     13  C   UNL     1       0.623   9.342  22.643  0.00  0.00    +0.000 A 
ATOM     14  C   UNL     1      -0.356  10.148  22.073  0.00  0.00    +0.000 A 
ATOM     15  C   UNL     1      -0.516  10.161  20.692  0.00  0.00    +0.000 A 
ATOM     16  C   UNL     1       0.312   9.376  19.885  0.00  0.00    +0.000 A 
ENDBRANCH   4  11
BRANCH   7  17
ATOM     17  N   UNL     1       2.063   2.902  21.470  0.00  0.00    +0.000 N 
ATOM     18  O   UNL     1       0.844   2.690  21.609  0.00  0.00    +0.000 OA
ATOM     19  O   UNL     1       2.954   2.305  22.093  0.00  0.00    +0.000 OA
ENDBRANCH   7  17
BRANCH   1  20
ATOM     20  C   UNL     1       4.370   7.078  16.801  0.00  0.00    +0.000 C 
BRANCH  20  21
ATOM     21  C   UNL     1       5.846   6.907  17.188  0.00  0.00    +0.000 C 
BRANCH  21  22
ATOM     22  O   UNL     1       6.353   8.215  17.497  0.00  0.00    +0.000 OA
ATOM     23  H   UNL     1       5.762   8.610  18.163  0.00  0.00    +0.000 HD
ENDBRANCH  21  22
BRANCH  21  24
ATOM     24  C   UNL     1       6.706   6.208  16.093  0.00  0.00    +0.000 C 
BRANCH  24  25
ATOM     25  N   UNL     1       7.150   4.839  16.464  0.00  0.00    +0.000 NA
BRANCH  25  27
ATOM     26  C   UNL     1       8.038   5.377  18.771  0.00  0.00    +0.000 C 
ATOM     27  C   UNL     1       7.035   4.605  17.917  0.00  0.00    +0.000 C 
ENDBRANCH  25  27
BRANCH  25  28
ATOM     28  C   UNL     1       6.483   3.801  15.653  0.00  0.00    +0.000 C 
ATOM     29  C   UNL     1       5.682   4.270  14.438  0.00  0.00    +0.000 C 
ENDBRANCH  25  28
ENDBRANCH  24  25
ENDBRANCH  21  24
ENDBRANCH  20  21
ENDBRANCH   1  20
TORSDOF 9
ENDMDL
MODEL 5
REMARK VINA RESULT:      -7.1      1.848      3.086
REMARK  Name = 
REMARK  12 active torsions:
REMARK  status: ('A' for Active; 'I' for Inactive)
REMARK    1  A    between atoms: C_1  and  C_2
REMARK    2  A    between atoms: C_2  and  N_3
REMARK    3  A    between atoms: N_3  and  C_4
REMARK    4  A    between atoms: N_3  and  C_6
REMARK    5  A    between atoms: C_4  and  C_5
REMARK    6  A    between atoms: C_6  and  C_7
REMARK    7  A    between atoms: C_7  and  O_8
REMARK    8  A    between atoms: C_7  and  C_9
REMARK    9  A    between atoms: C_9  and  N_10
REMARK   10  A    between atoms: C_11  and  C_12
REMARK   11  A    between atoms: C_13  and  C_14
REMARK   12  A    between atoms: C_22  and  N_23
REMARK                            x       y       z     vdW  Elec       q    Type
REMARK                         _______ _______ _______ _____ _____    ______ ____
ROOT
ATOM      1  N   UNL     1       3.448   6.859  17.908  0.00  0.00    +0.000 N 
ATOM      2  C   UNL     1       2.656   7.899  18.359  0.00  0.00    +0.000 A 
ATOM      3  C   UNL     1       2.463   9.159  17.572  0.00  0.00    +0.000 C 
ATOM      4  C   UNL     1       2.141   7.523  19.600  0.00  0.00    +0.000 A 
ATOM      5  C   UNL     1       2.477   6.131  19.781  0.00  0.00    +0.000 A 
ATOM      6  C   UNL     1       2.180   5.170  20.774  0.00  0.00    +0.000 A 
ATOM      7  C   UNL     1       2.592   3.838  20.601  0.00  0.00    +0.000 A 
ATOM      8  C   UNL     1       3.329   3.456  19.480  0.00  0.00    +0.000 A 
ATOM      9  C   UNL     1       3.684   4.402  18.515  0.00  0.00    +0.000 A 
ATOM     10  C   UNL     1       3.249   5.734  18.688  0.00  0.00    +0.000 A 
ENDROOT
BRANCH   4  11
ATOM     11  C   UNL     1       1.322   8.406  20.448  0.00  0.00    +0.000 A 
ATOM     12  C   UNL     1       0.331   9.230  19.896  0.00  0.00    +0.000 A 
ATOM     13  C   UNL     1      -0.441  10.073  20.704  0.00  0.00    +0.000 A 
ATOM     14  C   UNL     1      -0.204  10.140  22.073  0.00  0.00    +0.000 A 
ATOM     15  C   UNL     1       0.776   9.333  22.640  0.00  0.00    +0.000 A 
ATOM     16  C   UNL     1       1.509   8.454  21.838  0.00  0.00    +0.000 A 
ENDBRANCH   4  11
BRANCH   7  17
ATOM     17  N   UNL     1       2.223   2.835  21.608  0.00  0.00    +0.000 N 
ATOM     18  O   UNL     1       3.124   2.092  22.041  0.00  0.00    +0.000 OA
ATOM     19  O   UNL     1       1.038   2.786  21.971  0.00  0.00    +0.000 OA
ENDBRANCH   7  17
BRANCH   1  20
ATOM     20  C   UNL     1       4.352   6.914  16.772  0.00  0.00    +0.000 C 
BRANCH  20  21
ATOM     21  C   UNL     1       5.843   6.834  17.132  0.00  0.00    +0.000 C 
BRANCH  21  22
ATOM     22  O   UNL     1       6.293   8.180  17.358  0.00  0.00    +0.000 OA
ATOM     23  H   UNL     1       6.527   8.561  16.493  0.00  0.00    +0.000 HD
ENDBRANCH  21  22
BRANCH  21  24
ATOM     24  C   UNL     1       6.713   6.118  16.056  0.00  0.00    +0.000 C 
BRANCH  24  25
ATOM     25  N   UNL     1       7.108   4.735  16.430  0.00  0.00    +0.000 NA
BRANCH  25  27
ATOM     26  C   UNL     1       8.086   5.287  18.698  0.00  0.00    +0.000 C 
ATOM     27  C   UNL     1       7.038   4.525  17.890  0.00  0.00    +0.000 C 
ENDBRANCH  25  27
BRANCH  25  28
ATOM     28  C   UNL     1       6.366   3.719  15.658  0.00  0.00    +0.000 C 
ATOM     29  C   UNL     1       5.908   4.104  14.252  0.00  0.00    +0.000 C 
ENDBRANCH  25  28
ENDBRANCH  24  25
ENDBRANCH  21  24
ENDBRANCH  20  21
ENDBRANCH   1  20
TORSDOF 9
ENDMDL
MODEL 6
REMARK VINA RESULT:      -7.1      0.460      1.017
REMARK  Name = 
REMARK  12 active torsions:
REMARK  status: ('A' for Active; 'I' for Inactive)
REMARK    1  A    between atoms: C_1  and  C_2
REMARK    2  A    between atoms: C_2  and  N_3
REMARK    3  A    between atoms: N_3  and  C_4
REMARK    4  A    between atoms: N_3  and  C_6
REMARK    5  A    between atoms: C_4  and  C_5
REMARK    6  A    between atoms: C_6  and  C_7
REMARK    7  A    between atoms: C_7  and  O_8
REMARK    8  A    between atoms: C_7  and  C_9
REMARK    9  A    between atoms: C_9  and  N_10
REMARK   10  A    between atoms: C_11  and  C_12
REMARK   11  A    between atoms: C_13  and  C_14
REMARK   12  A    between atoms: C_22  and  N_23
REMARK                            x       y       z     vdW  Elec       q    Type
REMARK                         _______ _______ _______ _____ _____    ______ ____
ROOT
ATOM      1  N   UNL     1       4.752   5.338  17.268  0.00  0.00    +0.000 N 
ATOM      2  C   UNL     1       4.040   6.523  17.228  0.00  0.00    +0.000 A 
ATOM      3  C   UNL     1       4.211   7.524  16.126  0.00  0.00    +0.000 C 
ATOM      4  C   UNL     1       3.214   6.552  18.352  0.00  0.00    +0.000 A 
ATOM      5  C   UNL     1       3.296   5.244  18.957  0.00  0.00    +0.000 A 
ATOM      6  C   UNL     1       2.650   4.626  20.052  0.00  0.00    +0.000 A 
ATOM      7  C   UNL     1       2.891   3.270  20.330  0.00  0.00    +0.000 A 
ATOM      8  C   UNL     1       3.793   2.532  19.564  0.00  0.00    +0.000 A 
ATOM      9  C   UNL     1       4.487   3.138  18.514  0.00  0.00    +0.000 A 
ATOM     10  C   UNL     1       4.224   4.496  18.230  0.00  0.00    +0.000 A 
ENDROOT
BRANCH   4  11
ATOM     11  C   UNL     1       2.366   7.700  18.715  0.00  0.00    +0.000 A 
ATOM     12  C   UNL     1       1.950   7.907  20.038  0.00  0.00    +0.000 A 
ATOM     13  C   UNL     1       1.139   8.995  20.379  0.00  0.00    +0.000 A 
ATOM     14  C   UNL     1       0.693   9.871  19.395  0.00  0.00    +0.000 A 
ATOM     15  C   UNL     1       1.091   9.683  18.076  0.00  0.00    +0.000 A 
ATOM     16  C   UNL     1       1.945   8.626  17.748  0.00  0.00    +0.000 A 
ENDBRANCH   4  11
BRANCH   7  17
ATOM     17  N   UNL     1       2.167   2.622  21.431  0.00  0.00    +0.000 N 
ATOM     18  O   UNL     1       0.923   2.666  21.409  0.00  0.00    +0.000 OA
ATOM     19  O   UNL     1       2.835   2.066  22.316  0.00  0.00    +0.000 OA
ENDBRANCH   7  17
BRANCH   1  20
ATOM     20  C   UNL     1       5.883   5.000  16.421  0.00  0.00    +0.000 C 
BRANCH  20  21
ATOM     21  C   UNL     1       5.572   3.993  15.305  0.00  0.00    +0.000 C 
BRANCH  21  22
ATOM     22  O   UNL     1       6.475   2.888  15.474  0.00  0.00    +0.000 OA
ATOM     23  H   UNL     1       6.219   2.421  16.290  0.00  0.00    +0.000 HD
ENDBRANCH  21  22
BRANCH  21  24
ATOM     24  C   UNL     1       5.670   4.593  13.870  0.00  0.00    +0.000 C 
BRANCH  24  25
ATOM     25  N   UNL     1       6.500   3.785  12.940  0.00  0.00    +0.000 NA
BRANCH  25  27
ATOM     26  C   UNL     1       4.334   3.453  11.675  0.00  0.00    +0.000 C 
ATOM     27  C   UNL     1       5.673   2.874  12.124  0.00  0.00    +0.000 C 
ENDBRANCH  25  27
BRANCH  25  28
ATOM     28  C   UNL     1       7.408   4.625  12.135  0.00  0.00    +0.000 C 
ATOM     29  C   UNL     1       8.293   5.620  12.887  0.00  0.00    +0.000 C 
ENDBRANCH  25  28
ENDBRANCH  24  25
ENDBRANCH  21  24
ENDBRANCH  20  21
ENDBRANCH   1  20
TORSDOF 9
ENDMDL
MODEL 7
REMARK VINA RESULT:      -7.0      1.729      3.095
REMARK  Name = 
REMARK  12 active torsions:
REMARK  status: ('A' for Active; 'I' for Inactive)
REMARK    1  A    between atoms: C_1  and  C_2
REMARK    2  A    between atoms: C_2  and  N_3
REMARK    3  A    between atoms: N_3  and  C_4
REMARK    4  A    between atoms: N_3  and  C_6
REMARK    5  A    between atoms: C_4  and  C_5
REMARK    6  A    between atoms: C_6  and  C_7
REMARK    7  A    between atoms: C_7  and  O_8
REMARK    8  A    between atoms: C_7  and  C_9
REMARK    9  A    between atoms: C_9  and  N_10
REMARK   10  A    between atoms: C_11  and  C_12
REMARK   11  A    between atoms: C_13  and  C_14
REMARK   12  A    between atoms: C_22  and  N_23
REMARK                            x       y       z     vdW  Elec       q    Type
REMARK                         _______ _______ _______ _____ _____    ______ ____
ROOT
ATOM      1  N   UNL     1       3.001   7.392  17.997  0.00  0.00    +0.000 N 
ATOM      2  C   UNL     1       2.232   8.389  18.570  0.00  0.00    +0.000 A 
ATOM      3  C   UNL     1       2.000   9.708  17.899  0.00  0.00    +0.000 C 
ATOM      4  C   UNL     1       1.779   7.911  19.800  0.00  0.00    +0.000 A 
ATOM      5  C   UNL     1       2.124   6.510  19.849  0.00  0.00    +0.000 A 
ATOM      6  C   UNL     1       1.876   5.469  20.774  0.00  0.00    +0.000 A 
ATOM      7  C   UNL     1       2.279   4.158  20.472  0.00  0.00    +0.000 A 
ATOM      8  C   UNL     1       2.959   3.872  19.289  0.00  0.00    +0.000 A 
ATOM      9  C   UNL     1       3.266   4.894  18.389  0.00  0.00    +0.000 A 
ATOM     10  C   UNL     1       2.841   6.207  18.691  0.00  0.00    +0.000 A 
ENDROOT
BRANCH   4  11
ATOM     11  C   UNL     1       1.003   8.718  20.756  0.00  0.00    +0.000 A 
ATOM     12  C   UNL     1      -0.054   9.535  20.329  0.00  0.00    +0.000 A 
ATOM     13  C   UNL     1      -0.784  10.306  21.241  0.00  0.00    +0.000 A 
ATOM     14  C   UNL     1      -0.443  10.308  22.589  0.00  0.00    +0.000 A 
ATOM     15  C   UNL     1       0.603   9.506  23.033  0.00  0.00    +0.000 A 
ATOM     16  C   UNL     1       1.296   8.697  22.129  0.00  0.00    +0.000 A 
ENDBRANCH   4  11
BRANCH   7  17
ATOM     17  N   UNL     1       1.960   3.074  21.411  0.00  0.00    +0.000 N 
ATOM     18  O   UNL     1       2.903   2.553  22.034  0.00  0.00    +0.000 OA
ATOM     19  O   UNL     1       0.770   2.742  21.531  0.00  0.00    +0.000 OA
ENDBRANCH   7  17
BRANCH   1  20
ATOM     20  C   UNL     1       3.848   7.544  16.827  0.00  0.00    +0.000 C 
BRANCH  20  21
ATOM     21  C   UNL     1       5.129   6.697  16.846  0.00  0.00    +0.000 C 
BRANCH  21  22
ATOM     22  O   UNL     1       6.236   7.609  16.750  0.00  0.00    +0.000 OA
ATOM     23  H   UNL     1       6.600   7.535  15.849  0.00  0.00    +0.000 HD
ENDBRANCH  21  22
BRANCH  21  24
ATOM     24  C   UNL     1       5.186   5.615  15.726  0.00  0.00    +0.000 C 
BRANCH  24  25
ATOM     25  N   UNL     1       6.078   4.471  16.044  0.00  0.00    +0.000 NA
BRANCH  25  27
ATOM     26  C   UNL     1       7.022   4.878  13.731  0.00  0.00    +0.000 C 
ATOM     27  C   UNL     1       7.274   4.457  15.177  0.00  0.00    +0.000 C 
ENDBRANCH  25  27
BRANCH  25  28
ATOM     28  C   UNL     1       6.401   4.403  17.483  0.00  0.00    +0.000 C 
ATOM     29  C   UNL     1       7.869   4.562  17.879  0.00  0.00    +0.000 C 
ENDBRANCH  25  28
ENDBRANCH  24  25
ENDBRANCH  21  24
ENDBRANCH  20  21
ENDBRANCH   1  20
TORSDOF 9
ENDMDL
MODEL 8
REMARK VINA RESULT:      -6.9      1.613      2.528
REMARK  Name = 
REMARK  12 active torsions:
REMARK  status: ('A' for Active; 'I' for Inactive)
REMARK    1  A    between atoms: C_1  and  C_2
REMARK    2  A    between atoms: C_2  and  N_3
REMARK    3  A    between atoms: N_3  and  C_4
REMARK    4  A    between atoms: N_3  and  C_6
REMARK    5  A    between atoms: C_4  and  C_5
REMARK    6  A    between atoms: C_6  and  C_7
REMARK    7  A    between atoms: C_7  and  O_8
REMARK    8  A    between atoms: C_7  and  C_9
REMARK    9  A    between atoms: C_9  and  N_10
REMARK   10  A    between atoms: C_11  and  C_12
REMARK   11  A    between atoms: C_13  and  C_14
REMARK   12  A    between atoms: C_22  and  N_23
REMARK                            x       y       z     vdW  Elec       q    Type
REMARK                         _______ _______ _______ _____ _____    ______ ____
ROOT
ATOM      1  N   UNL     1       3.572   6.881  17.911  0.00  0.00    +0.000 N 
ATOM      2  C   UNL     1       2.768   7.925  18.331  0.00  0.00    +0.000 A 
ATOM      3  C   UNL     1       2.625   9.192  17.544  0.00  0.00    +0.000 C 
ATOM      4  C   UNL     1       2.190   7.546  19.542  0.00  0.00    +0.000 A 
ATOM      5  C   UNL     1       2.505   6.149  19.729  0.00  0.00    +0.000 A 
ATOM      6  C   UNL     1       2.151   5.184  20.700  0.00  0.00    +0.000 A 
ATOM      7  C   UNL     1       2.559   3.849  20.537  0.00  0.00    +0.000 A 
ATOM      8  C   UNL     1       3.345   3.468  19.450  0.00  0.00    +0.000 A 
ATOM      9  C   UNL     1       3.755   4.417  18.510  0.00  0.00    +0.000 A 
ATOM     10  C   UNL     1       3.325   5.753  18.672  0.00  0.00    +0.000 A 
ENDROOT
BRANCH   4  11
ATOM     11  C   UNL     1       1.340   8.431  20.356  0.00  0.00    +0.000 A 
ATOM     12  C   UNL     1       0.415   9.300  19.761  0.00  0.00    +0.000 A 
ATOM     13  C   UNL     1      -0.386  10.145  20.537  0.00  0.00    +0.000 A 
ATOM     14  C   UNL     1      -0.246  10.166  21.921  0.00  0.00    +0.000 A 
ATOM     15  C   UNL     1       0.666   9.313  22.532  0.00  0.00    +0.000 A 
ATOM     16  C   UNL     1       1.428   8.433  21.757  0.00  0.00    +0.000 A 
ENDBRANCH   4  11
BRANCH   7  17
ATOM     17  N   UNL     1       2.133   2.843  21.518  0.00  0.00    +0.000 N 
ATOM     18  O   UNL     1       0.911   2.697  21.703  0.00  0.00    +0.000 OA
ATOM     19  O   UNL     1       3.014   2.194  22.103  0.00  0.00    +0.000 OA
ENDBRANCH   7  17
BRANCH   1  20
ATOM     20  C   UNL     1       4.530   6.935  16.820  0.00  0.00    +0.000 C 
BRANCH  20  21
ATOM     21  C   UNL     1       5.991   6.717  17.237  0.00  0.00    +0.000 C 
BRANCH  21  22
ATOM     22  O   UNL     1       6.676   7.964  17.036  0.00  0.00    +0.000 OA
ATOM     23  H   UNL     1       7.546   7.762  16.648  0.00  0.00    +0.000 HD
ENDBRANCH  21  22
BRANCH  21  24
ATOM     24  C   UNL     1       6.696   5.553  16.476  0.00  0.00    +0.000 C 
BRANCH  24  25
ATOM     25  N   UNL     1       6.368   5.500  15.028  0.00  0.00    +0.000 NA
BRANCH  25  27
ATOM     26  C   UNL     1       7.423   4.895  12.809  0.00  0.00    +0.000 C 
ATOM     27  C   UNL     1       7.586   5.519  14.193  0.00  0.00    +0.000 C 
ENDBRANCH  25  27
BRANCH  25  28
ATOM     28  C   UNL     1       5.458   4.383  14.706  0.00  0.00    +0.000 C 
ATOM     29  C   UNL     1       5.460   3.183  15.654  0.00  0.00    +0.000 C 
ENDBRANCH  25  28
ENDBRANCH  24  25
ENDBRANCH  21  24
ENDBRANCH  20  21
ENDBRANCH   1  20
TORSDOF 9
ENDMDL
MODEL 9
REMARK VINA RESULT:      -6.9      3.959      7.085
REMARK  Name = 
REMARK  12 active torsions:
REMARK  status: ('A' for Active; 'I' for Inactive)
REMARK    1  A    between atoms: C_1  and  C_2
REMARK    2  A    between atoms: C_2  and  N_3
REMARK    3  A    between atoms: N_3  and  C_4
REMARK    4  A    between atoms: N_3  and  C_6
REMARK    5  A    between atoms: C_4  and  C_5
REMARK    6  A    between atoms: C_6  and  C_7
REMARK    7  A    between atoms: C_7  and  O_8
REMARK    8  A    between atoms: C_7  and  C_9
REMARK    9  A    between atoms: C_9  and  N_10
REMARK   10  A    between atoms: C_11  and  C_12
REMARK   11  A    between atoms: C_13  and  C_14
REMARK   12  A    between atoms: C_22  and  N_23
REMARK                            x       y       z     vdW  Elec       q    Type
REMARK                         _______ _______ _______ _____ _____    ______ ____
ROOT
ATOM      1  N   UNL     1       6.650   5.689  17.372  0.00  0.00    +0.000 N 
ATOM      2  C   UNL     1       5.494   5.329  18.041  0.00  0.00    +0.000 A 
ATOM      3  C   UNL     1       5.126   5.909  19.373  0.00  0.00    +0.000 C 
ATOM      4  C   UNL     1       4.831   4.389  17.253  0.00  0.00    +0.000 A 
ATOM      5  C   UNL     1       5.519   4.356  15.984  0.00  0.00    +0.000 A 
ATOM      6  C   UNL     1       5.295   3.681  14.762  0.00  0.00    +0.000 A 
ATOM      7  C   UNL     1       6.121   3.947  13.657  0.00  0.00    +0.000 A 
ATOM      8  C   UNL     1       7.188   4.838  13.759  0.00  0.00    +0.000 A 
ATOM      9  C   UNL     1       7.464   5.471  14.973  0.00  0.00    +0.000 A 
ATOM     10  C   UNL     1       6.617   5.213  16.074  0.00  0.00    +0.000 A 
ENDROOT
BRANCH   4  11
ATOM     11  C   UNL     1       3.602   3.692  17.669  0.00  0.00    +0.000 A 
ATOM     12  C   UNL     1       2.359   4.341  17.661  0.00  0.00    +0.000 A 
ATOM     13  C   UNL     1       1.195   3.678  18.064  0.00  0.00    +0.000 A 
ATOM     14  C   UNL     1       1.259   2.367  18.524  0.00  0.00    +0.000 A 
ATOM     15  C   UNL     1       2.481   1.705  18.543  0.00  0.00    +0.000 A 
ATOM     16  C   UNL     1       3.634   2.353  18.090  0.00  0.00    +0.000 A 
ENDBRANCH   4  11
BRANCH   7  17
ATOM     17  N   UNL     1       5.840   3.288  12.375  0.00  0.00    +0.000 N 
ATOM     18  O   UNL     1       6.774   2.683  11.819  0.00  0.00    +0.000 OA
ATOM     19  O   UNL     1       4.688   3.370  11.921  0.00  0.00    +0.000 OA
ENDBRANCH   7  17
BRANCH   1  20
ATOM     20  C   UNL     1       7.743   6.467  17.927  0.00  0.00    +0.000 C 
BRANCH  20  21
ATOM     21  C   UNL     1       7.494   7.982  17.974  0.00  0.00    +0.000 C 
BRANCH  21  22
ATOM     22  O   UNL     1       6.706   8.314  16.820  0.00  0.00    +0.000 OA
ATOM     23  H   UNL     1       7.210   8.962  16.296  0.00  0.00    +0.000 HD
ENDBRANCH  21  22
BRANCH  21  24
ATOM     24  C   UNL     1       8.799   8.832  18.035  0.00  0.00    +0.000 C 
BRANCH  24  25
ATOM     25  N   UNL     1       8.638  10.124  18.751  0.00  0.00    +0.000 NA
BRANCH  25  27
ATOM     26  C   UNL     1       9.177  11.384  20.879  0.00  0.00    +0.000 C 
ATOM     27  C   UNL     1       9.384  10.135  20.026  0.00  0.00    +0.000 C 
ENDBRANCH  25  27
BRANCH  25  28
ATOM     28  C   UNL     1       8.946  11.280  17.887  0.00  0.00    +0.000 C 
ATOM     29  C   UNL     1      10.421  11.621  17.671  0.00  0.00    +0.000 C 
ENDBRANCH  25  28
ENDBRANCH  24  25
ENDBRANCH  21  24
ENDBRANCH  20  21
ENDBRANCH   1  20
TORSDOF 9
ENDMDL
