MODEL 1
REMARK VINA RESULT:      -8.0      0.000      0.000
REMARK  Name = 
REMARK  3 active torsions:
REMARK  status: ('A' for Active; 'I' for Inactive)
REMARK    1  A    between atoms: C_2  and  C_11
REMARK    2  A    between atoms: N_3  and  C_4
REMARK    3  A    between atoms: C_18  and  O_19
REMARK                            x       y       z     vdW  Elec       q    Type
REMARK                         _______ _______ _______ _____ _____    ______ ____
ROOT
ATOM      1  C   UNL     1       4.027   5.256  17.660  0.00  0.00    +0.000 A 
ATOM      2  C   UNL     1       3.078   6.181  18.064  0.00  0.00    +0.000 A 
ATOM      3  C   UNL     1       2.351   5.910  19.212  0.00  0.00    +0.000 A 
ATOM      4  C   UNL     1       2.596   4.732  19.924  0.00  0.00    +0.000 A 
ATOM      5  C   UNL     1       1.859   4.442  21.085  0.00  0.00    +0.000 A 
ATOM      6  C   UNL     1       2.098   3.273  21.800  0.00  0.00    +0.000 A 
ATOM      7  C   UNL     1       3.077   2.388  21.362  0.00  0.00    +0.000 A 
ATOM      8  C   UNL     1       3.806   2.679  20.203  0.00  0.00    +0.000 A 
ATOM      9  C   UNL     1       3.591   3.843  19.451  0.00  0.00    +0.000 A 
ATOM     10  N   UNL     1       4.296   4.100  18.323  0.00  0.00    +0.000 NA
ENDROOT
BRANCH   1  12
ATOM     11  O   UNL     1       4.957   6.680  16.046  0.00  0.00    +0.000 OA
ATOM     12  C   UNL     1       4.804   5.519  16.410  0.00  0.00    +0.000 C 
ATOM     13  N   UNL     1       5.243   4.381  15.751  0.00  0.00    +0.000 N 
ATOM     14  H   UNL     1       4.934   3.504  16.166  0.00  0.00    +0.000 HD
BRANCH  13  15
ATOM     15  C   UNL     1       5.938   4.349  14.526  0.00  0.00    +0.000 A 
ATOM     16  C   UNL     1       7.128   5.052  14.307  0.00  0.00    +0.000 A 
ATOM     17  C   UNL     1       7.744   5.045  13.054  0.00  0.00    +0.000 A 
ATOM     18  C   UNL     1       7.171   4.325  12.018  0.00  0.00    +0.000 A 
ATOM     19  F   UNL     1       7.746   4.340  10.808  0.00  0.00    +0.000 F 
ATOM     20  C   UNL     1       6.008   3.593  12.220  0.00  0.00    +0.000 A 
ATOM     21  C   UNL     1       5.396   3.593  13.478  0.00  0.00    +0.000 A 
ENDBRANCH  13  15
ENDBRANCH   1  12
BRANCH   8  22
ATOM     22  O   UNL     1       4.768   1.787  19.783  0.00  0.00    +0.000 OA
ATOM     23  H   UNL     1       4.760   1.012  20.364  0.00  0.00    +0.000 HD
ENDBRANCH   8  22
TORSDOF 3
ENDMDL
MODEL 2
REMARK VINA RESULT:      -7.8      0.154      1.062
REMARK  Name = 
REMARK  3 active torsions:
REMARK  status: ('A' for Active; 'I' for Inactive)
REMARK    1  A    between atoms: C_2  and  C_11
REMARK    2  A    between atoms: N_3  and  C_4
REMARK    3  A    between atoms: C_18  and  O_19
REMARK                            x       y       z     vdW  Elec       q    Type
REMARK                         _______ _______ _______ _____ _____    ______ ____
ROOT
ATOM      1  C   UNL     1       3.957   5.177  17.685  0.00  0.00    +0.000 A 
ATOM      2  C   UNL     1       2.998   6.092  18.090  0.00  0.00    +0.000 A 
ATOM      3  C   UNL     1       2.287   5.821  19.249  0.00  0.00    +0.000 A 
ATOM      4  C   UNL     1       2.557   4.653  19.969  0.00  0.00    +0.000 A 
ATOM      5  C   UNL     1       1.837   4.364  21.140  0.00  0.00    +0.000 A 
ATOM      6  C   UNL     1       2.101   3.205  21.863  0.00  0.00    +0.000 A 
ATOM      7  C   UNL     1       3.088   2.330  21.423  0.00  0.00    +0.000 A 
ATOM      8  C   UNL     1       3.801   2.621  20.254  0.00  0.00    +0.000 A 
ATOM      9  C   UNL     1       3.560   3.774  19.493  0.00  0.00    +0.000 A 
ATOM     10  N   UNL     1       4.250   4.031  18.355  0.00  0.00    +0.000 NA
ENDROOT
BRANCH   1  12
ATOM     11  O   UNL     1       4.945   6.602  16.107  0.00  0.00    +0.000 OA
ATOM     12  C   UNL     1       4.716   5.439  16.424  0.00  0.00    +0.000 C 
ATOM     13  N   UNL     1       5.051   4.304  15.703  0.00  0.00    +0.000 N 
ATOM     14  H   UNL     1       4.688   3.434  16.088  0.00  0.00    +0.000 HD
BRANCH  13  15
ATOM     15  C   UNL     1       5.707   4.278  14.456  0.00  0.00    +0.000 A 
ATOM     16  C   UNL     1       5.204   3.590  13.345  0.00  0.00    +0.000 A 
ATOM     17  C   UNL     1       5.925   3.536  12.150  0.00  0.00    +0.000 A 
ATOM     18  C   UNL     1       7.149   4.179  12.064  0.00  0.00    +0.000 A 
ATOM     19  F   UNL     1       7.854   4.104  10.927  0.00  0.00    +0.000 F 
ATOM     20  C   UNL     1       7.653   4.895  13.142  0.00  0.00    +0.000 A 
ATOM     21  C   UNL     1       6.927   4.957  14.336  0.00  0.00    +0.000 A 
ENDBRANCH  13  15
ENDBRANCH   1  12
BRANCH   8  22
ATOM     22  O   UNL     1       4.771   1.739  19.831  0.00  0.00    +0.000 OA
ATOM     23  H   UNL     1       5.347   2.182  19.191  0.00  0.00    +0.000 HD
ENDBRANCH   8  22
TORSDOF 3
ENDMDL
MODEL 3
REMARK VINA RESULT:      -7.4      5.003      7.850
REMARK  Name = 
REMARK  3 active torsions:
REMARK  status: ('A' for Active; 'I' for Inactive)
REMARK    1  A    between atoms: C_2  and  C_11
REMARK    2  A    between atoms: N_3  and  C_4
REMARK    3  A    between atoms: C_18  and  O_19
REMARK                            x       y       z     vdW  Elec       q    Type
REMARK                         _______ _______ _______ _____ _____    ______ ____
ROOT
ATOM      1  C   UNL     1       2.936   6.797  18.184  0.00  0.00    +0.000 A 
ATOM      2  C   UNL     1       2.327   5.555  18.106  0.00  0.00    +0.000 A 
ATOM      3  C   UNL     1       3.025   4.524  17.499  0.00  0.00    +0.000 A 
ATOM      4  C   UNL     1       4.308   4.758  16.997  0.00  0.00    +0.000 A 
ATOM      5  C   UNL     1       5.023   3.722  16.372  0.00  0.00    +0.000 A 
ATOM      6  C   UNL     1       6.301   3.948  15.871  0.00  0.00    +0.000 A 
ATOM      7  C   UNL     1       6.874   5.208  15.994  0.00  0.00    +0.000 A 
ATOM      8  C   UNL     1       6.158   6.239  16.614  0.00  0.00    +0.000 A 
ATOM      9  C   UNL     1       4.865   6.054  17.126  0.00  0.00    +0.000 A 
ATOM     10  N   UNL     1       4.181   7.067  17.709  0.00  0.00    +0.000 NA
ENDROOT
BRANCH   1  12
ATOM     11  O   UNL     1       1.926   7.868  20.009  0.00  0.00    +0.000 OA
ATOM     12  C   UNL     1       2.189   7.929  18.813  0.00  0.00    +0.000 C 
ATOM     13  N   UNL     1       1.821   8.938  17.936  0.00  0.00    +0.000 N 
ATOM     14  H   UNL     1       2.053   8.758  16.961  0.00  0.00    +0.000 HD
BRANCH  13  15
ATOM     15  C   UNL     1       1.060  10.079  18.258  0.00  0.00    +0.000 A 
ATOM     16  C   UNL     1      -0.339  10.075  18.296  0.00  0.00    +0.000 A 
ATOM     17  C   UNL     1      -1.052  11.248  18.553  0.00  0.00    +0.000 A 
ATOM     18  C   UNL     1      -0.362  12.428  18.780  0.00  0.00    +0.000 A 
ATOM     19  F   UNL     1      -1.046  13.559  19.000  0.00  0.00    +0.000 F 
ATOM     20  C   UNL     1       1.027  12.450  18.781  0.00  0.00    +0.000 A 
ATOM     21  C   UNL     1       1.741  11.272  18.532  0.00  0.00    +0.000 A 
ENDBRANCH  13  15
ENDBRANCH   1  12
BRANCH   8  22
ATOM     22  O   UNL     1       6.741   7.481  16.721  0.00  0.00    +0.000 OA
ATOM     23  H   UNL     1       7.645   7.382  17.055  0.00  0.00    +0.000 HD
ENDBRANCH   8  22
TORSDOF 3
ENDMDL
MODEL 4
REMARK VINA RESULT:      -7.3      4.598      8.065
REMARK  Name = 
REMARK  3 active torsions:
REMARK  status: ('A' for Active; 'I' for Inactive)
REMARK    1  A    between atoms: C_2  and  C_11
REMARK    2  A    between atoms: N_3  and  C_4
REMARK    3  A    between atoms: C_18  and  O_19
REMARK                            x       y       z     vdW  Elec       q    Type
REMARK                         _______ _______ _______ _____ _____    ______ ____
ROOT
ATOM      1  C   UNL     1       3.152   5.586  18.585  0.00  0.00    +0.000 A 
ATOM      2  C   UNL     1       2.739   4.336  18.152  0.00  0.00    +0.000 A 
ATOM      3  C   UNL     1       3.497   3.698  17.183  0.00  0.00    +0.000 A 
ATOM      4  C   UNL     1       4.644   4.319  16.682  0.00  0.00    +0.000 A 
ATOM      5  C   UNL     1       5.416   3.685  15.693  0.00  0.00    +0.000 A 
ATOM      6  C   UNL     1       6.560   4.297  15.190  0.00  0.00    +0.000 A 
ATOM      7  C   UNL     1       6.942   5.543  15.674  0.00  0.00    +0.000 A 
ATOM      8  C   UNL     1       6.168   6.173  16.656  0.00  0.00    +0.000 A 
ATOM      9  C   UNL     1       5.005   5.593  17.184  0.00  0.00    +0.000 A 
ATOM     10  N   UNL     1       4.261   6.225  18.123  0.00  0.00    +0.000 NA
ENDROOT
BRANCH   1  12
ATOM     11  O   UNL     1       1.814   5.648  20.508  0.00  0.00    +0.000 OA
ATOM     12  C   UNL     1       2.334   6.302  19.610  0.00  0.00    +0.000 C 
ATOM     13  N   UNL     1       2.210   7.667  19.402  0.00  0.00    +0.000 N 
ATOM     14  H   UNL     1       2.641   8.007  18.545  0.00  0.00    +0.000 HD
BRANCH  13  15
ATOM     15  C   UNL     1       1.445   8.557  20.182  0.00  0.00    +0.000 A 
ATOM     16  C   UNL     1       1.380   8.484  21.579  0.00  0.00    +0.000 A 
ATOM     17  C   UNL     1       0.554   9.345  22.304  0.00  0.00    +0.000 A 
ATOM     18  C   UNL     1      -0.204  10.289  21.629  0.00  0.00    +0.000 A 
ATOM     19  F   UNL     1      -1.017  11.098  22.322  0.00  0.00    +0.000 F 
ATOM     20  C   UNL     1      -0.131  10.403  20.247  0.00  0.00    +0.000 A 
ATOM     21  C   UNL     1       0.704   9.546  19.522  0.00  0.00    +0.000 A 
ENDBRANCH  13  15
ENDBRANCH   1  12
BRANCH   8  22
ATOM     22  O   UNL     1       6.561   7.409  17.118  0.00  0.00    +0.000 OA
ATOM     23  H   UNL     1       7.528   7.445  17.152  0.00  0.00    +0.000 HD
ENDBRANCH   8  22
TORSDOF 3
ENDMDL
MODEL 5
REMARK VINA RESULT:      -7.3      5.030      7.821
REMARK  Name = 
REMARK  3 active torsions:
REMARK  status: ('A' for Active; 'I' for Inactive)
REMARK    1  A    between atoms: C_2  and  C_11
REMARK    2  A    between atoms: N_3  and  C_4
REMARK    3  A    between atoms: C_18  and  O_19
REMARK                            x       y       z     vdW  Elec       q    Type
REMARK                         _______ _______ _______ _____ _____    ______ ____
ROOT
ATOM      1  C   UNL     1       2.931   6.818  18.187  0.00  0.00    +0.000 A 
ATOM      2  C   UNL     1       2.322   5.576  18.107  0.00  0.00    +0.000 A 
ATOM      3  C   UNL     1       3.025   4.543  17.508  0.00  0.00    +0.000 A 
ATOM      4  C   UNL     1       4.312   4.777  17.014  0.00  0.00    +0.000 A 
ATOM      5  C   UNL     1       5.031   3.740  16.396  0.00  0.00    +0.000 A 
ATOM      6  C   UNL     1       6.312   3.965  15.904  0.00  0.00    +0.000 A 
ATOM      7  C   UNL     1       6.885   5.226  16.028  0.00  0.00    +0.000 A 
ATOM      8  C   UNL     1       6.163   6.257  16.641  0.00  0.00    +0.000 A 
ATOM      9  C   UNL     1       4.867   6.073  17.144  0.00  0.00    +0.000 A 
ATOM     10  N   UNL     1       4.179   7.087  17.720  0.00  0.00    +0.000 NA
ENDROOT
BRANCH   1  12
ATOM     11  O   UNL     1       1.903   7.890  20.001  0.00  0.00    +0.000 OA
ATOM     12  C   UNL     1       2.179   7.951  18.808  0.00  0.00    +0.000 C 
ATOM     13  N   UNL     1       1.822   8.961  17.927  0.00  0.00    +0.000 N 
ATOM     14  H   UNL     1       2.064   8.781  16.955  0.00  0.00    +0.000 HD
BRANCH  13  15
ATOM     15  C   UNL     1       1.059  10.103  18.241  0.00  0.00    +0.000 A 
ATOM     16  C   UNL     1       1.634  11.325  18.611  0.00  0.00    +0.000 A 
ATOM     17  C   UNL     1       0.836  12.410  18.980  0.00  0.00    +0.000 A 
ATOM     18  C   UNL     1      -0.543  12.274  18.972  0.00  0.00    +0.000 A 
ATOM     19  F   UNL     1      -1.308  13.305  19.353  0.00  0.00    +0.000 F 
ATOM     20  C   UNL     1      -1.137  11.082  18.578  0.00  0.00    +0.000 A 
ATOM     21  C   UNL     1      -0.337   9.998  18.199  0.00  0.00    +0.000 A 
ENDBRANCH  13  15
ENDBRANCH   1  12
BRANCH   8  22
ATOM     22  O   UNL     1       6.746   7.500  16.750  0.00  0.00    +0.000 OA
ATOM     23  H   UNL     1       7.301   7.524  17.544  0.00  0.00    +0.000 HD
ENDBRANCH   8  22
TORSDOF 3
ENDMDL
MODEL 6
REMARK VINA RESULT:      -7.3      4.682      6.395
REMARK  Name = 
REMARK  3 active torsions:
REMARK  status: ('A' for Active; 'I' for Inactive)
REMARK    1  A    between atoms: C_2  and  C_11
REMARK    2  A    between atoms: N_3  and  C_4
REMARK    3  A    between atoms: C_18  and  O_19
REMARK                            x       y       z     vdW  Elec       q    Type
REMARK                         _______ _______ _______ _____ _____    ______ ____
ROOT
ATOM      1  C   UNL     1       1.462   8.710  19.626  0.00  0.00    +0.000 A 
ATOM      2  C   UNL     1       1.520   8.040  20.838  0.00  0.00    +0.000 A 
ATOM      3  C   UNL     1       0.826   8.574  21.912  0.00  0.00    +0.000 A 
ATOM      4  C   UNL     1       0.091   9.751  21.744  0.00  0.00    +0.000 A 
ATOM      5  C   UNL     1      -0.611  10.306  22.828  0.00  0.00    +0.000 A 
ATOM      6  C   UNL     1      -1.345  11.477  22.669  0.00  0.00    +0.000 A 
ATOM      7  C   UNL     1      -1.386  12.099  21.426  0.00  0.00    +0.000 A 
ATOM      8  C   UNL     1      -0.683  11.544  20.350  0.00  0.00    +0.000 A 
ATOM      9  C   UNL     1       0.074  10.370  20.471  0.00  0.00    +0.000 A 
ATOM     10  N   UNL     1       0.760   9.856  19.422  0.00  0.00    +0.000 NA
ENDROOT
BRANCH   1  12
ATOM     11  O   UNL     1       2.130   8.731  17.379  0.00  0.00    +0.000 OA
ATOM     12  C   UNL     1       2.225   8.164  18.463  0.00  0.00    +0.000 C 
ATOM     13  N   UNL     1       2.945   7.010  18.732  0.00  0.00    +0.000 N 
ATOM     14  H   UNL     1       2.820   6.642  19.673  0.00  0.00    +0.000 HD
BRANCH  13  15
ATOM     15  C   UNL     1       3.693   6.264  17.800  0.00  0.00    +0.000 A 
ATOM     16  C   UNL     1       4.653   6.839  16.960  0.00  0.00    +0.000 A 
ATOM     17  C   UNL     1       5.321   6.070  16.004  0.00  0.00    +0.000 A 
ATOM     18  C   UNL     1       5.032   4.719  15.894  0.00  0.00    +0.000 A 
ATOM     19  F   UNL     1       5.652   3.987  14.959  0.00  0.00    +0.000 F 
ATOM     20  C   UNL     1       4.107   4.120  16.739  0.00  0.00    +0.000 A 
ATOM     21  C   UNL     1       3.445   4.889  17.703  0.00  0.00    +0.000 A 
ENDBRANCH  13  15
ENDBRANCH   1  12
BRANCH   8  22
ATOM     22  O   UNL     1      -0.732  12.178  19.128  0.00  0.00    +0.000 OA
ATOM     23  H   UNL     1      -1.573  12.653  19.049  0.00  0.00    +0.000 HD
ENDBRANCH   8  22
TORSDOF 3
ENDMDL
MODEL 7
REMARK VINA RESULT:      -7.3      4.697      6.493
REMARK  Name = 
REMARK  3 active torsions:
REMARK  status: ('A' for Active; 'I' for Inactive)
REMARK    1  A    between atoms: C_2  and  C_11
REMARK    2  A    between atoms: N_3  and  C_4
REMARK    3  A    between atoms: C_18  and  O_19
REMARK                            x       y       z     vdW  Elec       q    Type
REMARK                         _______ _______ _______ _____ _____    ______ ____
ROOT
ATOM      1  C   UNL     1       1.458   8.699  19.645  0.00  0.00    +0.000 A 
ATOM      2  C   UNL     1       1.491   8.033  20.860  0.00  0.00    +0.000 A 
ATOM      3  C   UNL     1       0.822   8.601  21.933  0.00  0.00    +0.000 A 
ATOM      4  C   UNL     1       0.137   9.807  21.761  0.00  0.00    +0.000 A 
ATOM      5  C   UNL     1      -0.538  10.396  22.844  0.00  0.00    +0.000 A 
ATOM      6  C   UNL     1      -1.223  11.596  22.680  0.00  0.00    +0.000 A 
ATOM      7  C   UNL     1      -1.242  12.213  21.434  0.00  0.00    +0.000 A 
ATOM      8  C   UNL     1      -0.565  11.624  20.359  0.00  0.00    +0.000 A 
ATOM      9  C   UNL     1       0.142  10.420  20.484  0.00  0.00    +0.000 A 
ATOM     10  N   UNL     1       0.804   9.873  19.436  0.00  0.00    +0.000 NA
ENDROOT
BRANCH   1  12
ATOM     11  O   UNL     1       2.087   8.657  17.387  0.00  0.00    +0.000 OA
ATOM     12  C   UNL     1       2.195   8.116  18.482  0.00  0.00    +0.000 C 
ATOM     13  N   UNL     1       2.907   6.962  18.768  0.00  0.00    +0.000 N 
ATOM     14  H   UNL     1       2.795   6.618  19.720  0.00  0.00    +0.000 HD
BRANCH  13  15
ATOM     15  C   UNL     1       3.630   6.184  17.842  0.00  0.00    +0.000 A 
ATOM     16  C   UNL     1       3.358   4.831  17.607  0.00  0.00    +0.000 A 
ATOM     17  C   UNL     1       4.147   4.084  16.730  0.00  0.00    +0.000 A 
ATOM     18  C   UNL     1       5.208   4.695  16.080  0.00  0.00    +0.000 A 
ATOM     19  F   UNL     1       5.982   3.972  15.260  0.00  0.00    +0.000 F 
ATOM     20  C   UNL     1       5.477   6.044  16.272  0.00  0.00    +0.000 A 
ATOM     21  C   UNL     1       4.680   6.794  17.144  0.00  0.00    +0.000 A 
ENDBRANCH  13  15
ENDBRANCH   1  12
BRANCH   8  22
ATOM     22  O   UNL     1      -0.591  12.253  19.135  0.00  0.00    +0.000 OA
ATOM     23  H   UNL     1      -0.890  13.167  19.252  0.00  0.00    +0.000 HD
ENDBRANCH   8  22
TORSDOF 3
ENDMDL
MODEL 8
REMARK VINA RESULT:      -7.3      4.619      6.665
REMARK  Name = 
REMARK  3 active torsions:
REMARK  status: ('A' for Active; 'I' for Inactive)
REMARK    1  A    between atoms: C_2  and  C_11
REMARK    2  A    between atoms: N_3  and  C_4
REMARK    3  A    between atoms: C_18  and  O_19
REMARK                            x       y       z     vdW  Elec       q    Type
REMARK                         _______ _______ _______ _____ _____    ______ ____
ROOT
ATOM      1  C   UNL     1       1.963   8.267  18.835  0.00  0.00    +0.000 A 
ATOM      2  C   UNL     1       1.708   9.177  17.822  0.00  0.00    +0.000 A 
ATOM      3  C   UNL     1       0.996  10.323  18.139  0.00  0.00    +0.000 A 
ATOM      4  C   UNL     1       0.566  10.529  19.453  0.00  0.00    +0.000 A 
ATOM      5  C   UNL     1      -0.165  11.683  19.784  0.00  0.00    +0.000 A 
ATOM      6  C   UNL     1      -0.595  11.896  21.090  0.00  0.00    +0.000 A 
ATOM      7  C   UNL     1      -0.295  10.960  22.073  0.00  0.00    +0.000 A 
ATOM      8  C   UNL     1       0.430   9.810  21.738  0.00  0.00    +0.000 A 
ATOM      9  C   UNL     1       0.876   9.555  20.433  0.00  0.00    +0.000 A 
ATOM     10  N   UNL     1       1.563   8.429  20.124  0.00  0.00    +0.000 NA
ENDROOT
BRANCH   1  12
ATOM     11  O   UNL     1       3.705   7.090  17.799  0.00  0.00    +0.000 OA
ATOM     12  C   UNL     1       2.708   7.013  18.508  0.00  0.00    +0.000 C 
ATOM     13  N   UNL     1       2.145   5.854  19.021  0.00  0.00    +0.000 N 
ATOM     14  H   UNL     1       1.262   5.991  19.508  0.00  0.00    +0.000 HD
BRANCH  13  15
ATOM     15  C   UNL     1       2.612   4.542  18.808  0.00  0.00    +0.000 A 
ATOM     16  C   UNL     1       2.076   3.693  17.832  0.00  0.00    +0.000 A 
ATOM     17  C   UNL     1       2.525   2.376  17.704  0.00  0.00    +0.000 A 
ATOM     18  C   UNL     1       3.519   1.911  18.550  0.00  0.00    +0.000 A 
ATOM     19  F   UNL     1       3.931   0.640  18.446  0.00  0.00    +0.000 F 
ATOM     20  C   UNL     1       4.089   2.745  19.503  0.00  0.00    +0.000 A 
ATOM     21  C   UNL     1       3.645   4.066  19.625  0.00  0.00    +0.000 A 
ENDBRANCH  13  15
ENDBRANCH   1  12
BRANCH   8  22
ATOM     22  O   UNL     1       0.713   8.892  22.725  0.00  0.00    +0.000 OA
ATOM     23  H   UNL     1       0.763   9.348  23.579  0.00  0.00    +0.000 HD
ENDBRANCH   8  22
TORSDOF 3
ENDMDL
MODEL 9
REMARK VINA RESULT:      -7.3      5.164      7.388
REMARK  Name = 
REMARK  3 active torsions:
REMARK  status: ('A' for Active; 'I' for Inactive)
REMARK    1  A    between atoms: C_2  and  C_11
REMARK    2  A    between atoms: N_3  and  C_4
REMARK    3  A    between atoms: C_18  and  O_19
REMARK                            x       y       z     vdW  Elec       q    Type
REMARK                         _______ _______ _______ _____ _____    ______ ____
ROOT
ATOM      1  C   UNL     1       2.448   6.722  18.795  0.00  0.00    +0.000 A 
ATOM      2  C   UNL     1       3.516   6.702  17.912  0.00  0.00    +0.000 A 
ATOM      3  C   UNL     1       4.006   5.470  17.509  0.00  0.00    +0.000 A 
ATOM      4  C   UNL     1       3.415   4.299  17.991  0.00  0.00    +0.000 A 
ATOM      5  C   UNL     1       3.908   3.044  17.595  0.00  0.00    +0.000 A 
ATOM      6  C   UNL     1       3.324   1.874  18.070  0.00  0.00    +0.000 A 
ATOM      7  C   UNL     1       2.242   1.950  18.939  0.00  0.00    +0.000 A 
ATOM      8  C   UNL     1       1.755   3.202  19.333  0.00  0.00    +0.000 A 
ATOM      9  C   UNL     1       2.320   4.405  18.883  0.00  0.00    +0.000 A 
ATOM     10  N   UNL     1       1.845   5.607  19.287  0.00  0.00    +0.000 NA
ENDROOT
BRANCH   1  12
ATOM     11  O   UNL     1       1.783   8.226  20.466  0.00  0.00    +0.000 OA
ATOM     12  C   UNL     1       1.922   8.041  19.261  0.00  0.00    +0.000 C 
ATOM     13  N   UNL     1       1.593   8.925  18.245  0.00  0.00    +0.000 N 
ATOM     14  H   UNL     1       1.695   8.548  17.305  0.00  0.00    +0.000 HD
BRANCH  13  15
ATOM     15  C   UNL     1       1.021  10.202  18.411  0.00  0.00    +0.000 A 
ATOM     16  C   UNL     1      -0.361  10.415  18.472  0.00  0.00    +0.000 A 
ATOM     17  C   UNL     1      -0.883  11.707  18.568  0.00  0.00    +0.000 A 
ATOM     18  C   UNL     1      -0.018  12.789  18.612  0.00  0.00    +0.000 A 
ATOM     19  F   UNL     1      -0.519  14.030  18.676  0.00  0.00    +0.000 F 
ATOM     20  C   UNL     1       1.358  12.600  18.586  0.00  0.00    +0.000 A 
ATOM     21  C   UNL     1       1.880  11.305  18.499  0.00  0.00    +0.000 A 
ENDBRANCH  13  15
ENDBRANCH   1  12
BRANCH   8  22
ATOM     22  O   UNL     1       0.685   3.256  20.198  0.00  0.00    +0.000 OA
ATOM     23  H   UNL     1       0.329   4.157  20.210  0.00  0.00    +0.000 HD
ENDBRANCH   8  22
TORSDOF 3
ENDMDL
