MODEL 1
REMARK VINA RESULT:      -7.9      0.000      0.000
REMARK  Name = 
REMARK  8 active torsions:
REMARK  status: ('A' for Active; 'I' for Inactive)
REMARK    1  A    between atoms: C_1  and  O_2
REMARK    2  A    between atoms: O_2  and  C_3
REMARK    3  A    between atoms: C_9  and  O_10
REMARK    4  A    between atoms: O_10  and  C_11
REMARK    5  A    between atoms: C_14  and  N_15
REMARK    6  A    between atoms: C_16  and  C_18
REMARK    7  A    between atoms: C_27  and  O_28
REMARK    8  A    between atoms: O_28  and  C_29
REMARK                            x       y       z     vdW  Elec       q    Type
REMARK                         _______ _______ _______ _____ _____    ______ ____
ROOT
ATOM      1  O   UNL     1       2.576   6.090  20.165  0.00  0.00    +0.000 OA
ENDROOT
BRANCH   1   8
ATOM      2  C   UNL     1       5.815   4.596  16.390  0.00  0.00    +0.000 A 
ATOM      3  C   UNL     1       4.626   3.843  16.356  0.00  0.00    +0.000 A 
ATOM      4  C   UNL     1       3.587   4.036  17.255  0.00  0.00    +0.000 A 
ATOM      5  N   UNL     1       2.462   3.319  17.086  0.00  0.00    +0.000 NA
ATOM      6  C   UNL     1       1.427   3.545  17.920  0.00  0.00    +0.000 A 
ATOM      7  C   UNL     1       1.477   4.437  18.966  0.00  0.00    +0.000 A 
ATOM      8  C   UNL     1       2.658   5.147  19.167  0.00  0.00    +0.000 A 
ATOM      9  C   UNL     1       3.743   4.990  18.275  0.00  0.00    +0.000 A 
ATOM     10  C   UNL     1       4.947   5.727  18.319  0.00  0.00    +0.000 A 
ATOM     11  C   UNL     1       5.990   5.530  17.410  0.00  0.00    +0.000 A 
BRANCH   2  13
ATOM     12  C   UNL     1       6.348   4.001  14.168  0.00  0.00    +0.000 C 
ATOM     13  O   UNL     1       6.803   4.415  15.458  0.00  0.00    +0.000 OA
ENDBRANCH   2  13
BRANCH  11  14
ATOM     14  O   UNL     1       7.050   6.342  17.695  0.00  0.00    +0.000 OA
ATOM     15  C   UNL     1       7.810   6.142  18.870  0.00  0.00    +0.000 C 
ENDBRANCH  11  14
ENDBRANCH   1   8
BRANCH   1  16
ATOM     16  C   UNL     1       2.046   7.339  19.949  0.00  0.00    +0.000 A 
ATOM     17  C   UNL     1       1.343   7.852  21.036  0.00  0.00    +0.000 A 
ATOM     18  C   UNL     1       0.765   9.120  20.979  0.00  0.00    +0.000 A 
ATOM     19  C   UNL     1       0.880   9.899  19.828  0.00  0.00    +0.000 A 
ATOM     20  C   UNL     1       1.545   9.363  18.717  0.00  0.00    +0.000 A 
ATOM     21  C   UNL     1       2.162   8.104  18.787  0.00  0.00    +0.000 A 
BRANCH  19  22
ATOM     22  N   UNL     1       0.382  11.215  19.736  0.00  0.00    +0.000 N 
ATOM     23  C   UNL     1       0.936  12.348  20.313  0.00  0.00    +0.000 C 
ATOM     24  O   UNL     1       1.932  12.343  21.032  0.00  0.00    +0.000 OA
ATOM     25  H   UNL     1      -0.367  11.377  19.074  0.00  0.00    +0.000 HD
BRANCH  23  26
ATOM     26  C   UNL     1       0.276  13.605  19.969  0.00  0.00    +0.000 A 
ATOM     27  C   UNL     1       0.630  14.450  18.927  0.00  0.00    +0.000 A 
ATOM     28  C   UNL     1      -0.213  15.591  18.837  0.00  0.00    +0.000 A 
ATOM     29  C   UNL     1      -1.188  15.588  19.806  0.00  0.00    +0.000 A 
ATOM     30  S   UNL     1      -1.079  14.208  20.817  0.00  0.00    +0.000 S 
ENDBRANCH  23  26
ENDBRANCH  19  22
ENDBRANCH   1  16
TORSDOF 6
ENDMDL
MODEL 2
REMARK VINA RESULT:      -7.9      1.032      1.032
REMARK  Name = 
REMARK  8 active torsions:
REMARK  status: ('A' for Active; 'I' for Inactive)
REMARK    1  A    between atoms: C_1  and  O_2
REMARK    2  A    between atoms: O_2  and  C_3
REMARK    3  A    between atoms: C_9  and  O_10
REMARK    4  A    between atoms: O_10  and  C_11
REMARK    5  A    between atoms: C_14  and  N_15
REMARK    6  A    between atoms: C_16  and  C_18
REMARK    7  A    between atoms: C_27  and  O_28
REMARK    8  A    between atoms: O_28  and  C_29
REMARK                            x       y       z     vdW  Elec       q    Type
REMARK                         _______ _______ _______ _____ _____    ______ ____
ROOT
ATOM      1  O   UNL     1       2.557   5.896  20.066  0.00  0.00    +0.000 OA
ENDROOT
BRANCH   1   8
ATOM      2  C   UNL     1       6.298   4.709  16.665  0.00  0.00    +0.000 A 
ATOM      3  C   UNL     1       5.151   3.926  16.440  0.00  0.00    +0.000 A 
ATOM      4  C   UNL     1       4.000   4.039  17.207  0.00  0.00    +0.000 A 
ATOM      5  N   UNL     1       2.932   3.300  16.858  0.00  0.00    +0.000 NA
ATOM      6  C   UNL     1       1.793   3.450  17.564  0.00  0.00    +0.000 A 
ATOM      7  C   UNL     1       1.678   4.282  18.652  0.00  0.00    +0.000 A 
ATOM      8  C   UNL     1       2.798   5.013  19.040  0.00  0.00    +0.000 A 
ATOM      9  C   UNL     1       3.992   4.938  18.286  0.00  0.00    +0.000 A 
ATOM     10  C   UNL     1       5.154   5.705  18.523  0.00  0.00    +0.000 A 
ATOM     11  C   UNL     1       6.310   5.590  17.746  0.00  0.00    +0.000 A 
BRANCH   2  13
ATOM     12  C   UNL     1       7.147   4.775  14.463  0.00  0.00    +0.000 C 
ATOM     13  O   UNL     1       7.402   4.609  15.858  0.00  0.00    +0.000 OA
ENDBRANCH   2  13
BRANCH  11  14
ATOM     14  O   UNL     1       7.296   6.414  18.206  0.00  0.00    +0.000 OA
ATOM     15  C   UNL     1       7.541   7.658  17.580  0.00  0.00    +0.000 C 
ENDBRANCH  11  14
ENDBRANCH   1   8
BRANCH   1  16
ATOM     16  C   UNL     1       2.125   7.181  19.840  0.00  0.00    +0.000 A 
ATOM     17  C   UNL     1       1.523   7.778  20.945  0.00  0.00    +0.000 A 
ATOM     18  C   UNL     1       1.054   9.090  20.879  0.00  0.00    +0.000 A 
ATOM     19  C   UNL     1       1.176   9.827  19.702  0.00  0.00    +0.000 A 
ATOM     20  C   UNL     1       1.737   9.210  18.576  0.00  0.00    +0.000 A 
ATOM     21  C   UNL     1       2.248   7.904  18.653  0.00  0.00    +0.000 A 
BRANCH  19  22
ATOM     22  N   UNL     1       0.788  11.179  19.595  0.00  0.00    +0.000 N 
ATOM     23  C   UNL     1      -0.510  11.658  19.496  0.00  0.00    +0.000 C 
ATOM     24  O   UNL     1      -1.509  10.947  19.443  0.00  0.00    +0.000 OA
ATOM     25  H   UNL     1       1.507  11.876  19.747  0.00  0.00    +0.000 HD
BRANCH  23  26
ATOM     26  C   UNL     1      -0.635  13.114  19.506  0.00  0.00    +0.000 A 
ATOM     27  C   UNL     1       0.019  13.992  18.656  0.00  0.00    +0.000 A 
ATOM     28  C   UNL     1      -0.320  15.351  18.904  0.00  0.00    +0.000 A 
ATOM     29  C   UNL     1      -1.224  15.475  19.932  0.00  0.00    +0.000 A 
ATOM     30  S   UNL     1      -1.656  13.953  20.590  0.00  0.00    +0.000 S 
ENDBRANCH  23  26
ENDBRANCH  19  22
ENDBRANCH   1  16
TORSDOF 6
ENDMDL
MODEL 3
REMARK VINA RESULT:      -7.7      1.390      1.498
REMARK  Name = 
REMARK  8 active torsions:
REMARK  status: ('A' for Active; 'I' for Inactive)
REMARK    1  A    between atoms: C_1  and  O_2
REMARK    2  A    between atoms: O_2  and  C_3
REMARK    3  A    between atoms: C_9  and  O_10
REMARK    4  A    between atoms: O_10  and  C_11
REMARK    5  A    between atoms: C_14  and  N_15
REMARK    6  A    between atoms: C_16  and  C_18
REMARK    7  A    between atoms: C_27  and  O_28
REMARK    8  A    between atoms: O_28  and  C_29
REMARK                            x       y       z     vdW  Elec       q    Type
REMARK                         _______ _______ _______ _____ _____    ______ ____
ROOT
ATOM      1  O   UNL     1       3.368   6.361  19.695  0.00  0.00    +0.000 OA
ENDROOT
BRANCH   1   8
ATOM      2  C   UNL     1       6.117   4.725  15.605  0.00  0.00    +0.000 A 
ATOM      3  C   UNL     1       4.950   3.954  15.764  0.00  0.00    +0.000 A 
ATOM      4  C   UNL     1       4.034   4.177  16.781  0.00  0.00    +0.000 A 
ATOM      5  N   UNL     1       2.911   3.436  16.796  0.00  0.00    +0.000 NA
ATOM      6  C   UNL     1       1.990   3.689  17.747  0.00  0.00    +0.000 A 
ATOM      7  C   UNL     1       2.157   4.634  18.733  0.00  0.00    +0.000 A 
ATOM      8  C   UNL     1       3.339   5.370  18.743  0.00  0.00    +0.000 A 
ATOM      9  C   UNL     1       4.301   5.184  17.724  0.00  0.00    +0.000 A 
ATOM     10  C   UNL     1       5.484   5.940  17.574  0.00  0.00    +0.000 A 
ATOM     11  C   UNL     1       6.404   5.713  16.546  0.00  0.00    +0.000 A 
BRANCH   2  13
ATOM     12  C   UNL     1       6.398   3.879  13.419  0.00  0.00    +0.000 C 
ATOM     13  O   UNL     1       6.979   4.511  14.560  0.00  0.00    +0.000 OA
ENDBRANCH   2  13
BRANCH  11  14
ATOM     14  O   UNL     1       7.475   6.553  16.649  0.00  0.00    +0.000 OA
ATOM     15  C   UNL     1       7.458   7.625  17.571  0.00  0.00    +0.000 C 
ENDBRANCH  11  14
ENDBRANCH   1   8
BRANCH   1  16
ATOM     16  C   UNL     1       2.427   7.362  19.739  0.00  0.00    +0.000 A 
ATOM     17  C   UNL     1       1.733   7.434  20.945  0.00  0.00    +0.000 A 
ATOM     18  C   UNL     1       0.761   8.413  21.150  0.00  0.00    +0.000 A 
ATOM     19  C   UNL     1       0.464   9.338  20.150  0.00  0.00    +0.000 A 
ATOM     20  C   UNL     1       1.127   9.234  18.920  0.00  0.00    +0.000 A 
ATOM     21  C   UNL     1       2.135   8.276  18.726  0.00  0.00    +0.000 A 
BRANCH  19  22
ATOM     22  N   UNL     1      -0.454  10.394  20.325  0.00  0.00    +0.000 N 
ATOM     23  C   UNL     1      -0.208  11.603  20.958  0.00  0.00    +0.000 C 
ATOM     24  O   UNL     1       0.854  11.899  21.498  0.00  0.00    +0.000 OA
ATOM     25  H   UNL     1      -1.331  10.328  19.822  0.00  0.00    +0.000 HD
BRANCH  23  26
ATOM     26  C   UNL     1      -1.306  12.565  20.904  0.00  0.00    +0.000 A 
ATOM     27  C   UNL     1      -2.521  12.377  20.261  0.00  0.00    +0.000 A 
ATOM     28  C   UNL     1      -3.393  13.492  20.400  0.00  0.00    +0.000 A 
ATOM     29  C   UNL     1      -2.826  14.499  21.145  0.00  0.00    +0.000 A 
ATOM     30  S   UNL     1      -1.246  14.091  21.671  0.00  0.00    +0.000 S 
ENDBRANCH  23  26
ENDBRANCH  19  22
ENDBRANCH   1  16
TORSDOF 6
ENDMDL
MODEL 4
REMARK VINA RESULT:      -7.6      2.800      3.053
REMARK  Name = 
REMARK  8 active torsions:
REMARK  status: ('A' for Active; 'I' for Inactive)
REMARK    1  A    between atoms: C_1  and  O_2
REMARK    2  A    between atoms: O_2  and  C_3
REMARK    3  A    between atoms: C_9  and  O_10
REMARK    4  A    between atoms: O_10  and  C_11
REMARK    5  A    between atoms: C_14  and  N_15
REMARK    6  A    between atoms: C_16  and  C_18
REMARK    7  A    between atoms: C_27  and  O_28
REMARK    8  A    between atoms: O_28  and  C_29
REMARK                            x       y       z     vdW  Elec       q    Type
REMARK                         _______ _______ _______ _____ _____    ______ ____
ROOT
ATOM      1  O   UNL     1       2.925   7.549  19.526  0.00  0.00    +0.000 OA
ENDROOT
BRANCH   1   8
ATOM      2  C   UNL     1       5.693   4.656  16.219  0.00  0.00    +0.000 A 
ATOM      3  C   UNL     1       4.581   3.940  16.700  0.00  0.00    +0.000 A 
ATOM      4  C   UNL     1       3.672   4.477  17.600  0.00  0.00    +0.000 A 
ATOM      5  N   UNL     1       2.600   3.737  17.935  0.00  0.00    +0.000 NA
ATOM      6  C   UNL     1       1.683   4.277  18.762  0.00  0.00    +0.000 A 
ATOM      7  C   UNL     1       1.808   5.527  19.322  0.00  0.00    +0.000 A 
ATOM      8  C   UNL     1       2.940   6.275  19.009  0.00  0.00    +0.000 A 
ATOM      9  C   UNL     1       3.893   5.774  18.092  0.00  0.00    +0.000 A 
ATOM     10  C   UNL     1       5.022   6.480  17.625  0.00  0.00    +0.000 A 
ATOM     11  C   UNL     1       5.934   5.936  16.716  0.00  0.00    +0.000 A 
BRANCH   2  13
ATOM     12  C   UNL     1       6.035   4.062  13.959  0.00  0.00    +0.000 C 
ATOM     13  O   UNL     1       6.546   4.115  15.292  0.00  0.00    +0.000 OA
ENDBRANCH   2  13
BRANCH  11  14
ATOM     14  O   UNL     1       6.951   6.809  16.457  0.00  0.00    +0.000 OA
ATOM     15  C   UNL     1       7.583   7.507  17.511  0.00  0.00    +0.000 C 
ENDBRANCH  11  14
ENDBRANCH   1   8
BRANCH   1  16
ATOM     16  C   UNL     1       1.807   8.347  19.472  0.00  0.00    +0.000 A 
ATOM     17  C   UNL     1       1.546   8.871  18.209  0.00  0.00    +0.000 A 
ATOM     18  C   UNL     1       0.434   9.682  17.988  0.00  0.00    +0.000 A 
ATOM     19  C   UNL     1      -0.439   9.986  19.033  0.00  0.00    +0.000 A 
ATOM     20  C   UNL     1      -0.150   9.499  20.315  0.00  0.00    +0.000 A 
ATOM     21  C   UNL     1       0.947   8.648  20.529  0.00  0.00    +0.000 A 
BRANCH  19  22
ATOM     22  N   UNL     1      -1.619  10.738  18.857  0.00  0.00    +0.000 N 
ATOM     23  C   UNL     1      -2.637  10.474  17.953  0.00  0.00    +0.000 C 
ATOM     24  O   UNL     1      -2.623   9.553  17.142  0.00  0.00    +0.000 OA
ATOM     25  H   UNL     1      -1.812  11.456  19.545  0.00  0.00    +0.000 HD
BRANCH  23  26
ATOM     26  C   UNL     1      -3.799  11.355  18.055  0.00  0.00    +0.000 A 
ATOM     27  C   UNL     1      -4.732  11.589  17.055  0.00  0.00    +0.000 A 
ATOM     28  C   UNL     1      -5.758  12.486  17.462  0.00  0.00    +0.000 A 
ATOM     29  C   UNL     1      -5.585  12.911  18.758  0.00  0.00    +0.000 A 
ATOM     30  S   UNL     1      -4.187  12.225  19.473  0.00  0.00    +0.000 S 
ENDBRANCH  23  26
ENDBRANCH  19  22
ENDBRANCH   1  16
TORSDOF 6
ENDMDL
MODEL 5
REMARK VINA RESULT:      -7.5      2.463      2.747
REMARK  Name = 
REMARK  8 active torsions:
REMARK  status: ('A' for Active; 'I' for Inactive)
REMARK    1  A    between atoms: C_1  and  O_2
REMARK    2  A    between atoms: O_2  and  C_3
REMARK    3  A    between atoms: C_9  and  O_10
REMARK    4  A    between atoms: O_10  and  C_11
REMARK    5  A    between atoms: C_14  and  N_15
REMARK    6  A    between atoms: C_16  and  C_18
REMARK    7  A    between atoms: C_27  and  O_28
REMARK    8  A    between atoms: O_28  and  C_29
REMARK                            x       y       z     vdW  Elec       q    Type
REMARK                         _______ _______ _______ _____ _____    ______ ____
ROOT
ATOM      1  O   UNL     1       3.343   6.927  19.547  0.00  0.00    +0.000 OA
ENDROOT
BRANCH   1   8
ATOM      2  C   UNL     1       6.219   4.633  15.882  0.00  0.00    +0.000 A 
ATOM      3  C   UNL     1       5.041   3.901  16.124  0.00  0.00    +0.000 A 
ATOM      4  C   UNL     1       4.092   4.292  17.058  0.00  0.00    +0.000 A 
ATOM      5  N   UNL     1       2.964   3.566  17.155  0.00  0.00    +0.000 NA
ATOM      6  C   UNL     1       2.012   3.974  18.018  0.00  0.00    +0.000 A 
ATOM      7  C   UNL     1       2.153   5.068  18.840  0.00  0.00    +0.000 A 
ATOM      8  C   UNL     1       3.339   5.793  18.770  0.00  0.00    +0.000 A 
ATOM      9  C   UNL     1       4.335   5.439  17.831  0.00  0.00    +0.000 A 
ATOM     10  C   UNL     1       5.529   6.157  17.601  0.00  0.00    +0.000 A 
ATOM     11  C   UNL     1       6.481   5.762  16.657  0.00  0.00    +0.000 A 
BRANCH   2  13
ATOM     12  C   UNL     1       6.943   4.879  13.648  0.00  0.00    +0.000 C 
ATOM     13  O   UNL     1       7.115   4.248  14.918  0.00  0.00    +0.000 OA
ENDBRANCH   2  13
BRANCH  11  14
ATOM     14  O   UNL     1       7.554   6.605  16.659  0.00  0.00    +0.000 OA
ATOM     15  C   UNL     1       7.570   7.745  17.496  0.00  0.00    +0.000 C 
ENDBRANCH  11  14
ENDBRANCH   1   8
BRANCH   1  16
ATOM     16  C   UNL     1       2.263   7.775  19.610  0.00  0.00    +0.000 A 
ATOM     17  C   UNL     1       2.007   8.456  18.422  0.00  0.00    +0.000 A 
ATOM     18  C   UNL     1       0.930   9.336  18.322  0.00  0.00    +0.000 A 
ATOM     19  C   UNL     1       0.089   9.553  19.413  0.00  0.00    +0.000 A 
ATOM     20  C   UNL     1       0.375   8.905  20.622  0.00  0.00    +0.000 A 
ATOM     21  C   UNL     1       1.434   7.988  20.712  0.00  0.00    +0.000 A 
BRANCH  19  22
ATOM     22  N   UNL     1      -1.057  10.372  19.351  0.00  0.00    +0.000 N 
ATOM     23  C   UNL     1      -1.946  10.467  18.290  0.00  0.00    +0.000 C 
ATOM     24  O   UNL     1      -1.823   9.866  17.227  0.00  0.00    +0.000 OA
ATOM     25  H   UNL     1      -1.341  10.830  20.209  0.00  0.00    +0.000 HD
BRANCH  23  26
ATOM     26  C   UNL     1      -3.111  11.315  18.533  0.00  0.00    +0.000 A 
ATOM     27  C   UNL     1      -3.248  12.232  19.565  0.00  0.00    +0.000 A 
ATOM     28  C   UNL     1      -4.493  12.918  19.526  0.00  0.00    +0.000 A 
ATOM     29  C   UNL     1      -5.272  12.511  18.469  0.00  0.00    +0.000 A 
ATOM     30  S   UNL     1      -4.495  11.305  17.531  0.00  0.00    +0.000 S 
ENDBRANCH  23  26
ENDBRANCH  19  22
ENDBRANCH   1  16
TORSDOF 6
ENDMDL
MODEL 6
REMARK VINA RESULT:      -7.4      1.553      1.718
REMARK  Name = 
REMARK  8 active torsions:
REMARK  status: ('A' for Active; 'I' for Inactive)
REMARK    1  A    between atoms: C_1  and  O_2
REMARK    2  A    between atoms: O_2  and  C_3
REMARK    3  A    between atoms: C_9  and  O_10
REMARK    4  A    between atoms: O_10  and  C_11
REMARK    5  A    between atoms: C_14  and  N_15
REMARK    6  A    between atoms: C_16  and  C_18
REMARK    7  A    between atoms: C_27  and  O_28
REMARK    8  A    between atoms: O_28  and  C_29
REMARK                            x       y       z     vdW  Elec       q    Type
REMARK                         _______ _______ _______ _____ _____    ______ ____
ROOT
ATOM      1  O   UNL     1       2.974   6.184  19.988  0.00  0.00    +0.000 OA
ENDROOT
BRANCH   1   8
ATOM      2  C   UNL     1       5.913   4.272  16.157  0.00  0.00    +0.000 A 
ATOM      3  C   UNL     1       4.638   3.676  16.154  0.00  0.00    +0.000 A 
ATOM      4  C   UNL     1       3.652   4.004  17.074  0.00  0.00    +0.000 A 
ATOM      5  N   UNL     1       2.442   3.435  16.934  0.00  0.00    +0.000 NA
ATOM      6  C   UNL     1       1.463   3.795  17.789  0.00  0.00    +0.000 A 
ATOM      7  C   UNL     1       1.649   4.678  18.826  0.00  0.00    +0.000 A 
ATOM      8  C   UNL     1       2.914   5.234  18.997  0.00  0.00    +0.000 A 
ATOM      9  C   UNL     1       3.950   4.936  18.082  0.00  0.00    +0.000 A 
ATOM     10  C   UNL     1       5.238   5.514  18.095  0.00  0.00    +0.000 A 
ATOM     11  C   UNL     1       6.228   5.182  17.165  0.00  0.00    +0.000 A 
BRANCH   2  13
ATOM     12  C   UNL     1       6.857   4.821  14.063  0.00  0.00    +0.000 C 
ATOM     13  O   UNL     1       6.850   3.962  15.205  0.00  0.00    +0.000 OA
ENDBRANCH   2  13
BRANCH  11  14
ATOM     14  O   UNL     1       7.388   5.854  17.421  0.00  0.00    +0.000 OA
ATOM     15  C   UNL     1       7.390   7.263  17.538  0.00  0.00    +0.000 C 
ENDBRANCH  11  14
ENDBRANCH   1   8
BRANCH   1  16
ATOM     16  C   UNL     1       2.210   7.326  19.954  0.00  0.00    +0.000 A 
ATOM     17  C   UNL     1       1.470   7.547  21.113  0.00  0.00    +0.000 A 
ATOM     18  C   UNL     1       0.663   8.677  21.239  0.00  0.00    +0.000 A 
ATOM     19  C   UNL     1       0.581   9.608  20.205  0.00  0.00    +0.000 A 
ATOM     20  C   UNL     1       1.288   9.362  19.020  0.00  0.00    +0.000 A 
ATOM     21  C   UNL     1       2.133   8.246  18.907  0.00  0.00    +0.000 A 
BRANCH  19  22
ATOM     22  N   UNL     1      -0.158  10.805  20.302  0.00  0.00    +0.000 N 
ATOM     23  C   UNL     1      -1.310  11.122  19.596  0.00  0.00    +0.000 C 
ATOM     24  O   UNL     1      -1.821  10.401  18.745  0.00  0.00    +0.000 OA
ATOM     25  H   UNL     1       0.087  11.437  21.055  0.00  0.00    +0.000 HD
BRANCH  23  26
ATOM     26  C   UNL     1      -1.936  12.389  19.969  0.00  0.00    +0.000 A 
ATOM     27  C   UNL     1      -3.283  12.582  20.234  0.00  0.00    +0.000 A 
ATOM     28  C   UNL     1      -3.585  13.927  20.585  0.00  0.00    +0.000 A 
ATOM     29  C   UNL     1      -2.464  14.723  20.582  0.00  0.00    +0.000 A 
ATOM     30  S   UNL     1      -1.057  13.842  20.155  0.00  0.00    +0.000 S 
ENDBRANCH  23  26
ENDBRANCH  19  22
ENDBRANCH   1  16
TORSDOF 6
ENDMDL
MODEL 7
REMARK VINA RESULT:      -7.3      4.293      7.353
REMARK  Name = 
REMARK  8 active torsions:
REMARK  status: ('A' for Active; 'I' for Inactive)
REMARK    1  A    between atoms: C_1  and  O_2
REMARK    2  A    between atoms: O_2  and  C_3
REMARK    3  A    between atoms: C_9  and  O_10
REMARK    4  A    between atoms: O_10  and  C_11
REMARK    5  A    between atoms: C_14  and  N_15
REMARK    6  A    between atoms: C_16  and  C_18
REMARK    7  A    between atoms: C_27  and  O_28
REMARK    8  A    between atoms: O_28  and  C_29
REMARK                            x       y       z     vdW  Elec       q    Type
REMARK                         _______ _______ _______ _____ _____    ______ ____
ROOT
ATOM      1  O   UNL     1       5.288   4.542  17.798  0.00  0.00    +0.000 OA
ENDROOT
BRANCH   1   8
ATOM      2  C   UNL     1       1.457   6.740  20.530  0.00  0.00    +0.000 A 
ATOM      3  C   UNL     1       1.587   5.378  20.858  0.00  0.00    +0.000 A 
ATOM      4  C   UNL     1       2.536   4.550  20.274  0.00  0.00    +0.000 A 
ATOM      5  N   UNL     1       2.630   3.284  20.717  0.00  0.00    +0.000 NA
ATOM      6  C   UNL     1       3.589   2.493  20.194  0.00  0.00    +0.000 A 
ATOM      7  C   UNL     1       4.447   2.898  19.199  0.00  0.00    +0.000 A 
ATOM      8  C   UNL     1       4.320   4.195  18.710  0.00  0.00    +0.000 A 
ATOM      9  C   UNL     1       3.373   5.079  19.277  0.00  0.00    +0.000 A 
ATOM     10  C   UNL     1       3.223   6.440  18.934  0.00  0.00    +0.000 A 
ATOM     11  C   UNL     1       2.268   7.271  19.527  0.00  0.00    +0.000 A 
BRANCH   2  13
ATOM     12  C   UNL     1       1.103   8.621  21.912  0.00  0.00    +0.000 C 
ATOM     13  O   UNL     1       0.542   7.544  21.160  0.00  0.00    +0.000 OA
ENDBRANCH   2  13
BRANCH  11  14
ATOM     14  O   UNL     1       2.308   8.526  18.993  0.00  0.00    +0.000 OA
ATOM     15  C   UNL     1       2.303   8.710  17.591  0.00  0.00    +0.000 C 
ENDBRANCH  11  14
ENDBRANCH   1   8
BRANCH   1  16
ATOM     16  C   UNL     1       6.254   5.478  18.076  0.00  0.00    +0.000 A 
ATOM     17  C   UNL     1       6.217   6.596  17.247  0.00  0.00    +0.000 A 
ATOM     18  C   UNL     1       7.120   7.644  17.420  0.00  0.00    +0.000 A 
ATOM     19  C   UNL     1       8.082   7.590  18.428  0.00  0.00    +0.000 A 
ATOM     20  C   UNL     1       8.151   6.444  19.232  0.00  0.00    +0.000 A 
ATOM     21  C   UNL     1       7.216   5.407  19.085  0.00  0.00    +0.000 A 
BRANCH  19  22
ATOM     22  N   UNL     1       8.973   8.649  18.700  0.00  0.00    +0.000 N 
ATOM     23  C   UNL     1       8.788   9.985  18.378  0.00  0.00    +0.000 C 
ATOM     24  O   UNL     1       7.819  10.423  17.764  0.00  0.00    +0.000 OA
ATOM     25  H   UNL     1       9.757   8.445  19.308  0.00  0.00    +0.000 HD
BRANCH  23  26
ATOM     26  C   UNL     1       9.823  10.891  18.872  0.00  0.00    +0.000 A 
ATOM     27  C   UNL     1      10.059  11.207  20.202  0.00  0.00    +0.000 A 
ATOM     28  C   UNL     1      11.148  12.107  20.367  0.00  0.00    +0.000 A 
ATOM     29  C   UNL     1      11.715  12.453  19.163  0.00  0.00    +0.000 A 
ATOM     30  S   UNL     1      10.930  11.689  17.845  0.00  0.00    +0.000 S 
ENDBRANCH  23  26
ENDBRANCH  19  22
ENDBRANCH   1  16
TORSDOF 6
ENDMDL
MODEL 8
REMARK VINA RESULT:      -7.2      4.264      9.764
REMARK  Name = 
REMARK  8 active torsions:
REMARK  status: ('A' for Active; 'I' for Inactive)
REMARK    1  A    between atoms: C_1  and  O_2
REMARK    2  A    between atoms: O_2  and  C_3
REMARK    3  A    between atoms: C_9  and  O_10
REMARK    4  A    between atoms: O_10  and  C_11
REMARK    5  A    between atoms: C_14  and  N_15
REMARK    6  A    between atoms: C_16  and  C_18
REMARK    7  A    between atoms: C_27  and  O_28
REMARK    8  A    between atoms: O_28  and  C_29
REMARK                            x       y       z     vdW  Elec       q    Type
REMARK                         _______ _______ _______ _____ _____    ______ ____
ROOT
ATOM      1  O   UNL     1       1.019  11.152  19.096  0.00  0.00    +0.000 OA
ENDROOT
BRANCH   1   8
ATOM      2  C   UNL     1      -3.990  11.193  17.726  0.00  0.00    +0.000 A 
ATOM      3  C   UNL     1      -3.794  11.900  18.927  0.00  0.00    +0.000 A 
ATOM      4  C   UNL     1      -2.548  12.045  19.521  0.00  0.00    +0.000 A 
ATOM      5  N   UNL     1      -2.458  12.806  20.625  0.00  0.00    +0.000 NA
ATOM      6  C   UNL     1      -1.241  12.999  21.172  0.00  0.00    +0.000 A 
ATOM      7  C   UNL     1      -0.092  12.420  20.688  0.00  0.00    +0.000 A 
ATOM      8  C   UNL     1      -0.192  11.596  19.570  0.00  0.00    +0.000 A 
ATOM      9  C   UNL     1      -1.439  11.421  18.926  0.00  0.00    +0.000 A 
ATOM     10  C   UNL     1      -1.644  10.695  17.733  0.00  0.00    +0.000 A 
ATOM     11  C   UNL     1      -2.900  10.553  17.137  0.00  0.00    +0.000 A 
BRANCH   2  13
ATOM     12  C   UNL     1      -6.106  12.197  17.425  0.00  0.00    +0.000 C 
ATOM     13  O   UNL     1      -5.226  11.109  17.138  0.00  0.00    +0.000 OA
ENDBRANCH   2  13
BRANCH  11  14
ATOM     14  O   UNL     1      -2.829   9.776  16.017  0.00  0.00    +0.000 OA
ATOM     15  C   UNL     1      -3.038  10.340  14.738  0.00  0.00    +0.000 C 
ENDBRANCH  11  14
ENDBRANCH   1   8
BRANCH   1  16
ATOM     16  C   UNL     1       1.388   9.830  19.155  0.00  0.00    +0.000 A 
ATOM     17  C   UNL     1       1.849   9.315  17.946  0.00  0.00    +0.000 A 
ATOM     18  C   UNL     1       2.281   7.993  17.851  0.00  0.00    +0.000 A 
ATOM     19  C   UNL     1       2.259   7.159  18.969  0.00  0.00    +0.000 A 
ATOM     20  C   UNL     1       1.750   7.662  20.174  0.00  0.00    +0.000 A 
ATOM     21  C   UNL     1       1.353   9.005  20.281  0.00  0.00    +0.000 A 
BRANCH  19  22
ATOM     22  N   UNL     1       2.752   5.838  18.954  0.00  0.00    +0.000 N 
ATOM     23  C   UNL     1       2.079   4.703  19.382  0.00  0.00    +0.000 C 
ATOM     24  O   UNL     1       0.957   4.709  19.879  0.00  0.00    +0.000 OA
ATOM     25  H   UNL     1       3.620   5.677  18.458  0.00  0.00    +0.000 HD
BRANCH  23  26
ATOM     26  C   UNL     1       2.783   3.443  19.155  0.00  0.00    +0.000 A 
ATOM     27  C   UNL     1       2.742   2.687  17.993  0.00  0.00    +0.000 A 
ATOM     28  C   UNL     1       3.546   1.517  18.072  0.00  0.00    +0.000 A 
ATOM     29  C   UNL     1       4.181   1.410  19.287  0.00  0.00    +0.000 A 
ATOM     30  S   UNL     1       3.802   2.722  20.322  0.00  0.00    +0.000 S 
ENDBRANCH  23  26
ENDBRANCH  19  22
ENDBRANCH   1  16
TORSDOF 6
ENDMDL
MODEL 9
REMARK VINA RESULT:      -7.1      1.919      2.109
REMARK  Name = 
REMARK  8 active torsions:
REMARK  status: ('A' for Active; 'I' for Inactive)
REMARK    1  A    between atoms: C_1  and  O_2
REMARK    2  A    between atoms: O_2  and  C_3
REMARK    3  A    between atoms: C_9  and  O_10
REMARK    4  A    between atoms: O_10  and  C_11
REMARK    5  A    between atoms: C_14  and  N_15
REMARK    6  A    between atoms: C_16  and  C_18
REMARK    7  A    between atoms: C_27  and  O_28
REMARK    8  A    between atoms: O_28  and  C_29
REMARK                            x       y       z     vdW  Elec       q    Type
REMARK                         _______ _______ _______ _____ _____    ______ ____
ROOT
ATOM      1  O   UNL     1       3.101   7.652  19.017  0.00  0.00    +0.000 OA
ENDROOT
BRANCH   1   8
ATOM      2  C   UNL     1       6.052   4.659  15.967  0.00  0.00    +0.000 A 
ATOM      3  C   UNL     1       4.838   4.016  16.274  0.00  0.00    +0.000 A 
ATOM      4  C   UNL     1       3.863   4.594  17.074  0.00  0.00    +0.000 A 
ATOM      5  N   UNL     1       2.705   3.930  17.241  0.00  0.00    +0.000 NA
ATOM      6  C   UNL     1       1.732   4.512  17.969  0.00  0.00    +0.000 A 
ATOM      7  C   UNL     1       1.876   5.731  18.591  0.00  0.00    +0.000 A 
ATOM      8  C   UNL     1       3.090   6.398  18.454  0.00  0.00    +0.000 A 
ATOM      9  C   UNL     1       4.113   5.853  17.644  0.00  0.00    +0.000 A 
ATOM     10  C   UNL     1       5.342   6.484  17.351  0.00  0.00    +0.000 A 
ATOM     11  C   UNL     1       6.321   5.900  16.542  0.00  0.00    +0.000 A 
BRANCH   2  13
ATOM     12  C   UNL     1       6.657   4.150  13.742  0.00  0.00    +0.000 C 
ATOM     13  O   UNL     1       6.975   4.083  15.133  0.00  0.00    +0.000 OA
ENDBRANCH   2  13
BRANCH  11  14
ATOM     14  O   UNL     1       7.423   6.699  16.449  0.00  0.00    +0.000 OA
ATOM     15  C   UNL     1       7.714   7.641  17.463  0.00  0.00    +0.000 C 
ENDBRANCH  11  14
ENDBRANCH   1   8
BRANCH   1  16
ATOM     16  C   UNL     1       1.966   8.420  19.115  0.00  0.00    +0.000 A 
ATOM     17  C   UNL     1       1.412   8.453  20.392  0.00  0.00    +0.000 A 
ATOM     18  C   UNL     1       0.270   9.209  20.655  0.00  0.00    +0.000 A 
ATOM     19  C   UNL     1      -0.340   9.946  19.641  0.00  0.00    +0.000 A 
ATOM     20  C   UNL     1       0.189   9.875  18.345  0.00  0.00    +0.000 A 
ATOM     21  C   UNL     1       1.362   9.147  18.088  0.00  0.00    +0.000 A 
BRANCH  19  22
ATOM     22  N   UNL     1      -1.451  10.786  19.861  0.00  0.00    +0.000 N 
ATOM     23  C   UNL     1      -1.417  12.154  20.091  0.00  0.00    +0.000 C 
ATOM     24  O   UNL     1      -0.388  12.817  20.175  0.00  0.00    +0.000 OA
ATOM     25  H   UNL     1      -2.368  10.387  19.699  0.00  0.00    +0.000 HD
BRANCH  23  26
ATOM     26  C   UNL     1      -2.725  12.799  20.180  0.00  0.00    +0.000 A 
ATOM     27  C   UNL     1      -3.901  12.336  19.609  0.00  0.00    +0.000 A 
ATOM     28  C   UNL     1      -5.014  13.177  19.886  0.00  0.00    +0.000 A 
ATOM     29  C   UNL     1      -4.662  14.257  20.662  0.00  0.00    +0.000 A 
ATOM     30  S   UNL     1      -2.992  14.246  21.049  0.00  0.00    +0.000 S 
ENDBRANCH  23  26
ENDBRANCH  19  22
ENDBRANCH   1  16
TORSDOF 6
ENDMDL
