MODEL 1
REMARK VINA RESULT:      -9.4      0.000      0.000
REMARK  Name = 
REMARK  5 active torsions:
REMARK  status: ('A' for Active; 'I' for Inactive)
REMARK    1  A    between atoms: C_1  and  C_2
REMARK    2  A    between atoms: C_6  and  N_7
REMARK    3  A    between atoms: C_8  and  S_9
REMARK    4  A    between atoms: S_9  and  C_10
REMARK    5  A    between atoms: C_10  and  C_11
REMARK                            x       y       z     vdW  Elec       q    Type
REMARK                         _______ _______ _______ _____ _____    ______ ____
ROOT
ATOM      1  N   UNL     1       4.181   5.120  18.304  0.00  0.00    +0.000 N 
ATOM      2  C   UNL     1       3.098   6.044  18.493  0.00  0.00    +0.000 A 
ATOM      3  N   UNL     1       2.143   5.786  19.329  0.00  0.00    +0.000 NA
ATOM      4  C   UNL     1       2.193   4.544  20.069  0.00  0.00    +0.000 A 
ATOM      5  C   UNL     1       1.164   4.169  20.952  0.00  0.00    +0.000 A 
ATOM      6  C   UNL     1       1.215   2.970  21.708  0.00  0.00    +0.000 A 
ATOM      7  C   UNL     1       2.299   2.106  21.606  0.00  0.00    +0.000 A 
ATOM      8  C   UNL     1       3.321   2.435  20.731  0.00  0.00    +0.000 A 
ATOM      9  C   UNL     1       3.248   3.635  19.976  0.00  0.00    +0.000 A 
ATOM     10  C   UNL     1       4.318   3.945  19.050  0.00  0.00    +0.000 A 
ATOM     11  O   UNL     1       5.272   3.167  19.007  0.00  0.00    +0.000 OA
ENDROOT
BRANCH   1  17
ATOM     12  C   UNL     1       6.251   4.134  14.000  0.00  0.00    +0.000 C 
ATOM     13  C   UNL     1       6.278   4.920  15.264  0.00  0.00    +0.000 A 
ATOM     14  C   UNL     1       7.372   5.679  15.660  0.00  0.00    +0.000 A 
ATOM     15  C   UNL     1       7.388   6.331  16.897  0.00  0.00    +0.000 A 
ATOM     16  C   UNL     1       6.327   6.156  17.773  0.00  0.00    +0.000 A 
ATOM     17  C   UNL     1       5.239   5.346  17.396  0.00  0.00    +0.000 A 
ATOM     18  C   UNL     1       5.186   4.823  16.111  0.00  0.00    +0.000 A 
ENDBRANCH   1  17
BRANCH   2  19
ATOM     19  S   UNL     1       3.199   7.592  17.442  0.00  0.00    +0.000 S 
BRANCH  19  20
ATOM     20  C   UNL     1       2.441   8.979  18.240  0.00  0.00    +0.000 C 
BRANCH  20  21
ATOM     21  C   UNL     1       0.912   9.363  18.223  0.00  0.00    +0.000 C 
ATOM     22  O   UNL     1       0.396   9.070  17.115  0.00  0.00    +0.000 OA
ATOM     23  N   UNL     1       0.086  10.116  19.067  0.00  0.00    +0.000 N 
ATOM     24  C   UNL     1      -0.976  10.862  18.326  0.00  0.00    +0.000 C 
ATOM     25  C   UNL     1      -1.117  12.235  18.938  0.00  0.00    +0.000 C 
ATOM     26  O   UNL     1      -0.781  13.280  18.400  0.00  0.00    +0.000 OA
ATOM     27  N   UNL     1      -1.606  12.180  20.227  0.00  0.00    +0.000 N 
ATOM     28  C   UNL     1      -0.942  11.233  21.050  0.00  0.00    +0.000 A 
ATOM     29  C   UNL     1      -1.192  11.412  22.414  0.00  0.00    +0.000 A 
ATOM     30  C   UNL     1      -0.819  10.418  23.293  0.00  0.00    +0.000 A 
ATOM     31  C   UNL     1      -0.291   9.236  22.773  0.00  0.00    +0.000 A 
ATOM     32  C   UNL     1       0.051   9.099  21.396  0.00  0.00    +0.000 A 
ATOM     33  C   UNL     1      -0.176  10.144  20.504  0.00  0.00    +0.000 A 
ATOM     34  H   UNL     1      -2.589  11.935  20.230  0.00  0.00    +0.000 HD
ENDBRANCH  20  21
ENDBRANCH  19  20
ENDBRANCH   2  19
TORSDOF 4
ENDMDL
MODEL 2
REMARK VINA RESULT:      -9.2      0.490      1.350
REMARK  Name = 
REMARK  5 active torsions:
REMARK  status: ('A' for Active; 'I' for Inactive)
REMARK    1  A    between atoms: C_1  and  C_2
REMARK    2  A    between atoms: C_6  and  N_7
REMARK    3  A    between atoms: C_8  and  S_9
REMARK    4  A    between atoms: S_9  and  C_10
REMARK    5  A    between atoms: C_10  and  C_11
REMARK                            x       y       z     vdW  Elec       q    Type
REMARK                         _______ _______ _______ _____ _____    ______ ____
ROOT
ATOM      1  N   UNL     1       4.225   5.269  18.460  0.00  0.00    +0.000 N 
ATOM      2  C   UNL     1       3.028   6.061  18.492  0.00  0.00    +0.000 A 
ATOM      3  N   UNL     1       2.013   5.701  19.212  0.00  0.00    +0.000 NA
ATOM      4  C   UNL     1       2.114   4.483  19.985  0.00  0.00    +0.000 A 
ATOM      5  C   UNL     1       1.034   3.999  20.746  0.00  0.00    +0.000 A 
ATOM      6  C   UNL     1       1.130   2.824  21.534  0.00  0.00    +0.000 A 
ATOM      7  C   UNL     1       2.311   2.093  21.587  0.00  0.00    +0.000 A 
ATOM      8  C   UNL     1       3.388   2.530  20.834  0.00  0.00    +0.000 A 
ATOM      9  C   UNL     1       3.271   3.704  20.045  0.00  0.00    +0.000 A 
ATOM     10  C   UNL     1       4.404   4.128  19.248  0.00  0.00    +0.000 A 
ATOM     11  O   UNL     1       5.440   3.468  19.341  0.00  0.00    +0.000 OA
ENDROOT
BRANCH   1  17
ATOM     12  C   UNL     1       8.088   8.166  17.778  0.00  0.00    +0.000 C 
ATOM     13  C   UNL     1       7.295   6.991  17.325  0.00  0.00    +0.000 A 
ATOM     14  C   UNL     1       7.493   6.372  16.097  0.00  0.00    +0.000 A 
ATOM     15  C   UNL     1       6.668   5.326  15.674  0.00  0.00    +0.000 A 
ATOM     16  C   UNL     1       5.588   4.950  16.460  0.00  0.00    +0.000 A 
ATOM     17  C   UNL     1       5.354   5.609  17.682  0.00  0.00    +0.000 A 
ATOM     18  C   UNL     1       6.267   6.549  18.141  0.00  0.00    +0.000 A 
ENDBRANCH   1  17
BRANCH   2  19
ATOM     19  S   UNL     1       3.078   7.598  17.421  0.00  0.00    +0.000 S 
BRANCH  19  20
ATOM     20  C   UNL     1       2.362   8.994  18.241  0.00  0.00    +0.000 C 
BRANCH  20  21
ATOM     21  C   UNL     1       0.848   9.431  18.225  0.00  0.00    +0.000 C 
ATOM     22  O   UNL     1       0.327   9.172  17.110  0.00  0.00    +0.000 OA
ATOM     23  N   UNL     1       0.044  10.200  19.076  0.00  0.00    +0.000 N 
ATOM     24  C   UNL     1      -0.988  10.992  18.342  0.00  0.00    +0.000 C 
ATOM     25  C   UNL     1      -1.084  12.361  18.974  0.00  0.00    +0.000 C 
ATOM     26  O   UNL     1      -0.710  13.401  18.452  0.00  0.00    +0.000 OA
ATOM     27  N   UNL     1      -1.580  12.304  20.261  0.00  0.00    +0.000 N 
ATOM     28  C   UNL     1      -0.953  11.322  21.071  0.00  0.00    +0.000 A 
ATOM     29  C   UNL     1      -1.202  11.489  22.437  0.00  0.00    +0.000 A 
ATOM     30  C   UNL     1      -0.867  10.471  23.302  0.00  0.00    +0.000 A 
ATOM     31  C   UNL     1      -0.378   9.279  22.767  0.00  0.00    +0.000 A 
ATOM     32  C   UNL     1      -0.034   9.151  21.390  0.00  0.00    +0.000 A 
ATOM     33  C   UNL     1      -0.222  10.215  20.513  0.00  0.00    +0.000 A 
ATOM     34  H   UNL     1      -2.571  12.092  20.256  0.00  0.00    +0.000 HD
ENDBRANCH  20  21
ENDBRANCH  19  20
ENDBRANCH   2  19
TORSDOF 4
ENDMDL
MODEL 3
REMARK VINA RESULT:      -9.1      1.457      2.248
REMARK  Name = 
REMARK  5 active torsions:
REMARK  status: ('A' for Active; 'I' for Inactive)
REMARK    1  A    between atoms: C_1  and  C_2
REMARK    2  A    between atoms: C_6  and  N_7
REMARK    3  A    between atoms: C_8  and  S_9
REMARK    4  A    between atoms: S_9  and  C_10
REMARK    5  A    between atoms: C_10  and  C_11
REMARK                            x       y       z     vdW  Elec       q    Type
REMARK                         _______ _______ _______ _____ _____    ______ ____
ROOT
ATOM      1  N   UNL     1       4.153   5.227  18.407  0.00  0.00    +0.000 N 
ATOM      2  C   UNL     1       3.036   6.105  18.611  0.00  0.00    +0.000 A 
ATOM      3  N   UNL     1       2.081   5.787  19.427  0.00  0.00    +0.000 NA
ATOM      4  C   UNL     1       2.167   4.524  20.128  0.00  0.00    +0.000 A 
ATOM      5  C   UNL     1       1.142   4.085  20.985  0.00  0.00    +0.000 A 
ATOM      6  C   UNL     1       1.228   2.865  21.704  0.00  0.00    +0.000 A 
ATOM      7  C   UNL     1       2.344   2.044  21.589  0.00  0.00    +0.000 A 
ATOM      8  C   UNL     1       3.362   2.437  20.737  0.00  0.00    +0.000 A 
ATOM      9  C   UNL     1       3.255   3.657  20.020  0.00  0.00    +0.000 A 
ATOM     10  C   UNL     1       4.324   4.035  19.117  0.00  0.00    +0.000 A 
ATOM     11  O   UNL     1       5.306   3.293  19.062  0.00  0.00    +0.000 OA
ENDROOT
BRANCH   1  17
ATOM     12  C   UNL     1       6.315   4.441  14.107  0.00  0.00    +0.000 C 
ATOM     13  C   UNL     1       6.295   5.193  15.392  0.00  0.00    +0.000 A 
ATOM     14  C   UNL     1       7.352   5.984  15.823  0.00  0.00    +0.000 A 
ATOM     15  C   UNL     1       7.327   6.602  17.077  0.00  0.00    +0.000 A 
ATOM     16  C   UNL     1       6.262   6.361  17.934  0.00  0.00    +0.000 A 
ATOM     17  C   UNL     1       5.213   5.520  17.520  0.00  0.00    +0.000 A 
ATOM     18  C   UNL     1       5.197   5.030  16.220  0.00  0.00    +0.000 A 
ENDBRANCH   1  17
BRANCH   2  19
ATOM     19  S   UNL     1       3.093   7.689  17.611  0.00  0.00    +0.000 S 
BRANCH  19  20
ATOM     20  C   UNL     1       1.579   8.599  17.733  0.00  0.00    +0.000 C 
BRANCH  20  21
ATOM     21  C   UNL     1       1.415  10.121  18.104  0.00  0.00    +0.000 C 
ATOM     22  O   UNL     1       2.522  10.713  18.034  0.00  0.00    +0.000 OA
ATOM     23  N   UNL     1       0.385  10.883  18.671  0.00  0.00    +0.000 N 
ATOM     24  C   UNL     1       0.889  11.985  19.544  0.00  0.00    +0.000 C 
ATOM     25  C   UNL     1       0.009  12.074  20.768  0.00  0.00    +0.000 C 
ATOM     26  O   UNL     1       0.351  11.766  21.900  0.00  0.00    +0.000 OA
ATOM     27  N   UNL     1      -1.274  12.474  20.455  0.00  0.00    +0.000 N 
ATOM     28  C   UNL     1      -1.846  11.764  19.367  0.00  0.00    +0.000 A 
ATOM     29  C   UNL     1      -3.232  11.920  19.270  0.00  0.00    +0.000 A 
ATOM     30  C   UNL     1      -3.869  11.497  18.124  0.00  0.00    +0.000 A 
ATOM     31  C   UNL     1      -3.090  11.015  17.071  0.00  0.00    +0.000 A 
ATOM     32  C   UNL     1      -1.694  10.768  17.212  0.00  0.00    +0.000 A 
ATOM     33  C   UNL     1      -1.044  11.046  18.412  0.00  0.00    +0.000 A 
ATOM     34  H   UNL     1      -1.295  13.457  20.209  0.00  0.00    +0.000 HD
ENDBRANCH  20  21
ENDBRANCH  19  20
ENDBRANCH   2  19
TORSDOF 4
ENDMDL
MODEL 4
REMARK VINA RESULT:      -9.0      1.572      2.599
REMARK  Name = 
REMARK  5 active torsions:
REMARK  status: ('A' for Active; 'I' for Inactive)
REMARK    1  A    between atoms: C_1  and  C_2
REMARK    2  A    between atoms: C_6  and  N_7
REMARK    3  A    between atoms: C_8  and  S_9
REMARK    4  A    between atoms: S_9  and  C_10
REMARK    5  A    between atoms: C_10  and  C_11
REMARK                            x       y       z     vdW  Elec       q    Type
REMARK                         _______ _______ _______ _____ _____    ______ ____
ROOT
ATOM      1  N   UNL     1       4.211   5.346  18.534  0.00  0.00    +0.000 N 
ATOM      2  C   UNL     1       3.028   6.153  18.642  0.00  0.00    +0.000 A 
ATOM      3  N   UNL     1       2.033   5.776  19.381  0.00  0.00    +0.000 NA
ATOM      4  C   UNL     1       2.141   4.523  20.095  0.00  0.00    +0.000 A 
ATOM      5  C   UNL     1       1.080   4.021  20.870  0.00  0.00    +0.000 A 
ATOM      6  C   UNL     1       1.184   2.810  21.601  0.00  0.00    +0.000 A 
ATOM      7  C   UNL     1       2.355   2.060  21.580  0.00  0.00    +0.000 A 
ATOM      8  C   UNL     1       3.412   2.516  20.810  0.00  0.00    +0.000 A 
ATOM      9  C   UNL     1       3.287   3.725  20.079  0.00  0.00    +0.000 A 
ATOM     10  C   UNL     1       4.399   4.168  19.263  0.00  0.00    +0.000 A 
ATOM     11  O   UNL     1       5.426   3.490  19.290  0.00  0.00    +0.000 OA
ENDROOT
BRANCH   1  17
ATOM     12  C   UNL     1       8.094   8.215  17.847  0.00  0.00    +0.000 C 
ATOM     13  C   UNL     1       7.268   7.073  17.370  0.00  0.00    +0.000 A 
ATOM     14  C   UNL     1       7.414   6.507  16.109  0.00  0.00    +0.000 A 
ATOM     15  C   UNL     1       6.558   5.493  15.669  0.00  0.00    +0.000 A 
ATOM     16  C   UNL     1       5.500   5.098  16.475  0.00  0.00    +0.000 A 
ATOM     17  C   UNL     1       5.318   5.704  17.732  0.00  0.00    +0.000 A 
ATOM     18  C   UNL     1       6.261   6.609  18.201  0.00  0.00    +0.000 A 
ENDBRANCH   1  17
BRANCH   2  19
ATOM     19  S   UNL     1       3.067   7.736  17.640  0.00  0.00    +0.000 S 
BRANCH  19  20
ATOM     20  C   UNL     1       1.552   8.641  17.782  0.00  0.00    +0.000 C 
BRANCH  20  21
ATOM     21  C   UNL     1       1.390  10.176  18.101  0.00  0.00    +0.000 C 
ATOM     22  O   UNL     1       2.488  10.773  17.959  0.00  0.00    +0.000 OA
ATOM     23  N   UNL     1       0.380  10.951  18.684  0.00  0.00    +0.000 N 
ATOM     24  C   UNL     1       0.912  12.091  19.489  0.00  0.00    +0.000 C 
ATOM     25  C   UNL     1       0.086  12.221  20.747  0.00  0.00    +0.000 C 
ATOM     26  O   UNL     1       0.481  11.961  21.874  0.00  0.00    +0.000 OA
ATOM     27  N   UNL     1      -1.213  12.600  20.477  0.00  0.00    +0.000 N 
ATOM     28  C   UNL     1      -1.826  11.844  19.444  0.00  0.00    +0.000 A 
ATOM     29  C   UNL     1      -3.216  11.985  19.403  0.00  0.00    +0.000 A 
ATOM     30  C   UNL     1      -3.900  11.512  18.304  0.00  0.00    +0.000 A 
ATOM     31  C   UNL     1      -3.164  10.996  17.237  0.00  0.00    +0.000 A 
ATOM     32  C   UNL     1      -1.761  10.764  17.325  0.00  0.00    +0.000 A 
ATOM     33  C   UNL     1      -1.061  11.094  18.482  0.00  0.00    +0.000 A 
ATOM     34  H   UNL     1      -1.254  13.572  20.194  0.00  0.00    +0.000 HD
ENDBRANCH  20  21
ENDBRANCH  19  20
ENDBRANCH   2  19
TORSDOF 4
ENDMDL
MODEL 5
REMARK VINA RESULT:      -8.7      1.700      2.521
REMARK  Name = 
REMARK  5 active torsions:
REMARK  status: ('A' for Active; 'I' for Inactive)
REMARK    1  A    between atoms: C_1  and  C_2
REMARK    2  A    between atoms: C_6  and  N_7
REMARK    3  A    between atoms: C_8  and  S_9
REMARK    4  A    between atoms: S_9  and  C_10
REMARK    5  A    between atoms: C_10  and  C_11
REMARK                            x       y       z     vdW  Elec       q    Type
REMARK                         _______ _______ _______ _____ _____    ______ ____
ROOT
ATOM      1  N   UNL     1       4.166   5.302  18.372  0.00  0.00    +0.000 N 
ATOM      2  C   UNL     1       3.048   6.185  18.554  0.00  0.00    +0.000 A 
ATOM      3  N   UNL     1       2.074   5.869  19.347  0.00  0.00    +0.000 NA
ATOM      4  C   UNL     1       2.139   4.605  20.047  0.00  0.00    +0.000 A 
ATOM      5  C   UNL     1       1.093   4.169  20.881  0.00  0.00    +0.000 A 
ATOM      6  C   UNL     1       1.157   2.947  21.599  0.00  0.00    +0.000 A 
ATOM      7  C   UNL     1       2.271   2.121  21.506  0.00  0.00    +0.000 A 
ATOM      8  C   UNL     1       3.310   2.511  20.678  0.00  0.00    +0.000 A 
ATOM      9  C   UNL     1       3.225   3.733  19.961  0.00  0.00    +0.000 A 
ATOM     10  C   UNL     1       4.315   4.108  19.084  0.00  0.00    +0.000 A 
ATOM     11  O   UNL     1       5.294   3.362  19.048  0.00  0.00    +0.000 OA
ENDROOT
BRANCH   1  17
ATOM     12  C   UNL     1       6.447   4.477  14.142  0.00  0.00    +0.000 C 
ATOM     13  C   UNL     1       6.387   5.245  15.415  0.00  0.00    +0.000 A 
ATOM     14  C   UNL     1       7.426   6.050  15.863  0.00  0.00    +0.000 A 
ATOM     15  C   UNL     1       7.363   6.686  17.107  0.00  0.00    +0.000 A 
ATOM     16  C   UNL     1       6.278   6.447  17.939  0.00  0.00    +0.000 A 
ATOM     17  C   UNL     1       5.246   5.592  17.509  0.00  0.00    +0.000 A 
ATOM     18  C   UNL     1       5.268   5.085  16.217  0.00  0.00    +0.000 A 
ENDBRANCH   1  17
BRANCH   2  19
ATOM     19  S   UNL     1       3.135   7.770  17.558  0.00  0.00    +0.000 S 
BRANCH  19  20
ATOM     20  C   UNL     1       1.684   8.762  17.773  0.00  0.00    +0.000 C 
BRANCH  20  21
ATOM     21  C   UNL     1       1.273   9.576  19.059  0.00  0.00    +0.000 C 
ATOM     22  O   UNL     1       1.116   8.803  20.038  0.00  0.00    +0.000 OA
ATOM     23  N   UNL     1       0.863  10.895  19.289  0.00  0.00    +0.000 N 
ATOM     24  C   UNL     1      -0.139  11.008  20.392  0.00  0.00    +0.000 C 
ATOM     25  C   UNL     1      -1.189  12.016  19.989  0.00  0.00    +0.000 C 
ATOM     26  O   UNL     1      -2.348  11.746  19.709  0.00  0.00    +0.000 OA
ATOM     27  N   UNL     1      -0.673  13.292  19.894  0.00  0.00    +0.000 N 
ATOM     28  C   UNL     1       0.533  13.367  19.149  0.00  0.00    +0.000 A 
ATOM     29  C   UNL     1       0.868  14.669  18.765  0.00  0.00    +0.000 A 
ATOM     30  C   UNL     1       2.128  14.910  18.264  0.00  0.00    +0.000 A 
ATOM     31  C   UNL     1       3.048  13.860  18.248  0.00  0.00    +0.000 A 
ATOM     32  C   UNL     1       2.672  12.518  18.547  0.00  0.00    +0.000 A 
ATOM     33  C   UNL     1       1.364  12.215  18.915  0.00  0.00    +0.000 A 
ATOM     34  H   UNL     1      -0.476  13.671  20.813  0.00  0.00    +0.000 HD
ENDBRANCH  20  21
ENDBRANCH  19  20
ENDBRANCH   2  19
TORSDOF 4
ENDMDL
MODEL 6
REMARK VINA RESULT:      -8.6      1.780      2.880
REMARK  Name = 
REMARK  5 active torsions:
REMARK  status: ('A' for Active; 'I' for Inactive)
REMARK    1  A    between atoms: C_1  and  C_2
REMARK    2  A    between atoms: C_6  and  N_7
REMARK    3  A    between atoms: C_8  and  S_9
REMARK    4  A    between atoms: S_9  and  C_10
REMARK    5  A    between atoms: C_10  and  C_11
REMARK                            x       y       z     vdW  Elec       q    Type
REMARK                         _______ _______ _______ _____ _____    ______ ____
ROOT
ATOM      1  N   UNL     1       4.223   5.437  18.501  0.00  0.00    +0.000 N 
ATOM      2  C   UNL     1       3.052   6.260  18.614  0.00  0.00    +0.000 A 
ATOM      3  N   UNL     1       2.044   5.885  19.337  0.00  0.00    +0.000 NA
ATOM      4  C   UNL     1       2.127   4.617  20.029  0.00  0.00    +0.000 A 
ATOM      5  C   UNL     1       1.051   4.118  20.786  0.00  0.00    +0.000 A 
ATOM      6  C   UNL     1       1.130   2.892  21.495  0.00  0.00    +0.000 A 
ATOM      7  C   UNL     1       2.289   2.126  21.472  0.00  0.00    +0.000 A 
ATOM      8  C   UNL     1       3.360   2.578  20.719  0.00  0.00    +0.000 A 
ATOM      9  C   UNL     1       3.260   3.803  20.009  0.00  0.00    +0.000 A 
ATOM     10  C   UNL     1       4.386   4.243  19.211  0.00  0.00    +0.000 A 
ATOM     11  O   UNL     1       5.403   3.549  19.235  0.00  0.00    +0.000 OA
ENDROOT
BRANCH   1  17
ATOM     12  C   UNL     1       8.145   8.270  17.893  0.00  0.00    +0.000 C 
ATOM     13  C   UNL     1       7.312   7.143  17.392  0.00  0.00    +0.000 A 
ATOM     14  C   UNL     1       7.465   6.591  16.126  0.00  0.00    +0.000 A 
ATOM     15  C   UNL     1       6.603   5.593  15.664  0.00  0.00    +0.000 A 
ATOM     16  C   UNL     1       5.531   5.200  16.454  0.00  0.00    +0.000 A 
ATOM     17  C   UNL     1       5.342   5.792  17.716  0.00  0.00    +0.000 A 
ATOM     18  C   UNL     1       6.291   6.680  18.206  0.00  0.00    +0.000 A 
ENDBRANCH   1  17
BRANCH   2  19
ATOM     19  S   UNL     1       3.123   7.859  17.640  0.00  0.00    +0.000 S 
BRANCH  19  20
ATOM     20  C   UNL     1       1.650   8.820  17.846  0.00  0.00    +0.000 C 
BRANCH  20  21
ATOM     21  C   UNL     1       1.228   9.649  19.118  0.00  0.00    +0.000 C 
ATOM     22  O   UNL     1       1.064   8.888  20.105  0.00  0.00    +0.000 OA
ATOM     23  N   UNL     1       0.814  10.971  19.329  0.00  0.00    +0.000 N 
ATOM     24  C   UNL     1      -0.196  11.096  20.423  0.00  0.00    +0.000 C 
ATOM     25  C   UNL     1      -1.244  12.097  19.999  0.00  0.00    +0.000 C 
ATOM     26  O   UNL     1      -2.400  11.823  19.713  0.00  0.00    +0.000 OA
ATOM     27  N   UNL     1      -0.728  13.373  19.892  0.00  0.00    +0.000 N 
ATOM     28  C   UNL     1       0.483  13.440  19.157  0.00  0.00    +0.000 A 
ATOM     29  C   UNL     1       0.820  14.738  18.760  0.00  0.00    +0.000 A 
ATOM     30  C   UNL     1       2.085  14.974  18.265  0.00  0.00    +0.000 A 
ATOM     31  C   UNL     1       3.005  13.925  18.270  0.00  0.00    +0.000 A 
ATOM     32  C   UNL     1       2.629  12.587  18.582  0.00  0.00    +0.000 A 
ATOM     33  C   UNL     1       1.318  12.287  18.943  0.00  0.00    +0.000 A 
ATOM     34  H   UNL     1      -0.539  13.763  20.808  0.00  0.00    +0.000 HD
ENDBRANCH  20  21
ENDBRANCH  19  20
ENDBRANCH   2  19
TORSDOF 4
ENDMDL
MODEL 7
REMARK VINA RESULT:      -8.5      1.676      2.290
REMARK  Name = 
REMARK  5 active torsions:
REMARK  status: ('A' for Active; 'I' for Inactive)
REMARK    1  A    between atoms: C_1  and  C_2
REMARK    2  A    between atoms: C_6  and  N_7
REMARK    3  A    between atoms: C_8  and  S_9
REMARK    4  A    between atoms: S_9  and  C_10
REMARK    5  A    between atoms: C_10  and  C_11
REMARK                            x       y       z     vdW  Elec       q    Type
REMARK                         _______ _______ _______ _____ _____    ______ ____
ROOT
ATOM      1  N   UNL     1       4.100   5.229  18.297  0.00  0.00    +0.000 N 
ATOM      2  C   UNL     1       2.924   6.045  18.407  0.00  0.00    +0.000 A 
ATOM      3  N   UNL     1       1.963   5.720  19.212  0.00  0.00    +0.000 NA
ATOM      4  C   UNL     1       2.102   4.514  19.998  0.00  0.00    +0.000 A 
ATOM      5  C   UNL     1       1.077   4.067  20.852  0.00  0.00    +0.000 A 
ATOM      6  C   UNL     1       1.212   2.904  21.653  0.00  0.00    +0.000 A 
ATOM      7  C   UNL     1       2.380   2.150  21.627  0.00  0.00    +0.000 A 
ATOM      8  C   UNL     1       3.402   2.552  20.783  0.00  0.00    +0.000 A 
ATOM      9  C   UNL     1       3.245   3.713  19.983  0.00  0.00    +0.000 A 
ATOM     10  C   UNL     1       4.319   4.099  19.090  0.00  0.00    +0.000 A 
ATOM     11  O   UNL     1       5.346   3.419  19.115  0.00  0.00    +0.000 OA
ENDROOT
BRANCH   1  17
ATOM     12  C   UNL     1       6.387   4.389  14.072  0.00  0.00    +0.000 C 
ATOM     13  C   UNL     1       6.312   5.177  15.332  0.00  0.00    +0.000 A 
ATOM     14  C   UNL     1       7.332   6.015  15.763  0.00  0.00    +0.000 A 
ATOM     15  C   UNL     1       7.257   6.669  16.997  0.00  0.00    +0.000 A 
ATOM     16  C   UNL     1       6.181   6.418  17.836  0.00  0.00    +0.000 A 
ATOM     17  C   UNL     1       5.170   5.531  17.425  0.00  0.00    +0.000 A 
ATOM     18  C   UNL     1       5.200   5.002  16.141  0.00  0.00    +0.000 A 
ENDBRANCH   1  17
BRANCH   2  19
ATOM     19  S   UNL     1       2.918   7.561  17.305  0.00  0.00    +0.000 S 
BRANCH  19  20
ATOM     20  C   UNL     1       2.645   9.046  18.230  0.00  0.00    +0.000 C 
BRANCH  20  21
ATOM     21  C   UNL     1       1.289   9.528  18.871  0.00  0.00    +0.000 C 
ATOM     22  O   UNL     1       0.715   8.575  19.456  0.00  0.00    +0.000 OA
ATOM     23  N   UNL     1       0.515  10.691  18.760  0.00  0.00    +0.000 N 
ATOM     24  C   UNL     1      -0.952  10.424  18.852  0.00  0.00    +0.000 C 
ATOM     25  C   UNL     1      -1.664  11.288  17.838  0.00  0.00    +0.000 C 
ATOM     26  O   UNL     1      -2.212  10.874  16.827  0.00  0.00    +0.000 OA
ATOM     27  N   UNL     1      -1.563  12.631  18.140  0.00  0.00    +0.000 N 
ATOM     28  C   UNL     1      -0.243  13.050  18.449  0.00  0.00    +0.000 A 
ATOM     29  C   UNL     1      -0.080  14.438  18.418  0.00  0.00    +0.000 A 
ATOM     30  C   UNL     1       1.073  14.983  18.940  0.00  0.00    +0.000 A 
ATOM     31  C   UNL     1       1.987  14.132  19.562  0.00  0.00    +0.000 A 
ATOM     32  C   UNL     1       1.863  12.713  19.504  0.00  0.00    +0.000 A 
ATOM     33  C   UNL     1       0.783  12.124  18.852  0.00  0.00    +0.000 A 
ATOM     34  H   UNL     1      -2.141  12.865  18.939  0.00  0.00    +0.000 HD
ENDBRANCH  20  21
ENDBRANCH  19  20
ENDBRANCH   2  19
TORSDOF 4
ENDMDL
MODEL 8
REMARK VINA RESULT:      -8.5      1.833      5.102
REMARK  Name = 
REMARK  5 active torsions:
REMARK  status: ('A' for Active; 'I' for Inactive)
REMARK    1  A    between atoms: C_1  and  C_2
REMARK    2  A    between atoms: C_6  and  N_7
REMARK    3  A    between atoms: C_8  and  S_9
REMARK    4  A    between atoms: S_9  and  C_10
REMARK    5  A    between atoms: C_10  and  C_11
REMARK                            x       y       z     vdW  Elec       q    Type
REMARK                         _______ _______ _______ _____ _____    ______ ____
ROOT
ATOM      1  N   UNL     1       3.467   4.820  17.839  0.00  0.00    +0.000 N 
ATOM      2  C   UNL     1       3.693   6.237  17.791  0.00  0.00    +0.000 A 
ATOM      3  N   UNL     1       4.605   6.738  17.018  0.00  0.00    +0.000 NA
ATOM      4  C   UNL     1       5.389   5.835  16.205  0.00  0.00    +0.000 A 
ATOM      5  C   UNL     1       6.434   6.299  15.385  0.00  0.00    +0.000 A 
ATOM      6  C   UNL     1       7.190   5.429  14.557  0.00  0.00    +0.000 A 
ATOM      7  C   UNL     1       6.925   4.066  14.523  0.00  0.00    +0.000 A 
ATOM      8  C   UNL     1       5.916   3.572  15.333  0.00  0.00    +0.000 A 
ATOM      9  C   UNL     1       5.176   4.456  16.160  0.00  0.00    +0.000 A 
ATOM     10  C   UNL     1       4.140   3.913  17.016  0.00  0.00    +0.000 A 
ATOM     11  O   UNL     1       3.920   2.704  16.938  0.00  0.00    +0.000 OA
ENDROOT
BRANCH   1  17
ATOM     12  C   UNL     1       2.291   2.989  22.203  0.00  0.00    +0.000 C 
ATOM     13  C   UNL     1       1.858   3.343  20.824  0.00  0.00    +0.000 A 
ATOM     14  C   UNL     1       0.647   2.931  20.282  0.00  0.00    +0.000 A 
ATOM     15  C   UNL     1       0.318   3.213  18.952  0.00  0.00    +0.000 A 
ATOM     16  C   UNL     1       1.247   3.848  18.141  0.00  0.00    +0.000 A 
ATOM     17  C   UNL     1       2.495   4.223  18.673  0.00  0.00    +0.000 A 
ATOM     18  C   UNL     1       2.742   4.054  20.029  0.00  0.00    +0.000 A 
ENDBRANCH   1  17
BRANCH   2  19
ATOM     19  S   UNL     1       2.589   7.245  18.920  0.00  0.00    +0.000 S 
BRANCH  19  20
ATOM     20  C   UNL     1       1.382   8.165  18.009  0.00  0.00    +0.000 C 
BRANCH  20  21
ATOM     21  C   UNL     1       1.149   9.724  18.049  0.00  0.00    +0.000 C 
ATOM     22  O   UNL     1       2.240  10.335  17.918  0.00  0.00    +0.000 OA
ATOM     23  N   UNL     1       0.063  10.541  18.389  0.00  0.00    +0.000 N 
ATOM     24  C   UNL     1       0.479  11.819  19.041  0.00  0.00    +0.000 C 
ATOM     25  C   UNL     1      -0.478  12.118  20.171  0.00  0.00    +0.000 C 
ATOM     26  O   UNL     1      -0.197  12.063  21.359  0.00  0.00    +0.000 OA
ATOM     27  N   UNL     1      -1.750  12.392  19.713  0.00  0.00    +0.000 N 
ATOM     28  C   UNL     1      -2.231  11.451  18.766  0.00  0.00    +0.000 A 
ATOM     29  C   UNL     1      -3.613  11.525  18.563  0.00  0.00    +0.000 A 
ATOM     30  C   UNL     1      -4.165  10.850  17.496  0.00  0.00    +0.000 A 
ATOM     31  C   UNL     1      -3.308  10.197  16.609  0.00  0.00    +0.000 A 
ATOM     32  C   UNL     1      -1.916  10.042  16.875  0.00  0.00    +0.000 A 
ATOM     33  C   UNL     1      -1.351  10.587  18.024  0.00  0.00    +0.000 A 
ATOM     34  H   UNL     1      -1.786  13.302  19.268  0.00  0.00    +0.000 HD
ENDBRANCH  20  21
ENDBRANCH  19  20
ENDBRANCH   2  19
TORSDOF 4
ENDMDL
MODEL 9
REMARK VINA RESULT:      -8.5      1.176      4.555
REMARK  Name = 
REMARK  5 active torsions:
REMARK  status: ('A' for Active; 'I' for Inactive)
REMARK    1  A    between atoms: C_1  and  C_2
REMARK    2  A    between atoms: C_6  and  N_7
REMARK    3  A    between atoms: C_8  and  S_9
REMARK    4  A    between atoms: S_9  and  C_10
REMARK    5  A    between atoms: C_10  and  C_11
REMARK                            x       y       z     vdW  Elec       q    Type
REMARK                         _______ _______ _______ _____ _____    ______ ____
ROOT
ATOM      1  N   UNL     1       3.426   4.790  17.781  0.00  0.00    +0.000 N 
ATOM      2  C   UNL     1       3.637   6.210  17.742  0.00  0.00    +0.000 A 
ATOM      3  N   UNL     1       4.536   6.726  16.966  0.00  0.00    +0.000 NA
ATOM      4  C   UNL     1       5.323   5.838  16.139  0.00  0.00    +0.000 A 
ATOM      5  C   UNL     1       6.356   6.320  15.313  0.00  0.00    +0.000 A 
ATOM      6  C   UNL     1       7.114   5.465  14.473  0.00  0.00    +0.000 A 
ATOM      7  C   UNL     1       6.863   4.099  14.429  0.00  0.00    +0.000 A 
ATOM      8  C   UNL     1       5.867   3.588  15.245  0.00  0.00    +0.000 A 
ATOM      9  C   UNL     1       5.124   4.458  16.085  0.00  0.00    +0.000 A 
ATOM     10  C   UNL     1       4.103   3.896  16.946  0.00  0.00    +0.000 A 
ATOM     11  O   UNL     1       3.894   2.685  16.860  0.00  0.00    +0.000 OA
ENDROOT
BRANCH   1  17
ATOM     12  C   UNL     1       2.328   2.855  22.121  0.00  0.00    +0.000 C 
ATOM     13  C   UNL     1       1.869   3.245  20.760  0.00  0.00    +0.000 A 
ATOM     14  C   UNL     1       0.647   2.851  20.231  0.00  0.00    +0.000 A 
ATOM     15  C   UNL     1       0.293   3.167  18.916  0.00  0.00    +0.000 A 
ATOM     16  C   UNL     1       1.209   3.819  18.103  0.00  0.00    +0.000 A 
ATOM     17  C   UNL     1       2.469   4.175  18.619  0.00  0.00    +0.000 A 
ATOM     18  C   UNL     1       2.741   3.972  19.966  0.00  0.00    +0.000 A 
ENDBRANCH   1  17
BRANCH   2  19
ATOM     19  S   UNL     1       2.532   7.197  18.889  0.00  0.00    +0.000 S 
BRANCH  19  20
ATOM     20  C   UNL     1       2.052   8.742  18.171  0.00  0.00    +0.000 C 
BRANCH  20  21
ATOM     21  C   UNL     1       0.615   9.388  18.183  0.00  0.00    +0.000 C 
ATOM     22  O   UNL     1       0.045   9.217  17.076  0.00  0.00    +0.000 OA
ATOM     23  N   UNL     1      -0.059  10.255  19.054  0.00  0.00    +0.000 N 
ATOM     24  C   UNL     1      -0.980  11.192  18.344  0.00  0.00    +0.000 C 
ATOM     25  C   UNL     1      -0.872  12.555  18.987  0.00  0.00    +0.000 C 
ATOM     26  O   UNL     1      -0.363  13.537  18.467  0.00  0.00    +0.000 OA
ATOM     27  N   UNL     1      -1.350  12.556  20.281  0.00  0.00    +0.000 N 
ATOM     28  C   UNL     1      -0.856  11.488  21.074  0.00  0.00    +0.000 A 
ATOM     29  C   UNL     1      -1.058  11.675  22.445  0.00  0.00    +0.000 A 
ATOM     30  C   UNL     1      -0.856  10.611  23.297  0.00  0.00    +0.000 A 
ATOM     31  C   UNL     1      -0.549   9.367  22.745  0.00  0.00    +0.000 A 
ATOM     32  C   UNL     1      -0.249   9.205  21.361  0.00  0.00    +0.000 A 
ATOM     33  C   UNL     1      -0.298  10.294  20.495  0.00  0.00    +0.000 A 
ATOM     34  H   UNL     1      -2.361  12.487  20.292  0.00  0.00    +0.000 HD
ENDBRANCH  20  21
ENDBRANCH  19  20
ENDBRANCH   2  19
TORSDOF 4
ENDMDL
