MODEL 1
REMARK VINA RESULT:      -7.5      0.000      0.000
REMARK  Name = 
REMARK  4 active torsions:
REMARK  status: ('A' for Active; 'I' for Inactive)
REMARK    1  A    between atoms: C_1  and  C_2
REMARK    2  A    between atoms: C_2  and  C_4
REMARK    3  A    between atoms: C_5  and  N_6
REMARK    4  A    between atoms: N_6  and  C_7
REMARK                            x       y       z     vdW  Elec       q    Type
REMARK                         _______ _______ _______ _____ _____    ______ ____
ROOT
ATOM      1  C   UNL     1      -0.663  11.924  19.772  0.00  0.00    +0.000 A 
ATOM      2  C   UNL     1      -0.323  11.171  18.696  0.00  0.00    +0.000 A 
ATOM      3  N   UNL     1      -1.278  10.821  17.762  0.00  0.00    +0.000 N 
ATOM      4  C   UNL     1      -2.615  11.240  17.792  0.00  0.00    +0.000 A 
ATOM      5  C   UNL     1      -3.506  10.940  16.745  0.00  0.00    +0.000 A 
ATOM      6 BR   UNL     1      -2.909  10.081  15.161  0.00  0.00    +0.000 Br
ATOM      7  C   UNL     1      -4.857  11.284  16.830  0.00  0.00    +0.000 A 
ATOM      8  C   UNL     1      -5.338  11.919  17.970  0.00  0.00    +0.000 A 
ATOM      9  C   UNL     1      -4.470  12.239  19.019  0.00  0.00    +0.000 A 
ATOM     10 CL   UNL     1      -5.211  13.012  20.379  0.00  0.00    +0.000 Cl
ATOM     11  C   UNL     1      -3.103  11.915  18.926  0.00  0.00    +0.000 A 
ATOM     12  C   UNL     1      -2.108  12.275  19.967  0.00  0.00    +0.000 A 
ATOM     13  O   UNL     1      -2.459  12.867  20.980  0.00  0.00    +0.000 OA
ATOM     14  H   UNL     1      -0.906  10.435  16.896  0.00  0.00    +0.000 HD
ENDROOT
BRANCH   1  16
ATOM     15  C   UNL     1       0.943  13.782  20.644  0.00  0.00    +0.000 C 
ATOM     16  C   UNL     1       0.388  12.386  20.749  0.00  0.00    +0.000 C 
ATOM     17  O   UNL     1       0.844  11.617  21.603  0.00  0.00    +0.000 OA
ENDBRANCH   1  16
BRANCH   2  18
ATOM     18  N   UNL     1       0.994  10.777  18.440  0.00  0.00    +0.000 N 
ATOM     19  H   UNL     1       1.658  11.408  18.914  0.00  0.00    +0.000 HD
BRANCH  18  20
ATOM     20  C   UNL     1       1.497   9.460  18.668  0.00  0.00    +0.000 A 
ATOM     21  C   UNL     1       2.226   8.728  17.723  0.00  0.00    +0.000 A 
ATOM     22  C   UNL     1       2.727   7.458  18.035  0.00  0.00    +0.000 A 
ATOM     23  C   UNL     1       2.520   6.918  19.302  0.00  0.00    +0.000 A 
ATOM     24 CL   UNL     1       3.174   5.374  19.692  0.00  0.00    +0.000 Cl
ATOM     25  C   UNL     1       1.800   7.626  20.256  0.00  0.00    +0.000 A 
ATOM     26  C   UNL     1       1.300   8.893  19.941  0.00  0.00    +0.000 A 
ENDBRANCH  18  20
ENDBRANCH   2  18
TORSDOF 3
ENDMDL
MODEL 2
REMARK VINA RESULT:      -7.5      0.240      1.012
REMARK  Name = 
REMARK  4 active torsions:
REMARK  status: ('A' for Active; 'I' for Inactive)
REMARK    1  A    between atoms: C_1  and  C_2
REMARK    2  A    between atoms: C_2  and  C_4
REMARK    3  A    between atoms: C_5  and  N_6
REMARK    4  A    between atoms: N_6  and  C_7
REMARK                            x       y       z     vdW  Elec       q    Type
REMARK                         _______ _______ _______ _____ _____    ______ ____
ROOT
ATOM      1  C   UNL     1      -0.466  11.773  19.715  0.00  0.00    +0.000 A 
ATOM      2  C   UNL     1      -0.189  11.013  18.626  0.00  0.00    +0.000 A 
ATOM      3  N   UNL     1      -1.186  10.698  17.724  0.00  0.00    +0.000 N 
ATOM      4  C   UNL     1      -2.506  11.162  17.800  0.00  0.00    +0.000 A 
ATOM      5  C   UNL     1      -3.441  10.896  16.783  0.00  0.00    +0.000 A 
ATOM      6 BR   UNL     1      -2.928  10.023  15.178  0.00  0.00    +0.000 Br
ATOM      7  C   UNL     1      -4.777  11.286  16.914  0.00  0.00    +0.000 A 
ATOM      8  C   UNL     1      -5.197  11.933  18.071  0.00  0.00    +0.000 A 
ATOM      9  C   UNL     1      -4.284  12.220  19.091  0.00  0.00    +0.000 A 
ATOM     10 CL   UNL     1      -4.951  13.014  20.477  0.00  0.00    +0.000 Cl
ATOM     11  C   UNL     1      -2.933  11.850  18.951  0.00  0.00    +0.000 A 
ATOM     12  C   UNL     1      -1.891  12.172  19.958  0.00  0.00    +0.000 A 
ATOM     13  O   UNL     1      -2.187  12.772  20.985  0.00  0.00    +0.000 OA
ATOM     14  H   UNL     1      -0.857  10.302  16.845  0.00  0.00    +0.000 HD
ENDROOT
BRANCH   1  16
ATOM     15  C   UNL     1       1.321  13.520  20.455  0.00  0.00    +0.000 C 
ATOM     16  C   UNL     1       0.633  12.195  20.656  0.00  0.00    +0.000 C 
ATOM     17  O   UNL     1       1.017  11.445  21.560  0.00  0.00    +0.000 OA
ENDBRANCH   1  16
BRANCH   2  18
ATOM     18  N   UNL     1       1.105  10.574  18.324  0.00  0.00    +0.000 N 
ATOM     19  H   UNL     1       1.803  11.255  18.660  0.00  0.00    +0.000 HD
BRANCH  18  20
ATOM     20  C   UNL     1       1.623   9.293  18.685  0.00  0.00    +0.000 A 
ATOM     21  C   UNL     1       1.380   8.671  19.915  0.00  0.00    +0.000 A 
ATOM     22  C   UNL     1       1.884   7.392  20.181  0.00  0.00    +0.000 A 
ATOM     23  C   UNL     1       2.620   6.716  19.210  0.00  0.00    +0.000 A 
ATOM     24 CL   UNL     1       3.202   5.128  19.528  0.00  0.00    +0.000 Cl
ATOM     25  C   UNL     1       2.874   7.314  17.982  0.00  0.00    +0.000 A 
ATOM     26  C   UNL     1       2.370   8.591  17.720  0.00  0.00    +0.000 A 
ENDBRANCH  18  20
ENDBRANCH   2  18
TORSDOF 3
ENDMDL
MODEL 3
REMARK VINA RESULT:      -7.0      1.088      1.200
REMARK  Name = 
REMARK  4 active torsions:
REMARK  status: ('A' for Active; 'I' for Inactive)
REMARK    1  A    between atoms: C_1  and  C_2
REMARK    2  A    between atoms: C_2  and  C_4
REMARK    3  A    between atoms: C_5  and  N_6
REMARK    4  A    between atoms: N_6  and  C_7
REMARK                            x       y       z     vdW  Elec       q    Type
REMARK                         _______ _______ _______ _____ _____    ______ ____
ROOT
ATOM      1  C   UNL     1      -1.629  12.284  20.784  0.00  0.00    +0.000 A 
ATOM      2  C   UNL     1      -1.031  11.678  19.728  0.00  0.00    +0.000 A 
ATOM      3  N   UNL     1      -1.765  11.349  18.606  0.00  0.00    +0.000 N 
ATOM      4  C   UNL     1      -3.121  11.650  18.424  0.00  0.00    +0.000 A 
ATOM      5  C   UNL     1      -3.778  11.388  17.207  0.00  0.00    +0.000 A 
ATOM      6 BR   UNL     1      -2.828  10.751  15.692  0.00  0.00    +0.000 Br
ATOM      7  C   UNL     1      -5.151  11.608  17.069  0.00  0.00    +0.000 A 
ATOM      8  C   UNL     1      -5.887  12.080  18.150  0.00  0.00    +0.000 A 
ATOM      9  C   UNL     1      -5.256  12.360  19.366  0.00  0.00    +0.000 A 
ATOM     10 CL   UNL     1      -6.299  12.923  20.627  0.00  0.00    +0.000 Cl
ATOM     11  C   UNL     1      -3.868  12.161  19.501  0.00  0.00    +0.000 A 
ATOM     12  C   UNL     1      -3.114  12.492  20.736  0.00  0.00    +0.000 A 
ATOM     13  O   UNL     1      -3.696  12.944  21.714  0.00  0.00    +0.000 OA
ATOM     14  H   UNL     1      -1.209  11.087  17.794  0.00  0.00    +0.000 HD
ENDROOT
BRANCH   1  16
ATOM     15  C   UNL     1      -0.450  14.179  22.128  0.00  0.00    +0.000 C 
ATOM     16  C   UNL     1      -0.820  12.727  21.975  0.00  0.00    +0.000 C 
ATOM     17  O   UNL     1      -0.405  11.907  22.802  0.00  0.00    +0.000 OA
ENDBRANCH   1  16
BRANCH   2  18
ATOM     18  N   UNL     1       0.344  11.423  19.687  0.00  0.00    +0.000 N 
ATOM     19  H   UNL     1       0.813  11.849  20.502  0.00  0.00    +0.000 HD
BRANCH  18  20
ATOM     20  C   UNL     1       0.915  10.120  19.561  0.00  0.00    +0.000 A 
ATOM     21  C   UNL     1       1.526   9.646  18.394  0.00  0.00    +0.000 A 
ATOM     22  C   UNL     1       2.106   8.372  18.358  0.00  0.00    +0.000 A 
ATOM     23  C   UNL     1       2.097   7.569  19.496  0.00  0.00    +0.000 A 
ATOM     24 CL   UNL     1       2.848   6.021  19.457  0.00  0.00    +0.000 Cl
ATOM     25  C   UNL     1       1.497   8.018  20.665  0.00  0.00    +0.000 A 
ATOM     26  C   UNL     1       0.918   9.290  20.697  0.00  0.00    +0.000 A 
ENDBRANCH  18  20
ENDBRANCH   2  18
TORSDOF 3
ENDMDL
MODEL 4
REMARK VINA RESULT:      -6.6      2.869      3.832
REMARK  Name = 
REMARK  4 active torsions:
REMARK  status: ('A' for Active; 'I' for Inactive)
REMARK    1  A    between atoms: C_1  and  C_2
REMARK    2  A    between atoms: C_2  and  C_4
REMARK    3  A    between atoms: C_5  and  N_6
REMARK    4  A    between atoms: N_6  and  C_7
REMARK                            x       y       z     vdW  Elec       q    Type
REMARK                         _______ _______ _______ _____ _____    ______ ____
ROOT
ATOM      1  C   UNL     1      -2.892  12.799  21.513  0.00  0.00    +0.000 A 
ATOM      2  C   UNL     1      -2.933  12.900  20.161  0.00  0.00    +0.000 A 
ATOM      3  N   UNL     1      -4.147  12.961  19.504  0.00  0.00    +0.000 N 
ATOM      4  C   UNL     1      -5.396  12.989  20.138  0.00  0.00    +0.000 A 
ATOM      5  C   UNL     1      -6.588  13.169  19.411  0.00  0.00    +0.000 A 
ATOM      6 BR   UNL     1      -6.559  13.535  17.548  0.00  0.00    +0.000 Br
ATOM      7  C   UNL     1      -7.833  13.102  20.042  0.00  0.00    +0.000 A 
ATOM      8  C   UNL     1      -7.902  12.842  21.407  0.00  0.00    +0.000 A 
ATOM      9  C   UNL     1      -6.732  12.672  22.154  0.00  0.00    +0.000 A 
ATOM     10 CL   UNL     1      -6.971  12.337  23.834  0.00  0.00    +0.000 Cl
ATOM     11  C   UNL     1      -5.475  12.761  21.524  0.00  0.00    +0.000 A 
ATOM     12  C   UNL     1      -4.188  12.656  22.255  0.00  0.00    +0.000 A 
ATOM     13  O   UNL     1      -4.178  12.461  23.465  0.00  0.00    +0.000 OA
ATOM     14  H   UNL     1      -4.088  13.237  18.526  0.00  0.00    +0.000 HD
ENDROOT
BRANCH   1  16
ATOM     15  C   UNL     1      -0.990  11.537  22.770  0.00  0.00    +0.000 C 
ATOM     16  C   UNL     1      -1.575  12.822  22.245  0.00  0.00    +0.000 C 
ATOM     17  O   UNL     1      -0.993  13.888  22.472  0.00  0.00    +0.000 OA
ENDBRANCH   1  16
BRANCH   2  18
ATOM     18  N   UNL     1      -1.779  13.018  19.380  0.00  0.00    +0.000 N 
ATOM     19  H   UNL     1      -1.134  13.709  19.794  0.00  0.00    +0.000 HD
BRANCH  18  20
ATOM     20  C   UNL     1      -0.957  11.918  18.992  0.00  0.00    +0.000 A 
ATOM     21  C   UNL     1      -1.433  10.787  18.317  0.00  0.00    +0.000 A 
ATOM     22  C   UNL     1      -0.558   9.767  17.927  0.00  0.00    +0.000 A 
ATOM     23  C   UNL     1       0.805   9.877  18.191  0.00  0.00    +0.000 A 
ATOM     24 CL   UNL     1       1.881   8.638  17.673  0.00  0.00    +0.000 Cl
ATOM     25  C   UNL     1       1.301  10.989  18.860  0.00  0.00    +0.000 A 
ATOM     26  C   UNL     1       0.424  12.006  19.248  0.00  0.00    +0.000 A 
ENDBRANCH  18  20
ENDBRANCH   2  18
TORSDOF 3
ENDMDL
MODEL 5
REMARK VINA RESULT:      -6.6      2.701      3.883
REMARK  Name = 
REMARK  4 active torsions:
REMARK  status: ('A' for Active; 'I' for Inactive)
REMARK    1  A    between atoms: C_1  and  C_2
REMARK    2  A    between atoms: C_2  and  C_4
REMARK    3  A    between atoms: C_5  and  N_6
REMARK    4  A    between atoms: N_6  and  C_7
REMARK                            x       y       z     vdW  Elec       q    Type
REMARK                         _______ _______ _______ _____ _____    ______ ____
ROOT
ATOM      1  C   UNL     1      -2.524  11.346  18.069  0.00  0.00    +0.000 A 
ATOM      2  C   UNL     1      -1.404  11.696  18.749  0.00  0.00    +0.000 A 
ATOM      3  N   UNL     1      -1.502  12.349  19.963  0.00  0.00    +0.000 N 
ATOM      4  C   UNL     1      -2.707  12.643  20.615  0.00  0.00    +0.000 A 
ATOM      5  C   UNL     1      -2.729  13.207  21.904  0.00  0.00    +0.000 A 
ATOM      6 BR   UNL     1      -1.131  13.460  22.896  0.00  0.00    +0.000 Br
ATOM      7  C   UNL     1      -3.934  13.581  22.505  0.00  0.00    +0.000 A 
ATOM      8  C   UNL     1      -5.131  13.409  21.818  0.00  0.00    +0.000 A 
ATOM      9  C   UNL     1      -5.137  12.839  20.540  0.00  0.00    +0.000 A 
ATOM     10 CL   UNL     1      -6.695  12.702  19.800  0.00  0.00    +0.000 Cl
ATOM     11  C   UNL     1      -3.926  12.440  19.942  0.00  0.00    +0.000 A 
ATOM     12  C   UNL     1      -3.852  11.773  18.618  0.00  0.00    +0.000 A 
ATOM     13  O   UNL     1      -4.873  11.559  17.975  0.00  0.00    +0.000 OA
ATOM     14  H   UNL     1      -0.635  12.393  20.494  0.00  0.00    +0.000 HD
ENDROOT
BRANCH   1  16
ATOM     15  C   UNL     1      -2.910  11.164  15.498  0.00  0.00    +0.000 C 
ATOM     16  C   UNL     1      -2.429  10.556  16.789  0.00  0.00    +0.000 C 
ATOM     17  O   UNL     1      -2.013   9.392  16.791  0.00  0.00    +0.000 OA
ENDBRANCH   1  16
BRANCH   2  18
ATOM     18  N   UNL     1      -0.120  11.362  18.308  0.00  0.00    +0.000 N 
ATOM     19  H   UNL     1       0.526  12.156  18.444  0.00  0.00    +0.000 HD
BRANCH  18  20
ATOM     20  C   UNL     1       0.604  10.209  18.741  0.00  0.00    +0.000 A 
ATOM     21  C   UNL     1       0.532   9.685  20.038  0.00  0.00    +0.000 A 
ATOM     22  C   UNL     1       1.236   8.523  20.378  0.00  0.00    +0.000 A 
ATOM     23  C   UNL     1       2.002   7.864  19.419  0.00  0.00    +0.000 A 
ATOM     24 CL   UNL     1       2.830   6.414  19.832  0.00  0.00    +0.000 Cl
ATOM     25  C   UNL     1       2.087   8.366  18.126  0.00  0.00    +0.000 A 
ATOM     26  C   UNL     1       1.384   9.527  17.790  0.00  0.00    +0.000 A 
ENDBRANCH  18  20
ENDBRANCH   2  18
TORSDOF 3
ENDMDL
MODEL 6
REMARK VINA RESULT:      -6.5      7.813      9.467
REMARK  Name = 
REMARK  4 active torsions:
REMARK  status: ('A' for Active; 'I' for Inactive)
REMARK    1  A    between atoms: C_1  and  C_2
REMARK    2  A    between atoms: C_2  and  C_4
REMARK    3  A    between atoms: C_5  and  N_6
REMARK    4  A    between atoms: N_6  and  C_7
REMARK                            x       y       z     vdW  Elec       q    Type
REMARK                         _______ _______ _______ _____ _____    ______ ____
ROOT
ATOM      1  C   UNL     1       5.049   5.811  17.966  0.00  0.00    +0.000 A 
ATOM      2  C   UNL     1       5.786   4.676  18.049  0.00  0.00    +0.000 A 
ATOM      3  N   UNL     1       5.398   3.654  18.893  0.00  0.00    +0.000 N 
ATOM      4  C   UNL     1       4.227   3.657  19.663  0.00  0.00    +0.000 A 
ATOM      5  C   UNL     1       3.835   2.532  20.413  0.00  0.00    +0.000 A 
ATOM      6 BR   UNL     1       4.790   0.895  20.305  0.00  0.00    +0.000 Br
ATOM      7  C   UNL     1       2.716   2.579  21.248  0.00  0.00    +0.000 A 
ATOM      8  C   UNL     1       1.983   3.756  21.354  0.00  0.00    +0.000 A 
ATOM      9  C   UNL     1       2.345   4.884  20.610  0.00  0.00    +0.000 A 
ATOM     10 CL   UNL     1       1.352   6.280  20.856  0.00  0.00    +0.000 Cl
ATOM     11  C   UNL     1       3.459   4.832  19.750  0.00  0.00    +0.000 A 
ATOM     12  C   UNL     1       3.870   5.962  18.881  0.00  0.00    +0.000 A 
ATOM     13  O   UNL     1       3.247   7.017  18.900  0.00  0.00    +0.000 OA
ATOM     14  H   UNL     1       5.885   2.772  18.746  0.00  0.00    +0.000 HD
ENDROOT
BRANCH   1  16
ATOM     15  C   UNL     1       4.602   7.067  15.726  0.00  0.00    +0.000 C 
ATOM     16  C   UNL     1       5.414   6.894  16.983  0.00  0.00    +0.000 C 
ATOM     17  O   UNL     1       6.406   7.608  17.164  0.00  0.00    +0.000 OA
ENDBRANCH   1  16
BRANCH   2  18
ATOM     18  N   UNL     1       6.913   4.451  17.252  0.00  0.00    +0.000 N 
ATOM     19  H   UNL     1       7.426   3.618  17.581  0.00  0.00    +0.000 HD
BRANCH  18  20
ATOM     20  C   UNL     1       6.880   4.335  15.828  0.00  0.00    +0.000 A 
ATOM     21  C   UNL     1       5.957   3.547  15.131  0.00  0.00    +0.000 A 
ATOM     22  C   UNL     1       5.956   3.518  13.731  0.00  0.00    +0.000 A 
ATOM     23  C   UNL     1       6.867   4.292  13.016  0.00  0.00    +0.000 A 
ATOM     24 CL   UNL     1       6.834   4.284  11.296  0.00  0.00    +0.000 Cl
ATOM     25  C   UNL     1       7.793   5.081  13.688  0.00  0.00    +0.000 A 
ATOM     26  C   UNL     1       7.791   5.107  15.085  0.00  0.00    +0.000 A 
ENDBRANCH  18  20
ENDBRANCH   2  18
TORSDOF 3
ENDMDL
MODEL 7
REMARK VINA RESULT:      -6.4      3.913      6.849
REMARK  Name = 
REMARK  4 active torsions:
REMARK  status: ('A' for Active; 'I' for Inactive)
REMARK    1  A    between atoms: C_1  and  C_2
REMARK    2  A    between atoms: C_2  and  C_4
REMARK    3  A    between atoms: C_5  and  N_6
REMARK    4  A    between atoms: N_6  and  C_7
REMARK                            x       y       z     vdW  Elec       q    Type
REMARK                         _______ _______ _______ _____ _____    ______ ____
ROOT
ATOM      1  C   UNL     1       0.154  12.416  18.916  0.00  0.00    +0.000 A 
ATOM      2  C   UNL     1      -0.915  13.213  19.165  0.00  0.00    +0.000 A 
ATOM      3  N   UNL     1      -0.794  14.586  19.080  0.00  0.00    +0.000 N 
ATOM      4  C   UNL     1       0.368  15.262  18.684  0.00  0.00    +0.000 A 
ATOM      5  C   UNL     1       0.386  16.658  18.508  0.00  0.00    +0.000 A 
ATOM      6 BR   UNL     1      -1.202  17.688  18.650  0.00  0.00    +0.000 Br
ATOM      7  C   UNL     1       1.573  17.329  18.203  0.00  0.00    +0.000 A 
ATOM      8  C   UNL     1       2.760  16.614  18.084  0.00  0.00    +0.000 A 
ATOM      9  C   UNL     1       2.766  15.224  18.242  0.00  0.00    +0.000 A 
ATOM     10 CL   UNL     1       4.316  14.471  18.083  0.00  0.00    +0.000 Cl
ATOM     11  C   UNL     1       1.567  14.543  18.527  0.00  0.00    +0.000 A 
ATOM     12  C   UNL     1       1.479  13.066  18.647  0.00  0.00    +0.000 A 
ATOM     13  O   UNL     1       2.481  12.373  18.519  0.00  0.00    +0.000 OA
ATOM     14  H   UNL     1      -1.677  15.093  19.083  0.00  0.00    +0.000 HD
ENDROOT
BRANCH   1  16
ATOM     15  C   UNL     1       0.560  10.115  20.070  0.00  0.00    +0.000 C 
ATOM     16  C   UNL     1       0.010  10.915  18.918  0.00  0.00    +0.000 C 
ATOM     17  O   UNL     1      -0.504  10.325  17.962  0.00  0.00    +0.000 OA
ENDBRANCH   1  16
BRANCH   2  18
ATOM     18  N   UNL     1      -2.186  12.701  19.445  0.00  0.00    +0.000 N 
ATOM     19  H   UNL     1      -2.270  11.734  19.094  0.00  0.00    +0.000 HD
BRANCH  18  20
ATOM     20  C   UNL     1      -2.776  12.684  20.745  0.00  0.00    +0.000 A 
ATOM     21  C   UNL     1      -4.111  13.019  21.000  0.00  0.00    +0.000 A 
ATOM     22  C   UNL     1      -4.634  12.935  22.296  0.00  0.00    +0.000 A 
ATOM     23  C   UNL     1      -3.830  12.496  23.346  0.00  0.00    +0.000 A 
ATOM     24 CL   UNL     1      -4.489  12.355  24.929  0.00  0.00    +0.000 Cl
ATOM     25  C   UNL     1      -2.502  12.158  23.116  0.00  0.00    +0.000 A 
ATOM     26  C   UNL     1      -1.984  12.244  21.821  0.00  0.00    +0.000 A 
ENDBRANCH  18  20
ENDBRANCH   2  18
TORSDOF 3
ENDMDL
MODEL 8
REMARK VINA RESULT:      -6.4      1.350      1.916
REMARK  Name = 
REMARK  4 active torsions:
REMARK  status: ('A' for Active; 'I' for Inactive)
REMARK    1  A    between atoms: C_1  and  C_2
REMARK    2  A    between atoms: C_2  and  C_4
REMARK    3  A    between atoms: C_5  and  N_6
REMARK    4  A    between atoms: N_6  and  C_7
REMARK                            x       y       z     vdW  Elec       q    Type
REMARK                         _______ _______ _______ _____ _____    ______ ____
ROOT
ATOM      1  C   UNL     1      -0.166  12.783  20.094  0.00  0.00    +0.000 A 
ATOM      2  C   UNL     1      -0.381  11.833  19.150  0.00  0.00    +0.000 A 
ATOM      3  N   UNL     1      -1.669  11.497  18.780  0.00  0.00    +0.000 N 
ATOM      4  C   UNL     1      -2.826  12.118  19.269  0.00  0.00    +0.000 A 
ATOM      5  C   UNL     1      -4.101  11.805  18.762  0.00  0.00    +0.000 A 
ATOM      6 BR   UNL     1      -4.312  10.634  17.283  0.00  0.00    +0.000 Br
ATOM      7  C   UNL     1      -5.254  12.363  19.321  0.00  0.00    +0.000 A 
ATOM      8  C   UNL     1      -5.147  13.230  20.402  0.00  0.00    +0.000 A 
ATOM      9  C   UNL     1      -3.891  13.568  20.916  0.00  0.00    +0.000 A 
ATOM     10 CL   UNL     1      -3.912  14.643  22.271  0.00  0.00    +0.000 Cl
ATOM     11  C   UNL     1      -2.726  13.024  20.340  0.00  0.00    +0.000 A 
ATOM     12  C   UNL     1      -1.355  13.379  20.786  0.00  0.00    +0.000 A 
ATOM     13  O   UNL     1      -1.190  14.165  21.711  0.00  0.00    +0.000 OA
ATOM     14  H   UNL     1      -1.737  10.931  17.937  0.00  0.00    +0.000 HD
ENDROOT
BRANCH   1  16
ATOM     15  C   UNL     1       1.821  14.440  19.780  0.00  0.00    +0.000 C 
ATOM     16  C   UNL     1       1.235  13.219  20.439  0.00  0.00    +0.000 C 
ATOM     17  O   UNL     1       1.933  12.556  21.214  0.00  0.00    +0.000 OA
ENDBRANCH   1  16
BRANCH   2  18
ATOM     18  N   UNL     1       0.663  11.204  18.463  0.00  0.00    +0.000 N 
ATOM     19  H   UNL     1       1.470  11.841  18.375  0.00  0.00    +0.000 HD
BRANCH  18  20
ATOM     20  C   UNL     1       1.217   9.940  18.828  0.00  0.00    +0.000 A 
ATOM     21  C   UNL     1       1.016   9.328  20.071  0.00  0.00    +0.000 A 
ATOM     22  C   UNL     1       1.554   8.065  20.342  0.00  0.00    +0.000 A 
ATOM     23  C   UNL     1       2.283   7.392  19.363  0.00  0.00    +0.000 A 
ATOM     24 CL   UNL     1       2.907   5.822  19.688  0.00  0.00    +0.000 Cl
ATOM     25  C   UNL     1       2.496   7.980  18.122  0.00  0.00    +0.000 A 
ATOM     26  C   UNL     1       1.957   9.242  17.856  0.00  0.00    +0.000 A 
ENDBRANCH  18  20
ENDBRANCH   2  18
TORSDOF 3
ENDMDL
MODEL 9
REMARK VINA RESULT:      -6.3      3.028      4.037
REMARK  Name = 
REMARK  4 active torsions:
REMARK  status: ('A' for Active; 'I' for Inactive)
REMARK    1  A    between atoms: C_1  and  C_2
REMARK    2  A    between atoms: C_2  and  C_4
REMARK    3  A    between atoms: C_5  and  N_6
REMARK    4  A    between atoms: N_6  and  C_7
REMARK                            x       y       z     vdW  Elec       q    Type
REMARK                         _______ _______ _______ _____ _____    ______ ____
ROOT
ATOM      1  C   UNL     1      -3.102  13.613  21.549  0.00  0.00    +0.000 A 
ATOM      2  C   UNL     1      -3.125  13.038  20.321  0.00  0.00    +0.000 A 
ATOM      3  N   UNL     1      -4.264  12.399  19.873  0.00  0.00    +0.000 N 
ATOM      4  C   UNL     1      -5.474  12.338  20.577  0.00  0.00    +0.000 A 
ATOM      5  C   UNL     1      -6.630  11.770  20.010  0.00  0.00    +0.000 A 
ATOM      6 BR   UNL     1      -6.657  11.190  18.203  0.00  0.00    +0.000 Br
ATOM      7  C   UNL     1      -7.804  11.632  20.756  0.00  0.00    +0.000 A 
ATOM      8  C   UNL     1      -7.832  12.048  22.082  0.00  0.00    +0.000 A 
ATOM      9  C   UNL     1      -6.700  12.628  22.665  0.00  0.00    +0.000 A 
ATOM     10 CL   UNL     1      -6.876  13.081  24.326  0.00  0.00    +0.000 Cl
ATOM     11  C   UNL     1      -5.523  12.788  21.909  0.00  0.00    +0.000 A 
ATOM     12  C   UNL     1      -4.302  13.449  22.434  0.00  0.00    +0.000 A 
ATOM     13  O   UNL     1      -4.271  13.870  23.584  0.00  0.00    +0.000 OA
ATOM     14  H   UNL     1      -4.265  12.176  18.879  0.00  0.00    +0.000 HD
ENDROOT
BRANCH   1  16
ATOM     15  C   UNL     1      -0.914  13.749  22.959  0.00  0.00    +0.000 C 
ATOM     16  C   UNL     1      -1.895  14.389  22.011  0.00  0.00    +0.000 C 
ATOM     17  O   UNL     1      -1.726  15.564  21.669  0.00  0.00    +0.000 OA
ENDBRANCH   1  16
BRANCH   2  18
ATOM     18  N   UNL     1      -2.048  13.118  19.432  0.00  0.00    +0.000 N 
ATOM     19  H   UNL     1      -1.395  13.862  19.724  0.00  0.00    +0.000 HD
BRANCH  18  20
ATOM     20  C   UNL     1      -1.222  12.011  19.069  0.00  0.00    +0.000 A 
ATOM     21  C   UNL     1      -1.587  11.042  18.127  0.00  0.00    +0.000 A 
ATOM     22  C   UNL     1      -0.706  10.009  17.787  0.00  0.00    +0.000 A 
ATOM     23  C   UNL     1       0.557   9.948  18.372  0.00  0.00    +0.000 A 
ATOM     24 CL   UNL     1       1.652   8.700  17.920  0.00  0.00    +0.000 Cl
ATOM     25  C   UNL     1       0.941  10.900  19.309  0.00  0.00    +0.000 A 
ATOM     26  C   UNL     1       0.058  11.929  19.646  0.00  0.00    +0.000 A 
ENDBRANCH  18  20
ENDBRANCH   2  18
TORSDOF 3
ENDMDL
