MODEL 1
REMARK VINA RESULT:      -8.6      0.000      0.000
REMARK  Name = 
REMARK  6 active torsions:
REMARK  status: ('A' for Active; 'I' for Inactive)
REMARK    1  A    between atoms: C_4  and  C_5
REMARK    2  A    between atoms: C_12  and  O_13
REMARK    3  A    between atoms: C_14  and  C_15
REMARK    4  A    between atoms: C_15  and  S_16
REMARK    5  A    between atoms: C_15  and  C_22
REMARK    6  A    between atoms: S_16  and  C_17
REMARK                            x       y       z     vdW  Elec       q    Type
REMARK                         _______ _______ _______ _____ _____    ______ ____
ROOT
ATOM      1  O   UNL     1       2.608   8.486  17.242  0.00  0.00    +0.000 OA
ATOM      2  C   UNL     1       2.178   8.193  18.350  0.00  0.00    +0.000 A 
ATOM      3  C   UNL     1       1.359   9.181  19.067  0.00  0.00    +0.000 A 
ATOM      4  C   UNL     1       1.038   8.933  20.338  0.00  0.00    +0.000 A 
ATOM      5  O   UNL     1       1.489   7.827  21.026  0.00  0.00    +0.000 OA
ATOM      6  C   UNL     1       2.134   6.817  20.334  0.00  0.00    +0.000 A 
ATOM      7  C   UNL     1       2.453   6.882  19.028  0.00  0.00    +0.000 A 
ENDROOT
BRANCH   4   8
ATOM      8  C   UNL     1       0.205   9.862  21.103  0.00  0.00    +0.000 A 
ATOM      9  C   UNL     1      -0.206  11.083  20.547  0.00  0.00    +0.000 A 
ATOM     10  C   UNL     1      -0.983  11.973  21.294  0.00  0.00    +0.000 A 
ATOM     11  C   UNL     1      -1.349  11.653  22.601  0.00  0.00    +0.000 A 
ATOM     12  C   UNL     1      -0.940  10.442  23.162  0.00  0.00    +0.000 A 
ATOM     13  C   UNL     1      -0.168   9.549  22.415  0.00  0.00    +0.000 A 
ENDBRANCH   4   8
BRANCH   6  14
ATOM     14  O   UNL     1       2.424   5.689  21.068  0.00  0.00    +0.000 OA
ATOM     15  H   UNL     1       3.394   5.683  21.125  0.00  0.00    +0.000 HD
ENDBRANCH   6  14
BRANCH   7  16
ATOM     16  C   UNL     1       3.039   5.752  18.206  0.00  0.00    +0.000 C 
BRANCH  16  17
ATOM     17  C   UNL     1       2.625   4.306  18.649  0.00  0.00    +0.000 C 
ATOM     18  C   UNL     1       1.890   3.485  17.586  0.00  0.00    +0.000 C 
ATOM     19  C   UNL     1       2.146   2.022  17.936  0.00  0.00    +0.000 C 
ATOM     20  C   UNL     1       3.418   1.979  18.766  0.00  0.00    +0.000 C 
ATOM     21  C   UNL     1       3.820   3.421  19.042  0.00  0.00    +0.000 C 
ENDBRANCH  16  17
BRANCH  16  22
ATOM     22  S   UNL     1       4.902   5.812  18.268  0.00  0.00    +0.000 S 
BRANCH  22  23
ATOM     23  C   UNL     1       5.462   5.781  16.528  0.00  0.00    +0.000 C 
ATOM     24  C   UNL     1       6.969   5.656  16.331  0.00  0.00    +0.000 C 
ATOM     25  C   UNL     1       7.133   4.951  14.984  0.00  0.00    +0.000 C 
ATOM     26  C   UNL     1       5.878   4.114  14.782  0.00  0.00    +0.000 C 
ATOM     27  C   UNL     1       4.946   4.460  15.936  0.00  0.00    +0.000 C 
ENDBRANCH  22  23
ENDBRANCH  16  22
ENDBRANCH   7  16
TORSDOF 6
ENDMDL
MODEL 2
REMARK VINA RESULT:      -8.6      0.588      1.208
REMARK  Name = 
REMARK  6 active torsions:
REMARK  status: ('A' for Active; 'I' for Inactive)
REMARK    1  A    between atoms: C_4  and  C_5
REMARK    2  A    between atoms: C_12  and  O_13
REMARK    3  A    between atoms: C_14  and  C_15
REMARK    4  A    between atoms: C_15  and  S_16
REMARK    5  A    between atoms: C_15  and  C_22
REMARK    6  A    between atoms: S_16  and  C_17
REMARK                            x       y       z     vdW  Elec       q    Type
REMARK                         _______ _______ _______ _____ _____    ______ ____
ROOT
ATOM      1  O   UNL     1       2.732   8.546  17.360  0.00  0.00    +0.000 OA
ATOM      2  C   UNL     1       2.235   8.260  18.440  0.00  0.00    +0.000 A 
ATOM      3  C   UNL     1       1.363   9.247  19.094  0.00  0.00    +0.000 A 
ATOM      4  C   UNL     1       0.964   9.009  20.344  0.00  0.00    +0.000 A 
ATOM      5  O   UNL     1       1.380   7.914  21.071  0.00  0.00    +0.000 OA
ATOM      6  C   UNL     1       2.076   6.904  20.432  0.00  0.00    +0.000 A 
ATOM      7  C   UNL     1       2.477   6.959  19.149  0.00  0.00    +0.000 A 
ENDROOT
BRANCH   4   8
ATOM      8  C   UNL     1       0.075   9.938  21.044  0.00  0.00    +0.000 A 
ATOM      9  C   UNL     1      -0.175   9.795  22.418  0.00  0.00    +0.000 A 
ATOM     10  C   UNL     1      -1.044  10.673  23.072  0.00  0.00    +0.000 A 
ATOM     11  C   UNL     1      -1.671  11.694  22.360  0.00  0.00    +0.000 A 
ATOM     12  C   UNL     1      -1.430  11.840  20.993  0.00  0.00    +0.000 A 
ATOM     13  C   UNL     1      -0.558  10.966  20.338  0.00  0.00    +0.000 A 
ENDBRANCH   4   8
BRANCH   6  14
ATOM     14  O   UNL     1       2.328   5.786  21.195  0.00  0.00    +0.000 OA
ATOM     15  H   UNL     1       3.170   5.444  20.850  0.00  0.00    +0.000 HD
ENDBRANCH   6  14
BRANCH   7  16
ATOM     16  C   UNL     1       3.124   5.826  18.378  0.00  0.00    +0.000 C 
BRANCH  16  17
ATOM     17  C   UNL     1       2.477   4.412  18.579  0.00  0.00    +0.000 C 
ATOM     18  C   UNL     1       2.206   3.631  17.291  0.00  0.00    +0.000 C 
ATOM     19  C   UNL     1       2.204   2.157  17.686  0.00  0.00    +0.000 C 
ATOM     20  C   UNL     1       3.008   2.041  18.971  0.00  0.00    +0.000 C 
ATOM     21  C   UNL     1       3.344   3.457  19.418  0.00  0.00    +0.000 C 
ENDBRANCH  16  17
BRANCH  16  22
ATOM     22  S   UNL     1       4.919   5.662  18.863  0.00  0.00    +0.000 S 
BRANCH  22  23
ATOM     23  C   UNL     1       5.835   5.384  17.306  0.00  0.00    +0.000 C 
ATOM     24  C   UNL     1       5.768   3.963  16.756  0.00  0.00    +0.000 C 
ATOM     25  C   UNL     1       5.925   4.119  15.243  0.00  0.00    +0.000 C 
ATOM     26  C   UNL     1       5.404   5.507  14.898  0.00  0.00    +0.000 C 
ATOM     27  C   UNL     1       5.094   6.187  16.225  0.00  0.00    +0.000 C 
ENDBRANCH  22  23
ENDBRANCH  16  22
ENDBRANCH   7  16
TORSDOF 6
ENDMDL
MODEL 3
REMARK VINA RESULT:      -8.4      4.276      7.027
REMARK  Name = 
REMARK  6 active torsions:
REMARK  status: ('A' for Active; 'I' for Inactive)
REMARK    1  A    between atoms: C_4  and  C_5
REMARK    2  A    between atoms: C_12  and  O_13
REMARK    3  A    between atoms: C_14  and  C_15
REMARK    4  A    between atoms: C_15  and  S_16
REMARK    5  A    between atoms: C_15  and  C_22
REMARK    6  A    between atoms: S_16  and  C_17
REMARK                            x       y       z     vdW  Elec       q    Type
REMARK                         _______ _______ _______ _____ _____    ______ ____
ROOT
ATOM      1  O   UNL     1       5.912   7.451  16.292  0.00  0.00    +0.000 OA
ATOM      2  C   UNL     1       6.674   7.486  17.248  0.00  0.00    +0.000 A 
ATOM      3  C   UNL     1       7.405   8.733  17.516  0.00  0.00    +0.000 A 
ATOM      4  C   UNL     1       8.362   8.718  18.446  0.00  0.00    +0.000 A 
ATOM      5  O   UNL     1       8.737   7.577  19.121  0.00  0.00    +0.000 OA
ATOM      6  C   UNL     1       7.970   6.432  18.993  0.00  0.00    +0.000 A 
ATOM      7  C   UNL     1       6.920   6.318  18.159  0.00  0.00    +0.000 A 
ENDROOT
BRANCH   4   8
ATOM      8  C   UNL     1       9.111   9.931  18.780  0.00  0.00    +0.000 A 
ATOM      9  C   UNL     1       9.677  10.726  17.772  0.00  0.00    +0.000 A 
ATOM     10  C   UNL     1      10.410  11.869  18.102  0.00  0.00    +0.000 A 
ATOM     11  C   UNL     1      10.587  12.222  19.440  0.00  0.00    +0.000 A 
ATOM     12  C   UNL     1      10.030  11.434  20.448  0.00  0.00    +0.000 A 
ATOM     13  C   UNL     1       9.293  10.293  20.119  0.00  0.00    +0.000 A 
ENDBRANCH   4   8
BRANCH   6  14
ATOM     14  O   UNL     1       8.332   5.384  19.809  0.00  0.00    +0.000 OA
ATOM     15  H   UNL     1       8.355   4.615  19.215  0.00  0.00    +0.000 HD
ENDBRANCH   6  14
BRANCH   7  16
ATOM     16  C   UNL     1       5.979   5.133  18.085  0.00  0.00    +0.000 C 
BRANCH  16  17
ATOM     17  C   UNL     1       6.037   4.302  16.756  0.00  0.00    +0.000 C 
ATOM     18  C   UNL     1       4.874   4.539  15.789  0.00  0.00    +0.000 C 
ATOM     19  C   UNL     1       5.405   4.190  14.401  0.00  0.00    +0.000 C 
ATOM     20  C   UNL     1       6.919   4.322  14.458  0.00  0.00    +0.000 C 
ATOM     21  C   UNL     1       7.290   4.589  15.910  0.00  0.00    +0.000 C 
ENDBRANCH  16  17
BRANCH  16  22
ATOM     22  S   UNL     1       4.212   5.702  18.278  0.00  0.00    +0.000 S 
BRANCH  22  23
ATOM     23  C   UNL     1       3.353   4.368  19.185  0.00  0.00    +0.000 C 
ATOM     24  C   UNL     1       2.586   4.814  20.425  0.00  0.00    +0.000 C 
ATOM     25  C   UNL     1       1.447   3.803  20.568  0.00  0.00    +0.000 C 
ATOM     26  C   UNL     1       1.157   3.282  19.168  0.00  0.00    +0.000 C 
ATOM     27  C   UNL     1       2.224   3.881  18.262  0.00  0.00    +0.000 C 
ENDBRANCH  22  23
ENDBRANCH  16  22
ENDBRANCH   7  16
TORSDOF 6
ENDMDL
MODEL 4
REMARK VINA RESULT:      -8.4      1.718      3.945
REMARK  Name = 
REMARK  6 active torsions:
REMARK  status: ('A' for Active; 'I' for Inactive)
REMARK    1  A    between atoms: C_4  and  C_5
REMARK    2  A    between atoms: C_12  and  O_13
REMARK    3  A    between atoms: C_14  and  C_15
REMARK    4  A    between atoms: C_15  and  S_16
REMARK    5  A    between atoms: C_15  and  C_22
REMARK    6  A    between atoms: S_16  and  C_17
REMARK                            x       y       z     vdW  Elec       q    Type
REMARK                         _______ _______ _______ _____ _____    ______ ____
ROOT
ATOM      1  O   UNL     1       3.612   7.861  16.769  0.00  0.00    +0.000 OA
ATOM      2  C   UNL     1       2.849   7.902  17.725  0.00  0.00    +0.000 A 
ATOM      3  C   UNL     1       1.886   9.010  17.805  0.00  0.00    +0.000 A 
ATOM      4  C   UNL     1       1.178   9.152  18.927  0.00  0.00    +0.000 A 
ATOM      5  O   UNL     1       1.350   8.347  20.033  0.00  0.00    +0.000 OA
ATOM      6  C   UNL     1       2.138   7.215  19.928  0.00  0.00    +0.000 A 
ATOM      7  C   UNL     1       2.849   6.889  18.833  0.00  0.00    +0.000 A 
ENDROOT
BRANCH   4   8
ATOM      8  C   UNL     1       0.184  10.219  19.064  0.00  0.00    +0.000 A 
ATOM      9  C   UNL     1       0.215  11.091  20.162  0.00  0.00    +0.000 A 
ATOM     10  C   UNL     1      -0.752  12.092  20.296  0.00  0.00    +0.000 A 
ATOM     11  C   UNL     1      -1.757  12.224  19.339  0.00  0.00    +0.000 A 
ATOM     12  C   UNL     1      -1.795  11.357  18.246  0.00  0.00    +0.000 A 
ATOM     13  C   UNL     1      -0.827  10.359  18.108  0.00  0.00    +0.000 A 
ENDBRANCH   4   8
BRANCH   6  14
ATOM     14  O   UNL     1       2.143   6.395  21.034  0.00  0.00    +0.000 OA
ATOM     15  H   UNL     1       2.846   5.749  20.851  0.00  0.00    +0.000 HD
ENDBRANCH   6  14
BRANCH   7  16
ATOM     16  C   UNL     1       3.617   5.598  18.633  0.00  0.00    +0.000 C 
BRANCH  16  17
ATOM     17  C   UNL     1       4.876   5.695  17.704  0.00  0.00    +0.000 C 
ATOM     18  C   UNL     1       6.223   5.543  18.415  0.00  0.00    +0.000 C 
ATOM     19  C   UNL     1       7.201   5.038  17.358  0.00  0.00    +0.000 C 
ATOM     20  C   UNL     1       6.374   4.367  16.273  0.00  0.00    +0.000 C 
ATOM     21  C   UNL     1       4.911   4.617  16.606  0.00  0.00    +0.000 C 
ENDBRANCH  16  17
BRANCH  16  22
ATOM     22  S   UNL     1       2.506   4.299  17.886  0.00  0.00    +0.000 S 
BRANCH  22  23
ATOM     23  C   UNL     1       2.283   3.027  19.180  0.00  0.00    +0.000 C 
ATOM     24  C   UNL     1       3.348   3.014  20.271  0.00  0.00    +0.000 C 
ATOM     25  C   UNL     1       2.637   2.467  21.509  0.00  0.00    +0.000 C 
ATOM     26  C   UNL     1       1.165   2.818  21.350  0.00  0.00    +0.000 C 
ATOM     27  C   UNL     1       1.021   3.428  19.961  0.00  0.00    +0.000 C 
ENDBRANCH  22  23
ENDBRANCH  16  22
ENDBRANCH   7  16
TORSDOF 6
ENDMDL
MODEL 5
REMARK VINA RESULT:      -8.3      0.864      1.985
REMARK  Name = 
REMARK  6 active torsions:
REMARK  status: ('A' for Active; 'I' for Inactive)
REMARK    1  A    between atoms: C_4  and  C_5
REMARK    2  A    between atoms: C_12  and  O_13
REMARK    3  A    between atoms: C_14  and  C_15
REMARK    4  A    between atoms: C_15  and  S_16
REMARK    5  A    between atoms: C_15  and  C_22
REMARK    6  A    between atoms: S_16  and  C_17
REMARK                            x       y       z     vdW  Elec       q    Type
REMARK                         _______ _______ _______ _____ _____    ______ ____
ROOT
ATOM      1  O   UNL     1       1.758   5.298  20.785  0.00  0.00    +0.000 OA
ATOM      2  C   UNL     1       1.795   6.428  20.316  0.00  0.00    +0.000 A 
ATOM      3  C   UNL     1       1.179   7.523  21.079  0.00  0.00    +0.000 A 
ATOM      4  C   UNL     1       1.063   8.716  20.492  0.00  0.00    +0.000 A 
ATOM      5  O   UNL     1       1.439   8.951  19.187  0.00  0.00    +0.000 OA
ATOM      6  C   UNL     1       2.152   7.982  18.503  0.00  0.00    +0.000 A 
ATOM      7  C   UNL     1       2.422   6.759  18.993  0.00  0.00    +0.000 A 
ENDROOT
BRANCH   4   8
ATOM      8  C   UNL     1       0.482   9.856  21.203  0.00  0.00    +0.000 A 
ATOM      9  C   UNL     1      -0.284   9.664  22.363  0.00  0.00    +0.000 A 
ATOM     10  C   UNL     1      -0.854  10.758  23.021  0.00  0.00    +0.000 A 
ATOM     11  C   UNL     1      -0.666  12.047  22.524  0.00  0.00    +0.000 A 
ATOM     12  C   UNL     1       0.093  12.244  21.369  0.00  0.00    +0.000 A 
ATOM     13  C   UNL     1       0.666  11.153  20.712  0.00  0.00    +0.000 A 
ENDBRANCH   4   8
BRANCH   6  14
ATOM     14  O   UNL     1       2.608   8.353  17.258  0.00  0.00    +0.000 OA
ATOM     15  H   UNL     1       2.021   9.082  16.994  0.00  0.00    +0.000 HD
ENDBRANCH   6  14
BRANCH   7  16
ATOM     16  C   UNL     1       3.307   5.721  18.332  0.00  0.00    +0.000 C 
BRANCH  16  17
ATOM     17  C   UNL     1       2.887   4.227  18.561  0.00  0.00    +0.000 C 
ATOM     18  C   UNL     1       2.477   3.466  17.298  0.00  0.00    +0.000 C 
ATOM     19  C   UNL     1       2.731   1.991  17.597  0.00  0.00    +0.000 C 
ATOM     20  C   UNL     1       3.769   1.934  18.706  0.00  0.00    +0.000 C 
ATOM     21  C   UNL     1       4.006   3.364  19.170  0.00  0.00    +0.000 C 
ENDBRANCH  16  17
BRANCH  16  22
ATOM     22  S   UNL     1       5.059   5.880  18.953  0.00  0.00    +0.000 S 
BRANCH  22  23
ATOM     23  C   UNL     1       6.120   5.871  17.465  0.00  0.00    +0.000 C 
ATOM     24  C   UNL     1       6.843   4.557  17.189  0.00  0.00    +0.000 C 
ATOM     25  C   UNL     1       7.030   4.522  15.672  0.00  0.00    +0.000 C 
ATOM     26  C   UNL     1       5.902   5.355  15.081  0.00  0.00    +0.000 C 
ATOM     27  C   UNL     1       5.171   5.979  16.262  0.00  0.00    +0.000 C 
ENDBRANCH  22  23
ENDBRANCH  16  22
ENDBRANCH   7  16
TORSDOF 6
ENDMDL
MODEL 6
REMARK VINA RESULT:      -8.2      0.848      1.235
REMARK  Name = 
REMARK  6 active torsions:
REMARK  status: ('A' for Active; 'I' for Inactive)
REMARK    1  A    between atoms: C_4  and  C_5
REMARK    2  A    between atoms: C_12  and  O_13
REMARK    3  A    between atoms: C_14  and  C_15
REMARK    4  A    between atoms: C_15  and  S_16
REMARK    5  A    between atoms: C_15  and  C_22
REMARK    6  A    between atoms: S_16  and  C_17
REMARK                            x       y       z     vdW  Elec       q    Type
REMARK                         _______ _______ _______ _____ _____    ______ ____
ROOT
ATOM      1  O   UNL     1       2.763   8.308  16.971  0.00  0.00    +0.000 OA
ATOM      2  C   UNL     1       2.415   7.932  18.082  0.00  0.00    +0.000 A 
ATOM      3  C   UNL     1       1.580   8.827  18.896  0.00  0.00    +0.000 A 
ATOM      4  C   UNL     1       1.348   8.495  20.167  0.00  0.00    +0.000 A 
ATOM      5  O   UNL     1       1.903   7.385  20.768  0.00  0.00    +0.000 OA
ATOM      6  C   UNL     1       2.567   6.455  19.988  0.00  0.00    +0.000 A 
ATOM      7  C   UNL     1       2.806   6.608  18.672  0.00  0.00    +0.000 A 
ENDROOT
BRANCH   4   8
ATOM      8  C   UNL     1       0.505   9.329  21.025  0.00  0.00    +0.000 A 
ATOM      9  C   UNL     1      -0.143  10.463  20.512  0.00  0.00    +0.000 A 
ATOM     10  C   UNL     1      -0.927  11.266  21.346  0.00  0.00    +0.000 A 
ATOM     11  C   UNL     1      -1.065  10.944  22.695  0.00  0.00    +0.000 A 
ATOM     12  C   UNL     1      -0.422   9.819  23.213  0.00  0.00    +0.000 A 
ATOM     13  C   UNL     1       0.359   9.014  22.380  0.00  0.00    +0.000 A 
ENDBRANCH   4   8
BRANCH   6  14
ATOM     14  O   UNL     1       2.965   5.312  20.642  0.00  0.00    +0.000 OA
ATOM     15  H   UNL     1       3.892   5.194  20.377  0.00  0.00    +0.000 HD
ENDBRANCH   6  14
BRANCH   7  16
ATOM     16  C   UNL     1       3.411   5.560  17.760  0.00  0.00    +0.000 C 
BRANCH  16  17
ATOM     17  C   UNL     1       2.652   4.189  17.703  0.00  0.00    +0.000 C 
ATOM     18  C   UNL     1       3.284   3.060  18.520  0.00  0.00    +0.000 C 
ATOM     19  C   UNL     1       2.149   2.096  18.852  0.00  0.00    +0.000 C 
ATOM     20  C   UNL     1       0.854   2.888  18.766  0.00  0.00    +0.000 C 
ATOM     21  C   UNL     1       1.208   4.268  18.229  0.00  0.00    +0.000 C 
ENDBRANCH  16  17
BRANCH  16  22
ATOM     22  S   UNL     1       5.158   5.177  18.291  0.00  0.00    +0.000 S 
BRANCH  22  23
ATOM     23  C   UNL     1       6.114   4.960  16.748  0.00  0.00    +0.000 C 
ATOM     24  C   UNL     1       5.965   3.600  16.075  0.00  0.00    +0.000 C 
ATOM     25  C   UNL     1       6.195   3.870  14.587  0.00  0.00    +0.000 C 
ATOM     26  C   UNL     1       5.794   5.318  14.346  0.00  0.00    +0.000 C 
ATOM     27  C   UNL     1       5.481   5.906  15.715  0.00  0.00    +0.000 C 
ENDBRANCH  22  23
ENDBRANCH  16  22
ENDBRANCH   7  16
TORSDOF 6
ENDMDL
MODEL 7
REMARK VINA RESULT:      -8.1      1.409      2.210
REMARK  Name = 
REMARK  6 active torsions:
REMARK  status: ('A' for Active; 'I' for Inactive)
REMARK    1  A    between atoms: C_4  and  C_5
REMARK    2  A    between atoms: C_12  and  O_13
REMARK    3  A    between atoms: C_14  and  C_15
REMARK    4  A    between atoms: C_15  and  S_16
REMARK    5  A    between atoms: C_15  and  C_22
REMARK    6  A    between atoms: S_16  and  C_17
REMARK                            x       y       z     vdW  Elec       q    Type
REMARK                         _______ _______ _______ _____ _____    ______ ____
ROOT
ATOM      1  O   UNL     1       3.081   7.833  16.773  0.00  0.00    +0.000 OA
ATOM      2  C   UNL     1       2.713   7.508  17.894  0.00  0.00    +0.000 A 
ATOM      3  C   UNL     1       1.919   8.467  18.676  0.00  0.00    +0.000 A 
ATOM      4  C   UNL     1       1.668   8.185  19.956  0.00  0.00    +0.000 A 
ATOM      5  O   UNL     1       2.168   7.069  20.592  0.00  0.00    +0.000 OA
ATOM      6  C   UNL     1       2.789   6.085  19.843  0.00  0.00    +0.000 A 
ATOM      7  C   UNL     1       3.038   6.185  18.525  0.00  0.00    +0.000 A 
ENDROOT
BRANCH   4   8
ATOM      8  C   UNL     1       0.863   9.084  20.785  0.00  0.00    +0.000 A 
ATOM      9  C   UNL     1       0.747   8.874  22.167  0.00  0.00    +0.000 A 
ATOM     10  C   UNL     1      -0.042   9.724  22.946  0.00  0.00    +0.000 A 
ATOM     11  C   UNL     1      -0.723  10.785  22.351  0.00  0.00    +0.000 A 
ATOM     12  C   UNL     1      -0.615  10.998  20.975  0.00  0.00    +0.000 A 
ATOM     13  C   UNL     1       0.177  10.151  20.196  0.00  0.00    +0.000 A 
ENDBRANCH   4   8
BRANCH   6  14
ATOM     14  O   UNL     1       3.130   4.944  20.534  0.00  0.00    +0.000 OA
ATOM     15  H   UNL     1       2.623   4.239  20.099  0.00  0.00    +0.000 HD
ENDBRANCH   6  14
BRANCH   7  16
ATOM     16  C   UNL     1       3.595   5.083  17.647  0.00  0.00    +0.000 C 
BRANCH  16  17
ATOM     17  C   UNL     1       2.738   3.772  17.578  0.00  0.00    +0.000 C 
ATOM     18  C   UNL     1       3.270   2.601  18.408  0.00  0.00    +0.000 C 
ATOM     19  C   UNL     1       2.060   1.725  18.720  0.00  0.00    +0.000 C 
ATOM     20  C   UNL     1       0.829   2.610  18.610  0.00  0.00    +0.000 C 
ATOM     21  C   UNL     1       1.295   3.958  18.078  0.00  0.00    +0.000 C 
ENDBRANCH  16  17
BRANCH  16  22
ATOM     22  S   UNL     1       5.288   4.578  18.247  0.00  0.00    +0.000 S 
BRANCH  22  23
ATOM     23  C   UNL     1       6.182   6.134  18.595  0.00  0.00    +0.000 C 
ATOM     24  C   UNL     1       7.612   5.965  19.098  0.00  0.00    +0.000 C 
ATOM     25  C   UNL     1       8.342   7.227  18.637  0.00  0.00    +0.000 C 
ATOM     26  C   UNL     1       7.616   7.714  17.391  0.00  0.00    +0.000 C 
ATOM     27  C   UNL     1       6.394   6.819  17.235  0.00  0.00    +0.000 C 
ENDBRANCH  22  23
ENDBRANCH  16  22
ENDBRANCH   7  16
TORSDOF 6
ENDMDL
MODEL 8
REMARK VINA RESULT:      -8.1      1.528      2.126
REMARK  Name = 
REMARK  6 active torsions:
REMARK  status: ('A' for Active; 'I' for Inactive)
REMARK    1  A    between atoms: C_4  and  C_5
REMARK    2  A    between atoms: C_12  and  O_13
REMARK    3  A    between atoms: C_14  and  C_15
REMARK    4  A    between atoms: C_15  and  S_16
REMARK    5  A    between atoms: C_15  and  C_22
REMARK    6  A    between atoms: S_16  and  C_17
REMARK                            x       y       z     vdW  Elec       q    Type
REMARK                         _______ _______ _______ _____ _____    ______ ____
ROOT
ATOM      1  O   UNL     1       3.310   7.900  16.710  0.00  0.00    +0.000 OA
ATOM      2  C   UNL     1       2.648   8.109  17.718  0.00  0.00    +0.000 A 
ATOM      3  C   UNL     1       1.980   9.411  17.859  0.00  0.00    +0.000 A 
ATOM      4  C   UNL     1       1.407   9.704  19.028  0.00  0.00    +0.000 A 
ATOM      5  O   UNL     1       1.464   8.871  20.124  0.00  0.00    +0.000 OA
ATOM      6  C   UNL     1       1.956   7.587  19.972  0.00  0.00    +0.000 A 
ATOM      7  C   UNL     1       2.489   7.114  18.830  0.00  0.00    +0.000 A 
ENDROOT
BRANCH   4   8
ATOM      8  C   UNL     1       0.704  10.973  19.229  0.00  0.00    +0.000 A 
ATOM      9  C   UNL     1      -0.587  10.999  19.779  0.00  0.00    +0.000 A 
ATOM     10  C   UNL     1      -1.258  12.214  19.945  0.00  0.00    +0.000 A 
ATOM     11  C   UNL     1      -0.649  13.407  19.559  0.00  0.00    +0.000 A 
ATOM     12  C   UNL     1       0.633  13.388  19.008  0.00  0.00    +0.000 A 
ATOM     13  C   UNL     1       1.307  12.175  18.845  0.00  0.00    +0.000 A 
ENDBRANCH   4   8
BRANCH   6  14
ATOM     14  O   UNL     1       1.846   6.777  21.080  0.00  0.00    +0.000 OA
ATOM     15  H   UNL     1       0.913   6.506  21.088  0.00  0.00    +0.000 HD
ENDBRANCH   6  14
BRANCH   7  16
ATOM     16  C   UNL     1       2.917   5.681  18.585  0.00  0.00    +0.000 C 
BRANCH  16  17
ATOM     17  C   UNL     1       1.954   4.579  19.149  0.00  0.00    +0.000 C 
ATOM     18  C   UNL     1       1.322   3.666  18.096  0.00  0.00    +0.000 C 
ATOM     19  C   UNL     1       0.987   2.363  18.818  0.00  0.00    +0.000 C 
ATOM     20  C   UNL     1       1.893   2.284  20.036  0.00  0.00    +0.000 C 
ATOM     21  C   UNL     1       2.642   3.606  20.122  0.00  0.00    +0.000 C 
ENDBRANCH  16  17
BRANCH  16  22
ATOM     22  S   UNL     1       4.588   5.368  19.353  0.00  0.00    +0.000 S 
BRANCH  22  23
ATOM     23  C   UNL     1       5.570   4.498  18.080  0.00  0.00    +0.000 C 
ATOM     24  C   UNL     1       4.804   4.112  16.819  0.00  0.00    +0.000 C 
ATOM     25  C   UNL     1       5.856   4.099  15.709  0.00  0.00    +0.000 C 
ATOM     26  C   UNL     1       6.942   5.075  16.135  0.00  0.00    +0.000 C 
ATOM     27  C   UNL     1       6.582   5.524  17.545  0.00  0.00    +0.000 C 
ENDBRANCH  22  23
ENDBRANCH  16  22
ENDBRANCH   7  16
TORSDOF 6
ENDMDL
MODEL 9
REMARK VINA RESULT:      -8.1      1.386      2.003
REMARK  Name = 
REMARK  6 active torsions:
REMARK  status: ('A' for Active; 'I' for Inactive)
REMARK    1  A    between atoms: C_4  and  C_5
REMARK    2  A    between atoms: C_12  and  O_13
REMARK    3  A    between atoms: C_14  and  C_15
REMARK    4  A    between atoms: C_15  and  S_16
REMARK    5  A    between atoms: C_15  and  C_22
REMARK    6  A    between atoms: S_16  and  C_17
REMARK                            x       y       z     vdW  Elec       q    Type
REMARK                         _______ _______ _______ _____ _____    ______ ____
ROOT
ATOM      1  O   UNL     1       3.217   7.932  16.854  0.00  0.00    +0.000 OA
ATOM      2  C   UNL     1       2.760   7.649  17.953  0.00  0.00    +0.000 A 
ATOM      3  C   UNL     1       1.885   8.624  18.621  0.00  0.00    +0.000 A 
ATOM      4  C   UNL     1       1.530   8.394  19.886  0.00  0.00    +0.000 A 
ATOM      5  O   UNL     1       1.994   7.319  20.613  0.00  0.00    +0.000 OA
ATOM      6  C   UNL     1       2.695   6.316  19.966  0.00  0.00    +0.000 A 
ATOM      7  C   UNL     1       3.055   6.364  18.670  0.00  0.00    +0.000 A 
ENDROOT
BRANCH   4   8
ATOM      8  C   UNL     1       0.641   9.311  20.602  0.00  0.00    +0.000 A 
ATOM      9  C   UNL     1      -0.058  10.315  19.915  0.00  0.00    +0.000 A 
ATOM     10  C   UNL     1      -0.887  11.199  20.612  0.00  0.00    +0.000 A 
ATOM     11  C   UNL     1      -1.018  11.091  21.995  0.00  0.00    +0.000 A 
ATOM     12  C   UNL     1      -0.322  10.097  22.685  0.00  0.00    +0.000 A 
ATOM     13  C   UNL     1       0.503   9.208  21.990  0.00  0.00    +0.000 A 
ENDBRANCH   4   8
BRANCH   6  14
ATOM     14  O   UNL     1       2.997   5.215  20.735  0.00  0.00    +0.000 OA
ATOM     15  H   UNL     1       3.585   4.683  20.173  0.00  0.00    +0.000 HD
ENDBRANCH   6  14
BRANCH   7  16
ATOM     16  C   UNL     1       3.705   5.236  17.894  0.00  0.00    +0.000 C 
BRANCH  16  17
ATOM     17  C   UNL     1       2.822   3.956  17.690  0.00  0.00    +0.000 C 
ATOM     18  C   UNL     1       3.246   2.736  18.512  0.00  0.00    +0.000 C 
ATOM     19  C   UNL     1       1.989   1.884  18.675  0.00  0.00    +0.000 C 
ATOM     20  C   UNL     1       0.798   2.811  18.494  0.00  0.00    +0.000 C 
ATOM     21  C   UNL     1       1.345   4.165  18.067  0.00  0.00    +0.000 C 
ENDBRANCH  16  17
BRANCH  16  22
ATOM     22  S   UNL     1       5.260   4.675  18.758  0.00  0.00    +0.000 S 
BRANCH  22  23
ATOM     23  C   UNL     1       6.631   5.585  17.961  0.00  0.00    +0.000 C 
ATOM     24  C   UNL     1       6.265   6.956  17.402  0.00  0.00    +0.000 C 
ATOM     25  C   UNL     1       7.559   7.768  17.473  0.00  0.00    +0.000 C 
ATOM     26  C   UNL     1       8.376   7.177  18.612  0.00  0.00    +0.000 C 
ATOM     27  C   UNL     1       7.616   5.944  19.086  0.00  0.00    +0.000 C 
ENDBRANCH  22  23
ENDBRANCH  16  22
ENDBRANCH   7  16
TORSDOF 6
ENDMDL
