MODEL 1
REMARK VINA RESULT:      -7.2      0.000      0.000
REMARK  Name = 
REMARK  6 active torsions:
REMARK  status: ('A' for Active; 'I' for Inactive)
REMARK    1  A    between atoms: C_1  and  O_2
REMARK    2  A    between atoms: O_2  and  C_3
REMARK    3  A    between atoms: C_3  and  C_5
REMARK    4  A    between atoms: C_8  and  C_9
REMARK    5  A    between atoms: C_9  and  O_10
REMARK    6  A    between atoms: C_9  and  C_11
REMARK                            x       y       z     vdW  Elec       q    Type
REMARK                         _______ _______ _______ _____ _____    ______ ____
ROOT
ATOM      1  C   UNL     1       5.706   5.145  15.695  0.00  0.00    +0.000 A 
ATOM      2  C   UNL     1       5.039   4.070  16.270  0.00  0.00    +0.000 A 
ATOM      3  C   UNL     1       3.998   4.334  17.160  0.00  0.00    +0.000 A 
ATOM      4  C   UNL     1       3.642   5.659  17.450  0.00  0.00    +0.000 A 
ATOM      5  C   UNL     1       4.361   6.664  16.809  0.00  0.00    +0.000 A 
ATOM      6  N   UNL     1       5.373   6.441  15.940  0.00  0.00    +0.000 NA
ENDROOT
BRANCH   1   7
ATOM      7  C   UNL     1       6.864   4.873  14.790  0.00  0.00    +0.000 C 
ATOM      8  O   UNL     1       7.815   5.629  14.652  0.00  0.00    +0.000 OA
BRANCH   7  10
ATOM      9  C   UNL     1       6.295   3.823  12.773  0.00  0.00    +0.000 C 
ATOM     10  O   UNL     1       6.686   3.695  14.138  0.00  0.00    +0.000 OA
ENDBRANCH   7  10
ENDBRANCH   1   7
BRANCH   4  11
ATOM     11  C   UNL     1       2.555   6.008  18.441  0.00  0.00    +0.000 C 
BRANCH  11  12
ATOM     12  C   UNL     1       2.102   4.884  19.364  0.00  0.00    +0.000 A 
ATOM     13  C   UNL     1       1.271   3.859  18.876  0.00  0.00    +0.000 A 
ATOM     14  C   UNL     1       0.842   2.822  19.707  0.00  0.00    +0.000 A 
ATOM     15  C   UNL     1       1.260   2.775  21.034  0.00  0.00    +0.000 A 
ATOM     16  C   UNL     1       2.125   3.750  21.523  0.00  0.00    +0.000 A 
ATOM     17  C   UNL     1       2.552   4.788  20.692  0.00  0.00    +0.000 A 
ENDBRANCH  11  12
BRANCH  11  18
ATOM     18  O   UNL     1       3.060   7.124  19.179  0.00  0.00    +0.000 OA
ATOM     19  H   UNL     1       3.820   7.476  18.686  0.00  0.00    +0.000 HD
ENDBRANCH  11  18
ENDBRANCH   4  11
TORSDOF 5
ENDMDL
MODEL 2
REMARK VINA RESULT:      -7.2      1.831      2.068
REMARK  Name = 
REMARK  6 active torsions:
REMARK  status: ('A' for Active; 'I' for Inactive)
REMARK    1  A    between atoms: C_1  and  O_2
REMARK    2  A    between atoms: O_2  and  C_3
REMARK    3  A    between atoms: C_3  and  C_5
REMARK    4  A    between atoms: C_8  and  C_9
REMARK    5  A    between atoms: C_9  and  O_10
REMARK    6  A    between atoms: C_9  and  C_11
REMARK                            x       y       z     vdW  Elec       q    Type
REMARK                         _______ _______ _______ _____ _____    ______ ____
ROOT
ATOM      1  C   UNL     1       6.669   5.053  15.260  0.00  0.00    +0.000 A 
ATOM      2  C   UNL     1       5.367   5.508  15.440  0.00  0.00    +0.000 A 
ATOM      3  C   UNL     1       4.880   5.627  16.741  0.00  0.00    +0.000 A 
ATOM      4  C   UNL     1       5.700   5.296  17.830  0.00  0.00    +0.000 A 
ATOM      5  C   UNL     1       6.992   4.866  17.544  0.00  0.00    +0.000 A 
ATOM      6  N   UNL     1       7.495   4.744  16.294  0.00  0.00    +0.000 NA
ENDROOT
BRANCH   1   7
ATOM      7  C   UNL     1       7.178   4.863  13.867  0.00  0.00    +0.000 C 
ATOM      8  O   UNL     1       8.105   5.499  13.388  0.00  0.00    +0.000 OA
BRANCH   7  10
ATOM      9  C   UNL     1       6.885   3.627  11.897  0.00  0.00    +0.000 C 
ATOM     10  O   UNL     1       6.450   3.915  13.224  0.00  0.00    +0.000 OA
ENDBRANCH   7  10
ENDBRANCH   1   7
BRANCH   4  11
ATOM     11  C   UNL     1       5.213   5.358  19.260  0.00  0.00    +0.000 C 
BRANCH  11  12
ATOM     12  C   UNL     1       3.892   4.657  19.551  0.00  0.00    +0.000 A 
ATOM     13  C   UNL     1       3.796   3.257  19.443  0.00  0.00    +0.000 A 
ATOM     14  C   UNL     1       2.594   2.595  19.703  0.00  0.00    +0.000 A 
ATOM     15  C   UNL     1       1.474   3.317  20.103  0.00  0.00    +0.000 A 
ATOM     16  C   UNL     1       1.562   4.697  20.267  0.00  0.00    +0.000 A 
ATOM     17  C   UNL     1       2.763   5.359  20.006  0.00  0.00    +0.000 A 
ENDBRANCH  11  12
BRANCH  11  18
ATOM     18  O   UNL     1       6.279   4.820  20.047  0.00  0.00    +0.000 OA
ATOM     19  H   UNL     1       7.071   4.802  19.484  0.00  0.00    +0.000 HD
ENDBRANCH  11  18
ENDBRANCH   4  11
TORSDOF 5
ENDMDL
MODEL 3
REMARK VINA RESULT:      -7.2      1.926      2.300
REMARK  Name = 
REMARK  6 active torsions:
REMARK  status: ('A' for Active; 'I' for Inactive)
REMARK    1  A    between atoms: C_1  and  O_2
REMARK    2  A    between atoms: O_2  and  C_3
REMARK    3  A    between atoms: C_3  and  C_5
REMARK    4  A    between atoms: C_8  and  C_9
REMARK    5  A    between atoms: C_9  and  O_10
REMARK    6  A    between atoms: C_9  and  C_11
REMARK                            x       y       z     vdW  Elec       q    Type
REMARK                         _______ _______ _______ _____ _____    ______ ____
ROOT
ATOM      1  C   UNL     1       6.527   4.641  15.459  0.00  0.00    +0.000 A 
ATOM      2  C   UNL     1       5.250   4.107  15.588  0.00  0.00    +0.000 A 
ATOM      3  C   UNL     1       4.762   3.854  16.869  0.00  0.00    +0.000 A 
ATOM      4  C   UNL     1       5.554   4.143  17.990  0.00  0.00    +0.000 A 
ATOM      5  C   UNL     1       6.811   4.691  17.755  0.00  0.00    +0.000 A 
ATOM      6  N   UNL     1       7.311   4.952  16.526  0.00  0.00    +0.000 NA
ENDROOT
BRANCH   1   7
ATOM      7  C   UNL     1       7.082   4.857  14.088  0.00  0.00    +0.000 C 
ATOM      8  O   UNL     1       7.980   5.646  13.832  0.00  0.00    +0.000 OA
BRANCH   7  10
ATOM      9  C   UNL     1       7.107   3.910  11.944  0.00  0.00    +0.000 C 
ATOM     10  O   UNL     1       6.429   4.079  13.187  0.00  0.00    +0.000 OA
ENDBRANCH   7  10
ENDBRANCH   1   7
BRANCH   4  11
ATOM     11  C   UNL     1       5.100   3.847  19.402  0.00  0.00    +0.000 C 
BRANCH  11  12
ATOM     12  C   UNL     1       3.712   4.350  19.780  0.00  0.00    +0.000 A 
ATOM     13  C   UNL     1       2.760   3.464  20.319  0.00  0.00    +0.000 A 
ATOM     14  C   UNL     1       1.483   3.905  20.670  0.00  0.00    +0.000 A 
ATOM     15  C   UNL     1       1.142   5.246  20.516  0.00  0.00    +0.000 A 
ATOM     16  C   UNL     1       2.086   6.149  20.035  0.00  0.00    +0.000 A 
ATOM     17  C   UNL     1       3.364   5.708  19.682  0.00  0.00    +0.000 A 
ENDBRANCH  11  12
BRANCH  11  18
ATOM     18  O   UNL     1       5.200   2.427  19.541  0.00  0.00    +0.000 OA
ATOM     19  H   UNL     1       5.713   2.253  20.348  0.00  0.00    +0.000 HD
ENDBRANCH  11  18
ENDBRANCH   4  11
TORSDOF 5
ENDMDL
MODEL 4
REMARK VINA RESULT:      -7.2      0.696      1.618
REMARK  Name = 
REMARK  6 active torsions:
REMARK  status: ('A' for Active; 'I' for Inactive)
REMARK    1  A    between atoms: C_1  and  O_2
REMARK    2  A    between atoms: O_2  and  C_3
REMARK    3  A    between atoms: C_3  and  C_5
REMARK    4  A    between atoms: C_8  and  C_9
REMARK    5  A    between atoms: C_9  and  O_10
REMARK    6  A    between atoms: C_9  and  C_11
REMARK                            x       y       z     vdW  Elec       q    Type
REMARK                         _______ _______ _______ _____ _____    ______ ____
ROOT
ATOM      1  C   UNL     1       5.686   5.177  15.915  0.00  0.00    +0.000 A 
ATOM      2  C   UNL     1       5.220   6.484  16.000  0.00  0.00    +0.000 A 
ATOM      3  C   UNL     1       4.221   6.774  16.929  0.00  0.00    +0.000 A 
ATOM      4  C   UNL     1       3.715   5.759  17.753  0.00  0.00    +0.000 A 
ATOM      5  C   UNL     1       4.259   4.487  17.601  0.00  0.00    +0.000 A 
ATOM      6  N   UNL     1       5.230   4.175  16.713  0.00  0.00    +0.000 NA
ENDROOT
BRANCH   1   7
ATOM      7  C   UNL     1       6.711   4.845  14.879  0.00  0.00    +0.000 C 
ATOM      8  O   UNL     1       7.686   5.540  14.637  0.00  0.00    +0.000 OA
BRANCH   7  10
ATOM      9  C   UNL     1       6.425   3.758  12.822  0.00  0.00    +0.000 C 
ATOM     10  O   UNL     1       6.383   3.689  14.245  0.00  0.00    +0.000 OA
ENDBRANCH   7  10
ENDBRANCH   1   7
BRANCH   4  11
ATOM     11  C   UNL     1       2.599   6.000  18.745  0.00  0.00    +0.000 C 
BRANCH  11  12
ATOM     12  C   UNL     1       2.126   4.785  19.533  0.00  0.00    +0.000 A 
ATOM     13  C   UNL     1       2.507   4.621  20.878  0.00  0.00    +0.000 A 
ATOM     14  C   UNL     1       2.085   3.513  21.616  0.00  0.00    +0.000 A 
ATOM     15  C   UNL     1       1.253   2.563  21.032  0.00  0.00    +0.000 A 
ATOM     16  C   UNL     1       0.822   2.733  19.720  0.00  0.00    +0.000 A 
ATOM     17  C   UNL     1       1.244   3.841  18.981  0.00  0.00    +0.000 A 
ENDBRANCH  11  12
BRANCH  11  18
ATOM     18  O   UNL     1       3.079   7.033  19.610  0.00  0.00    +0.000 OA
ATOM     19  H   UNL     1       2.682   6.884  20.485  0.00  0.00    +0.000 HD
ENDBRANCH  11  18
ENDBRANCH   4  11
TORSDOF 5
ENDMDL
MODEL 5
REMARK VINA RESULT:      -7.1      1.905      2.408
REMARK  Name = 
REMARK  6 active torsions:
REMARK  status: ('A' for Active; 'I' for Inactive)
REMARK    1  A    between atoms: C_1  and  O_2
REMARK    2  A    between atoms: O_2  and  C_3
REMARK    3  A    between atoms: C_3  and  C_5
REMARK    4  A    between atoms: C_8  and  C_9
REMARK    5  A    between atoms: C_9  and  O_10
REMARK    6  A    between atoms: C_9  and  C_11
REMARK                            x       y       z     vdW  Elec       q    Type
REMARK                         _______ _______ _______ _____ _____    ______ ____
ROOT
ATOM      1  C   UNL     1       6.504   4.688  15.430  0.00  0.00    +0.000 A 
ATOM      2  C   UNL     1       5.179   4.298  15.584  0.00  0.00    +0.000 A 
ATOM      3  C   UNL     1       4.702   4.064  16.874  0.00  0.00    +0.000 A 
ATOM      4  C   UNL     1       5.552   4.229  17.976  0.00  0.00    +0.000 A 
ATOM      5  C   UNL     1       6.856   4.639  17.716  0.00  0.00    +0.000 A 
ATOM      6  N   UNL     1       7.348   4.877  16.479  0.00  0.00    +0.000 NA
ENDROOT
BRANCH   1   7
ATOM      7  C   UNL     1       7.041   4.881  14.048  0.00  0.00    +0.000 C 
ATOM      8  O   UNL     1       7.975   5.621  13.776  0.00  0.00    +0.000 OA
BRANCH   7  10
ATOM      9  C   UNL     1       7.055   3.746  11.997  0.00  0.00    +0.000 C 
ATOM     10  O   UNL     1       6.329   4.142  13.158  0.00  0.00    +0.000 OA
ENDBRANCH   7  10
ENDBRANCH   1   7
BRANCH   4  11
ATOM     11  C   UNL     1       5.107   3.944  19.393  0.00  0.00    +0.000 C 
BRANCH  11  12
ATOM     12  C   UNL     1       3.744   4.497  19.793  0.00  0.00    +0.000 A 
ATOM     13  C   UNL     1       3.430   5.847  19.552  0.00  0.00    +0.000 A 
ATOM     14  C   UNL     1       2.187   6.373  19.913  0.00  0.00    +0.000 A 
ATOM     15  C   UNL     1       1.226   5.552  20.496  0.00  0.00    +0.000 A 
ATOM     16  C   UNL     1       1.498   4.201  20.693  0.00  0.00    +0.000 A 
ATOM     17  C   UNL     1       2.740   3.675  20.333  0.00  0.00    +0.000 A 
ENDBRANCH  11  12
BRANCH  11  18
ATOM     18  O   UNL     1       5.157   2.521  19.527  0.00  0.00    +0.000 OA
ATOM     19  H   UNL     1       5.269   2.152  18.635  0.00  0.00    +0.000 HD
ENDBRANCH  11  18
ENDBRANCH   4  11
TORSDOF 5
ENDMDL
MODEL 6
REMARK VINA RESULT:      -7.1      1.857      2.189
REMARK  Name = 
REMARK  6 active torsions:
REMARK  status: ('A' for Active; 'I' for Inactive)
REMARK    1  A    between atoms: C_1  and  O_2
REMARK    2  A    between atoms: O_2  and  C_3
REMARK    3  A    between atoms: C_3  and  C_5
REMARK    4  A    between atoms: C_8  and  C_9
REMARK    5  A    between atoms: C_9  and  O_10
REMARK    6  A    between atoms: C_9  and  C_11
REMARK                            x       y       z     vdW  Elec       q    Type
REMARK                         _______ _______ _______ _____ _____    ______ ____
ROOT
ATOM      1  C   UNL     1       6.601   4.906  15.136  0.00  0.00    +0.000 A 
ATOM      2  C   UNL     1       5.306   5.361  15.355  0.00  0.00    +0.000 A 
ATOM      3  C   UNL     1       4.888   5.565  16.670  0.00  0.00    +0.000 A 
ATOM      4  C   UNL     1       5.769   5.317  17.732  0.00  0.00    +0.000 A 
ATOM      5  C   UNL     1       7.049   4.880  17.407  0.00  0.00    +0.000 A 
ATOM      6  N   UNL     1       7.486   4.676  16.143  0.00  0.00    +0.000 NA
ENDROOT
BRANCH   1   7
ATOM      7  C   UNL     1       7.038   4.624  13.735  0.00  0.00    +0.000 C 
ATOM      8  O   UNL     1       7.722   5.386  13.067  0.00  0.00    +0.000 OA
BRANCH   7  10
ATOM      9  C   UNL     1       5.801   3.484  12.102  0.00  0.00    +0.000 C 
ATOM     10  O   UNL     1       6.544   3.430  13.318  0.00  0.00    +0.000 OA
ENDBRANCH   7  10
ENDBRANCH   1   7
BRANCH   4  11
ATOM     11  C   UNL     1       5.358   5.474  19.179  0.00  0.00    +0.000 C 
BRANCH  11  12
ATOM     12  C   UNL     1       4.069   4.775  19.591  0.00  0.00    +0.000 A 
ATOM     13  C   UNL     1       2.921   5.530  19.898  0.00  0.00    +0.000 A 
ATOM     14  C   UNL     1       1.731   4.908  20.280  0.00  0.00    +0.000 A 
ATOM     15  C   UNL     1       1.657   3.519  20.335  0.00  0.00    +0.000 A 
ATOM     16  C   UNL     1       2.765   2.752  19.984  0.00  0.00    +0.000 A 
ATOM     17  C   UNL     1       3.956   3.374  19.603  0.00  0.00    +0.000 A 
ENDBRANCH  11  12
BRANCH  11  18
ATOM     18  O   UNL     1       6.475   5.010  19.942  0.00  0.00    +0.000 OA
ATOM     19  H   UNL     1       7.173   5.683  19.871  0.00  0.00    +0.000 HD
ENDBRANCH  11  18
ENDBRANCH   4  11
TORSDOF 5
ENDMDL
MODEL 7
REMARK VINA RESULT:      -7.1      1.265      1.910
REMARK  Name = 
REMARK  6 active torsions:
REMARK  status: ('A' for Active; 'I' for Inactive)
REMARK    1  A    between atoms: C_1  and  O_2
REMARK    2  A    between atoms: O_2  and  C_3
REMARK    3  A    between atoms: C_3  and  C_5
REMARK    4  A    between atoms: C_8  and  C_9
REMARK    5  A    between atoms: C_9  and  O_10
REMARK    6  A    between atoms: C_9  and  C_11
REMARK                            x       y       z     vdW  Elec       q    Type
REMARK                         _______ _______ _______ _____ _____    ______ ____
ROOT
ATOM      1  C   UNL     1       6.097   4.986  15.306  0.00  0.00    +0.000 A 
ATOM      2  C   UNL     1       5.322   6.134  15.418  0.00  0.00    +0.000 A 
ATOM      3  C   UNL     1       4.653   6.369  16.619  0.00  0.00    +0.000 A 
ATOM      4  C   UNL     1       4.776   5.460  17.679  0.00  0.00    +0.000 A 
ATOM      5  C   UNL     1       5.589   4.350  17.472  0.00  0.00    +0.000 A 
ATOM      6  N   UNL     1       6.253   4.095  16.322  0.00  0.00    +0.000 NA
ENDROOT
BRANCH   1   7
ATOM      7  C   UNL     1       6.766   4.693  14.002  0.00  0.00    +0.000 C 
ATOM      8  O   UNL     1       7.686   5.354  13.544  0.00  0.00    +0.000 OA
BRANCH   7  10
ATOM      9  C   UNL     1       6.567   3.416  12.046  0.00  0.00    +0.000 C 
ATOM     10  O   UNL     1       6.188   3.619  13.405  0.00  0.00    +0.000 OA
ENDBRANCH   7  10
ENDBRANCH   1   7
BRANCH   4  11
ATOM     11  C   UNL     1       4.039   5.636  18.987  0.00  0.00    +0.000 C 
BRANCH  11  12
ATOM     12  C   UNL     1       2.878   4.681  19.237  0.00  0.00    +0.000 A 
ATOM     13  C   UNL     1       2.437   4.432  20.551  0.00  0.00    +0.000 A 
ATOM     14  C   UNL     1       1.377   3.558  20.801  0.00  0.00    +0.000 A 
ATOM     15  C   UNL     1       0.719   2.939  19.742  0.00  0.00    +0.000 A 
ATOM     16  C   UNL     1       1.105   3.213  18.432  0.00  0.00    +0.000 A 
ATOM     17  C   UNL     1       2.166   4.086  18.182  0.00  0.00    +0.000 A 
ENDBRANCH  11  12
BRANCH  11  18
ATOM     18  O   UNL     1       5.039   5.526  20.004  0.00  0.00    +0.000 OA
ATOM     19  H   UNL     1       4.726   6.033  20.771  0.00  0.00    +0.000 HD
ENDBRANCH  11  18
ENDBRANCH   4  11
TORSDOF 5
ENDMDL
MODEL 8
REMARK VINA RESULT:      -7.1      1.116      1.221
REMARK  Name = 
REMARK  6 active torsions:
REMARK  status: ('A' for Active; 'I' for Inactive)
REMARK    1  A    between atoms: C_1  and  O_2
REMARK    2  A    between atoms: O_2  and  C_3
REMARK    3  A    between atoms: C_3  and  C_5
REMARK    4  A    between atoms: C_8  and  C_9
REMARK    5  A    between atoms: C_9  and  O_10
REMARK    6  A    between atoms: C_9  and  C_11
REMARK                            x       y       z     vdW  Elec       q    Type
REMARK                         _______ _______ _______ _____ _____    ______ ____
ROOT
ATOM      1  C   UNL     1       6.148   4.967  15.252  0.00  0.00    +0.000 A 
ATOM      2  C   UNL     1       6.239   3.995  16.242  0.00  0.00    +0.000 A 
ATOM      3  C   UNL     1       5.543   4.194  17.434  0.00  0.00    +0.000 A 
ATOM      4  C   UNL     1       4.771   5.351  17.610  0.00  0.00    +0.000 A 
ATOM      5  C   UNL     1       4.732   6.256  16.553  0.00  0.00    +0.000 A 
ATOM      6  N   UNL     1       5.392   6.090  15.384  0.00  0.00    +0.000 NA
ENDROOT
BRANCH   1   7
ATOM      7  C   UNL     1       6.940   4.793  13.997  0.00  0.00    +0.000 C 
ATOM      8  O   UNL     1       7.923   5.460  13.712  0.00  0.00    +0.000 OA
BRANCH   7  10
ATOM      9  C   UNL     1       6.950   3.710  11.918  0.00  0.00    +0.000 C 
ATOM     10  O   UNL     1       6.393   3.818  13.226  0.00  0.00    +0.000 OA
ENDBRANCH   7  10
ENDBRANCH   1   7
BRANCH   4  11
ATOM     11  C   UNL     1       4.034   5.646  18.897  0.00  0.00    +0.000 C 
BRANCH  11  12
ATOM     12  C   UNL     1       2.844   4.746  19.210  0.00  0.00    +0.000 A 
ATOM     13  C   UNL     1       2.247   3.981  18.191  0.00  0.00    +0.000 A 
ATOM     14  C   UNL     1       1.155   3.153  18.457  0.00  0.00    +0.000 A 
ATOM     15  C   UNL     1       0.656   3.053  19.752  0.00  0.00    +0.000 A 
ATOM     16  C   UNL     1       1.265   3.761  20.785  0.00  0.00    +0.000 A 
ATOM     17  C   UNL     1       2.357   4.590  20.519  0.00  0.00    +0.000 A 
ENDBRANCH  11  12
BRANCH  11  18
ATOM     18  O   UNL     1       5.026   5.582  19.925  0.00  0.00    +0.000 OA
ATOM     19  H   UNL     1       5.847   5.265  19.514  0.00  0.00    +0.000 HD
ENDBRANCH  11  18
ENDBRANCH   4  11
TORSDOF 5
ENDMDL
MODEL 9
REMARK VINA RESULT:      -7.0      0.889      1.447
REMARK  Name = 
REMARK  6 active torsions:
REMARK  status: ('A' for Active; 'I' for Inactive)
REMARK    1  A    between atoms: C_1  and  O_2
REMARK    2  A    between atoms: O_2  and  C_3
REMARK    3  A    between atoms: C_3  and  C_5
REMARK    4  A    between atoms: C_8  and  C_9
REMARK    5  A    between atoms: C_9  and  O_10
REMARK    6  A    between atoms: C_9  and  C_11
REMARK                            x       y       z     vdW  Elec       q    Type
REMARK                         _______ _______ _______ _____ _____    ______ ____
ROOT
ATOM      1  C   UNL     1       5.946   4.939  15.189  0.00  0.00    +0.000 A 
ATOM      2  C   UNL     1       5.642   3.865  16.017  0.00  0.00    +0.000 A 
ATOM      3  C   UNL     1       4.869   4.101  17.154  0.00  0.00    +0.000 A 
ATOM      4  C   UNL     1       4.414   5.398  17.435  0.00  0.00    +0.000 A 
ATOM      5  C   UNL     1       4.759   6.401  16.534  0.00  0.00    +0.000 A 
ATOM      6  N   UNL     1       5.503   6.204  15.422  0.00  0.00    +0.000 NA
ENDROOT
BRANCH   1   7
ATOM      7  C   UNL     1       6.826   4.707  14.003  0.00  0.00    +0.000 C 
ATOM      8  O   UNL     1       7.647   5.514  13.595  0.00  0.00    +0.000 OA
BRANCH   7  10
ATOM      9  C   UNL     1       5.718   3.547  12.293  0.00  0.00    +0.000 C 
ATOM     10  O   UNL     1       6.556   3.499  13.445  0.00  0.00    +0.000 OA
ENDBRANCH   7  10
ENDBRANCH   1   7
BRANCH   4  11
ATOM     11  C   UNL     1       3.614   5.724  18.675  0.00  0.00    +0.000 C 
BRANCH  11  12
ATOM     12  C   UNL     1       2.576   4.691  19.097  0.00  0.00    +0.000 A 
ATOM     13  C   UNL     1       2.333   4.450  20.462  0.00  0.00    +0.000 A 
ATOM     14  C   UNL     1       1.388   3.505  20.869  0.00  0.00    +0.000 A 
ATOM     15  C   UNL     1       0.650   2.805  19.920  0.00  0.00    +0.000 A 
ATOM     16  C   UNL     1       0.838   3.067  18.566  0.00  0.00    +0.000 A 
ATOM     17  C   UNL     1       1.783   4.010  18.158  0.00  0.00    +0.000 A 
ENDBRANCH  11  12
BRANCH  11  18
ATOM     18  O   UNL     1       4.583   5.946  19.704  0.00  0.00    +0.000 OA
ATOM     19  H   UNL     1       5.366   5.415  19.481  0.00  0.00    +0.000 HD
ENDBRANCH  11  18
ENDBRANCH   4  11
TORSDOF 5
ENDMDL
