MODEL 1
REMARK VINA RESULT:      -7.5      0.000      0.000
REMARK  Name = 
REMARK  5 active torsions:
REMARK  status: ('A' for Active; 'I' for Inactive)
REMARK    1  A    between atoms: C_1  and  C_2
REMARK    2  A    between atoms: C_3  and  C_4
REMARK    3  A    between atoms: N_6  and  C_7
REMARK    4  A    between atoms: N_6  and  C_8
REMARK    5  A    between atoms: N_23  and  C_24
REMARK                            x       y       z     vdW  Elec       q    Type
REMARK                         _______ _______ _______ _____ _____    ______ ____
ROOT
ATOM      1  C   UNL     1      -1.027  10.354  19.026  0.00  0.00    +0.000 C 
ATOM      2  C   UNL     1       0.223  11.189  18.943  0.00  0.00    +0.000 A 
ATOM      3  C   UNL     1       1.466  10.666  18.546  0.00  0.00    +0.000 A 
ATOM      4  S   UNL     1       2.561  11.927  18.216  0.00  0.00    +0.000 S 
ATOM      5  C   UNL     1       1.529  13.113  18.852  0.00  0.00    +0.000 A 
ATOM      6  N   UNL     1       1.960  14.378  18.886  0.00  0.00    +0.000 NA
ATOM      7  C   UNL     1       1.043  15.212  19.361  0.00  0.00    +0.000 A 
ATOM      8  N   UNL     1      -0.183  14.900  19.800  0.00  0.00    +0.000 NA
ATOM      9  C   UNL     1      -0.608  13.610  19.793  0.00  0.00    +0.000 A 
ATOM     10  N   UNL     1      -1.869  13.377  20.317  0.00  0.00    +0.000 N 
ATOM     11  C   UNL     1      -2.179  12.173  21.089  0.00  0.00    +0.000 C 
ATOM     12  C   UNL     1      -2.676  12.463  22.507  0.00  0.00    +0.000 C 
ATOM     13  N   UNL     1      -3.751  13.454  22.510  0.00  0.00    +0.000 N 
ATOM     14  C   UNL     1      -3.400  14.712  21.827  0.00  0.00    +0.000 C 
ATOM     15  C   UNL     1      -2.871  14.462  20.389  0.00  0.00    +0.000 C 
ATOM     16  C   UNL     1       0.291  12.624  19.255  0.00  0.00    +0.000 A 
ENDROOT
BRANCH  13  17
ATOM     17  C   UNL     1      -5.059  13.110  22.811  0.00  0.00    +0.000 A 
ATOM     18  C   UNL     1      -6.048  13.232  21.825  0.00  0.00    +0.000 A 
ATOM     19  C   UNL     1      -7.400  12.980  22.096  0.00  0.00    +0.000 A 
ATOM     20  C   UNL     1      -7.800  12.586  23.368  0.00  0.00    +0.000 A 
ATOM     21  C   UNL     1      -6.844  12.442  24.367  0.00  0.00    +0.000 A 
ATOM     22  C   UNL     1      -5.497  12.703  24.086  0.00  0.00    +0.000 A 
ATOM     23  F   UNL     1      -4.623  12.526  25.090  0.00  0.00    +0.000 F 
ENDBRANCH  13  17
BRANCH   3  24
ATOM     24  C   UNL     1       1.746   9.263  18.210  0.00  0.00    +0.000 C 
ATOM     25  O   UNL     1       1.830   8.952  17.018  0.00  0.00    +0.000 OA
ATOM     26  N   UNL     1       1.920   8.231  19.162  0.00  0.00    +0.000 N 
ATOM     27  C   UNL     1       1.627   8.293  20.590  0.00  0.00    +0.000 C 
BRANCH  26  28
ATOM     28  C   UNL     1       2.424   6.956  18.627  0.00  0.00    +0.000 C 
ATOM     29  C   UNL     1       2.211   5.738  19.530  0.00  0.00    +0.000 C 
ATOM     30  C   UNL     1       2.401   4.479  18.680  0.00  0.00    +0.000 C 
ATOM     31  C   UNL     1       3.759   4.458  17.966  0.00  0.00    +0.000 C 
ATOM     32  C   UNL     1       4.136   5.777  17.277  0.00  0.00    +0.000 C 
ATOM     33  C   UNL     1       3.881   7.001  18.161  0.00  0.00    +0.000 C 
ENDBRANCH  26  28
ENDBRANCH   3  24
TORSDOF 3
ENDMDL
MODEL 2
REMARK VINA RESULT:      -7.2      4.357      7.674
REMARK  Name = 
REMARK  5 active torsions:
REMARK  status: ('A' for Active; 'I' for Inactive)
REMARK    1  A    between atoms: C_1  and  C_2
REMARK    2  A    between atoms: C_3  and  C_4
REMARK    3  A    between atoms: N_6  and  C_7
REMARK    4  A    between atoms: N_6  and  C_8
REMARK    5  A    between atoms: N_23  and  C_24
REMARK                            x       y       z     vdW  Elec       q    Type
REMARK                         _______ _______ _______ _____ _____    ______ ____
ROOT
ATOM      1  C   UNL     1       4.266   7.064  17.121  0.00  0.00    +0.000 C 
ATOM      2  C   UNL     1       3.793   5.749  17.681  0.00  0.00    +0.000 A 
ATOM      3  C   UNL     1       4.132   4.510  17.110  0.00  0.00    +0.000 A 
ATOM      4  S   UNL     1       3.744   3.241  18.177  0.00  0.00    +0.000 S 
ATOM      5  C   UNL     1       2.895   4.263  19.230  0.00  0.00    +0.000 A 
ATOM      6  N   UNL     1       2.295   3.720  20.295  0.00  0.00    +0.000 NA
ATOM      7  C   UNL     1       1.707   4.631  21.062  0.00  0.00    +0.000 A 
ATOM      8  N   UNL     1       1.651   5.952  20.850  0.00  0.00    +0.000 NA
ATOM      9  C   UNL     1       2.234   6.497  19.752  0.00  0.00    +0.000 A 
ATOM     10  N   UNL     1       2.077   7.863  19.589  0.00  0.00    +0.000 N 
ATOM     11  C   UNL     1       1.902   8.473  18.270  0.00  0.00    +0.000 C 
ATOM     12  C   UNL     1       0.597   9.259  18.124  0.00  0.00    +0.000 C 
ATOM     13  N   UNL     1       0.403  10.193  19.231  0.00  0.00    +0.000 N 
ATOM     14  C   UNL     1       0.469   9.559  20.561  0.00  0.00    +0.000 C 
ATOM     15  C   UNL     1       1.771   8.733  20.744  0.00  0.00    +0.000 C 
ATOM     16  C   UNL     1       2.942   5.605  18.871  0.00  0.00    +0.000 A 
ENDROOT
BRANCH  13  17
ATOM     17  C   UNL     1       0.498  11.563  19.055  0.00  0.00    +0.000 A 
ATOM     18  C   UNL     1       1.757  12.146  18.851  0.00  0.00    +0.000 A 
ATOM     19  C   UNL     1       1.925  13.534  18.751  0.00  0.00    +0.000 A 
ATOM     20  C   UNL     1       0.827  14.382  18.842  0.00  0.00    +0.000 A 
ATOM     21  C   UNL     1      -0.438  13.838  19.030  0.00  0.00    +0.000 A 
ATOM     22  C   UNL     1      -0.592  12.450  19.136  0.00  0.00    +0.000 A 
ATOM     23  F   UNL     1      -1.843  11.990  19.297  0.00  0.00    +0.000 F 
ENDBRANCH  13  17
BRANCH   3  24
ATOM     24  C   UNL     1       4.929   4.307  15.893  0.00  0.00    +0.000 C 
ATOM     25  O   UNL     1       4.339   4.022  14.847  0.00  0.00    +0.000 OA
ATOM     26  N   UNL     1       6.339   4.406  15.834  0.00  0.00    +0.000 N 
ATOM     27  C   UNL     1       7.263   4.483  16.960  0.00  0.00    +0.000 C 
BRANCH  26  28
ATOM     28  C   UNL     1       6.917   4.401  14.481  0.00  0.00    +0.000 C 
ATOM     29  C   UNL     1       7.420   5.757  13.978  0.00  0.00    +0.000 C 
ATOM     30  C   UNL     1       8.336   5.507  12.778  0.00  0.00    +0.000 C 
ATOM     31  C   UNL     1       7.648   4.687  11.680  0.00  0.00    +0.000 C 
ATOM     32  C   UNL     1       6.885   3.456  12.189  0.00  0.00    +0.000 C 
ATOM     33  C   UNL     1       6.022   3.759  13.417  0.00  0.00    +0.000 C 
ENDBRANCH  26  28
ENDBRANCH   3  24
TORSDOF 3
ENDMDL
MODEL 3
REMARK VINA RESULT:      -7.2      3.732      5.553
REMARK  Name = 
REMARK  5 active torsions:
REMARK  status: ('A' for Active; 'I' for Inactive)
REMARK    1  A    between atoms: C_1  and  C_2
REMARK    2  A    between atoms: C_3  and  C_4
REMARK    3  A    between atoms: N_6  and  C_7
REMARK    4  A    between atoms: N_6  and  C_8
REMARK    5  A    between atoms: N_23  and  C_24
REMARK                            x       y       z     vdW  Elec       q    Type
REMARK                         _______ _______ _______ _____ _____    ______ ____
ROOT
ATOM      1  C   UNL     1       2.260  10.632  18.661  0.00  0.00    +0.000 C 
ATOM      2  C   UNL     1       1.492   9.788  19.642  0.00  0.00    +0.000 A 
ATOM      3  C   UNL     1       1.463   8.384  19.583  0.00  0.00    +0.000 A 
ATOM      4  S   UNL     1       0.817   7.744  21.023  0.00  0.00    +0.000 S 
ATOM      5  C   UNL     1       0.323   9.266  21.585  0.00  0.00    +0.000 A 
ATOM      6  N   UNL     1      -0.338   9.330  22.746  0.00  0.00    +0.000 NA
ATOM      7  C   UNL     1      -0.626  10.578  23.095  0.00  0.00    +0.000 A 
ATOM      8  N   UNL     1      -0.346  11.694  22.410  0.00  0.00    +0.000 NA
ATOM      9  C   UNL     1       0.299  11.625  21.216  0.00  0.00    +0.000 A 
ATOM     10  N   UNL     1       0.495  12.825  20.555  0.00  0.00    +0.000 N 
ATOM     11  C   UNL     1       0.414  12.932  19.098  0.00  0.00    +0.000 C 
ATOM     12  C   UNL     1      -0.647  13.923  18.612  0.00  0.00    +0.000 C 
ATOM     13  N   UNL     1      -0.529  15.213  19.288  0.00  0.00    +0.000 N 
ATOM     14  C   UNL     1      -0.558  15.118  20.759  0.00  0.00    +0.000 C 
ATOM     15  C   UNL     1       0.492  14.106  21.294  0.00  0.00    +0.000 C 
ATOM     16  C   UNL     1       0.700  10.320  20.760  0.00  0.00    +0.000 A 
ENDROOT
BRANCH  13  17
ATOM     17  C   UNL     1      -0.088  16.347  18.625  0.00  0.00    +0.000 A 
ATOM     18  C   UNL     1      -1.020  17.308  18.210  0.00  0.00    +0.000 A 
ATOM     19  C   UNL     1      -0.644  18.432  17.461  0.00  0.00    +0.000 A 
ATOM     20  C   UNL     1       0.688  18.631  17.115  0.00  0.00    +0.000 A 
ATOM     21  C   UNL     1       1.642  17.705  17.522  0.00  0.00    +0.000 A 
ATOM     22  C   UNL     1       1.252  16.582  18.263  0.00  0.00    +0.000 A 
ATOM     23  F   UNL     1       2.225  15.738  18.641  0.00  0.00    +0.000 F 
ENDBRANCH  13  17
BRANCH   3  24
ATOM     24  C   UNL     1       2.112   7.547  18.565  0.00  0.00    +0.000 C 
ATOM     25  O   UNL     1       1.933   7.827  17.376  0.00  0.00    +0.000 OA
ATOM     26  N   UNL     1       2.927   6.426  18.851  0.00  0.00    +0.000 N 
ATOM     27  C   UNL     1       3.083   5.757  20.137  0.00  0.00    +0.000 C 
BRANCH  26  28
ATOM     28  C   UNL     1       3.666   5.874  17.704  0.00  0.00    +0.000 C 
ATOM     29  C   UNL     1       4.100   4.412  17.847  0.00  0.00    +0.000 C 
ATOM     30  C   UNL     1       4.468   3.889  16.457  0.00  0.00    +0.000 C 
ATOM     31  C   UNL     1       5.530   4.757  15.769  0.00  0.00    +0.000 C 
ATOM     32  C   UNL     1       5.267   6.268  15.852  0.00  0.00    +0.000 C 
ATOM     33  C   UNL     1       4.860   6.722  17.257  0.00  0.00    +0.000 C 
ENDBRANCH  26  28
ENDBRANCH   3  24
TORSDOF 3
ENDMDL
MODEL 4
REMARK VINA RESULT:      -7.2      5.421      7.376
REMARK  Name = 
REMARK  5 active torsions:
REMARK  status: ('A' for Active; 'I' for Inactive)
REMARK    1  A    between atoms: C_1  and  C_2
REMARK    2  A    between atoms: C_3  and  C_4
REMARK    3  A    between atoms: N_6  and  C_7
REMARK    4  A    between atoms: N_6  and  C_8
REMARK    5  A    between atoms: N_23  and  C_24
REMARK                            x       y       z     vdW  Elec       q    Type
REMARK                         _______ _______ _______ _____ _____    ______ ____
ROOT
ATOM      1  C   UNL     1       4.674  14.254  17.956  0.00  0.00    +0.000 C 
ATOM      2  C   UNL     1       4.948  15.431  18.853  0.00  0.00    +0.000 A 
ATOM      3  C   UNL     1       6.247  15.879  19.150  0.00  0.00    +0.000 A 
ATOM      4  S   UNL     1       6.191  17.416  19.880  0.00  0.00    +0.000 S 
ATOM      5  C   UNL     1       4.506  17.369  20.063  0.00  0.00    +0.000 A 
ATOM      6  N   UNL     1       3.905  18.393  20.678  0.00  0.00    +0.000 NA
ATOM      7  C   UNL     1       2.585  18.257  20.715  0.00  0.00    +0.000 A 
ATOM      8  N   UNL     1       1.864  17.232  20.240  0.00  0.00    +0.000 NA
ATOM      9  C   UNL     1       2.479  16.178  19.643  0.00  0.00    +0.000 A 
ATOM     10  N   UNL     1       1.658  15.142  19.234  0.00  0.00    +0.000 N 
ATOM     11  C   UNL     1       2.073  13.740  19.321  0.00  0.00    +0.000 C 
ATOM     12  C   UNL     1       1.148  12.878  20.182  0.00  0.00    +0.000 C 
ATOM     13  N   UNL     1      -0.255  13.051  19.806  0.00  0.00    +0.000 N 
ATOM     14  C   UNL     1      -0.705  14.455  19.825  0.00  0.00    +0.000 C 
ATOM     15  C   UNL     1       0.220  15.370  18.979  0.00  0.00    +0.000 C 
ATOM     16  C   UNL     1       3.911  16.242  19.508  0.00  0.00    +0.000 A 
ENDROOT
BRANCH  13  17
ATOM     17  C   UNL     1      -0.969  12.049  19.170  0.00  0.00    +0.000 A 
ATOM     18  C   UNL     1      -0.278  11.036  18.490  0.00  0.00    +0.000 A 
ATOM     19  C   UNL     1      -0.946  10.045  17.758  0.00  0.00    +0.000 A 
ATOM     20  C   UNL     1      -2.335  10.034  17.696  0.00  0.00    +0.000 A 
ATOM     21  C   UNL     1      -3.053  11.015  18.371  0.00  0.00    +0.000 A 
ATOM     22  C   UNL     1      -2.374  12.005  19.092  0.00  0.00    +0.000 A 
ATOM     23  F   UNL     1      -3.127  12.910  19.736  0.00  0.00    +0.000 F 
ENDBRANCH  13  17
BRANCH   3  24
ATOM     24  C   UNL     1       7.500  15.263  18.692  0.00  0.00    +0.000 C 
ATOM     25  O   UNL     1       7.853  15.453  17.525  0.00  0.00    +0.000 OA
ATOM     26  N   UNL     1       8.334  14.453  19.498  0.00  0.00    +0.000 N 
ATOM     27  C   UNL     1       8.016  13.888  20.804  0.00  0.00    +0.000 C 
BRANCH  26  28
ATOM     28  C   UNL     1       9.650  14.134  18.922  0.00  0.00    +0.000 C 
ATOM     29  C   UNL     1       9.793  12.716  18.360  0.00  0.00    +0.000 C 
ATOM     30  C   UNL     1      11.028  12.687  17.457  0.00  0.00    +0.000 C 
ATOM     31  C   UNL     1      12.292  13.166  18.181  0.00  0.00    +0.000 C 
ATOM     32  C   UNL     1      12.108  14.454  18.997  0.00  0.00    +0.000 C 
ATOM     33  C   UNL     1      10.833  14.441  19.845  0.00  0.00    +0.000 C 
ENDBRANCH  26  28
ENDBRANCH   3  24
TORSDOF 3
ENDMDL
MODEL 5
REMARK VINA RESULT:      -7.1      5.825     10.341
REMARK  Name = 
REMARK  5 active torsions:
REMARK  status: ('A' for Active; 'I' for Inactive)
REMARK    1  A    between atoms: C_1  and  C_2
REMARK    2  A    between atoms: C_3  and  C_4
REMARK    3  A    between atoms: N_6  and  C_7
REMARK    4  A    between atoms: N_6  and  C_8
REMARK    5  A    between atoms: N_23  and  C_24
REMARK                            x       y       z     vdW  Elec       q    Type
REMARK                         _______ _______ _______ _____ _____    ______ ____
ROOT
ATOM      1  C   UNL     1       3.102  13.364  19.189  0.00  0.00    +0.000 C 
ATOM      2  C   UNL     1       2.551  14.715  19.558  0.00  0.00    +0.000 A 
ATOM      3  C   UNL     1       1.187  15.037  19.458  0.00  0.00    +0.000 A 
ATOM      4  S   UNL     1       0.860  16.491  20.282  0.00  0.00    +0.000 S 
ATOM      5  C   UNL     1       2.504  16.836  20.514  0.00  0.00    +0.000 A 
ATOM      6  N   UNL     1       2.833  17.985  21.114  0.00  0.00    +0.000 NA
ATOM      7  C   UNL     1       4.145  18.112  21.277  0.00  0.00    +0.000 A 
ATOM      8  N   UNL     1       5.095  17.251  20.890  0.00  0.00    +0.000 NA
ATOM      9  C   UNL     1       4.760  16.100  20.252  0.00  0.00    +0.000 A 
ATOM     10  N   UNL     1       5.812  15.299  19.841  0.00  0.00    +0.000 N 
ATOM     11  C   UNL     1       5.772  14.547  18.585  0.00  0.00    +0.000 C 
ATOM     12  C   UNL     1       6.903  14.904  17.618  0.00  0.00    +0.000 C 
ATOM     13  N   UNL     1       8.207  14.873  18.278  0.00  0.00    +0.000 N 
ATOM     14  C   UNL     1       8.283  15.719  19.484  0.00  0.00    +0.000 C 
ATOM     15  C   UNL     1       7.139  15.402  20.485  0.00  0.00    +0.000 C 
ATOM     16  C   UNL     1       3.358  15.836  20.062  0.00  0.00    +0.000 A 
ENDROOT
BRANCH  13  17
ATOM     17  C   UNL     1       9.142  13.890  17.998  0.00  0.00    +0.000 A 
ATOM     18  C   UNL     1       8.836  12.549  18.270  0.00  0.00    +0.000 A 
ATOM     19  C   UNL     1       9.772  11.523  18.087  0.00  0.00    +0.000 A 
ATOM     20  C   UNL     1      11.047  11.811  17.613  0.00  0.00    +0.000 A 
ATOM     21  C   UNL     1      11.381  13.128  17.320  0.00  0.00    +0.000 A 
ATOM     22  C   UNL     1      10.439  14.146  17.514  0.00  0.00    +0.000 A 
ATOM     23  F   UNL     1      10.820  15.393  17.193  0.00  0.00    +0.000 F 
ENDBRANCH  13  17
BRANCH   3  24
ATOM     24  C   UNL     1       0.126  14.157  18.950  0.00  0.00    +0.000 C 
ATOM     25  O   UNL     1      -0.374  14.417  17.851  0.00  0.00    +0.000 OA
ATOM     26  N   UNL     1      -0.377  13.029  19.640  0.00  0.00    +0.000 N 
ATOM     27  C   UNL     1      -0.132  12.667  21.031  0.00  0.00    +0.000 C 
BRANCH  26  28
ATOM     28  C   UNL     1      -1.265  12.154  18.857  0.00  0.00    +0.000 C 
ATOM     29  C   UNL     1      -2.722  12.112  19.326  0.00  0.00    +0.000 C 
ATOM     30  C   UNL     1      -3.566  11.514  18.198  0.00  0.00    +0.000 C 
ATOM     31  C   UNL     1      -3.049  10.142  17.747  0.00  0.00    +0.000 C 
ATOM     32  C   UNL     1      -1.529  10.073  17.536  0.00  0.00    +0.000 C 
ATOM     33  C   UNL     1      -0.743  10.727  18.676  0.00  0.00    +0.000 C 
ENDBRANCH  26  28
ENDBRANCH   3  24
TORSDOF 3
ENDMDL
MODEL 6
REMARK VINA RESULT:      -7.1      4.514      7.820
REMARK  Name = 
REMARK  5 active torsions:
REMARK  status: ('A' for Active; 'I' for Inactive)
REMARK    1  A    between atoms: C_1  and  C_2
REMARK    2  A    between atoms: C_3  and  C_4
REMARK    3  A    between atoms: N_6  and  C_7
REMARK    4  A    between atoms: N_6  and  C_8
REMARK    5  A    between atoms: N_23  and  C_24
REMARK                            x       y       z     vdW  Elec       q    Type
REMARK                         _______ _______ _______ _____ _____    ______ ____
ROOT
ATOM      1  C   UNL     1       4.302   7.006  17.185  0.00  0.00    +0.000 C 
ATOM      2  C   UNL     1       3.800   5.683  17.699  0.00  0.00    +0.000 A 
ATOM      3  C   UNL     1       4.123   4.456  17.095  0.00  0.00    +0.000 A 
ATOM      4  S   UNL     1       3.702   3.163  18.118  0.00  0.00    +0.000 S 
ATOM      5  C   UNL     1       2.859   4.167  19.193  0.00  0.00    +0.000 A 
ATOM      6  N   UNL     1       2.239   3.604  20.235  0.00  0.00    +0.000 NA
ATOM      7  C   UNL     1       1.658   4.501  21.023  0.00  0.00    +0.000 A 
ATOM      8  N   UNL     1       1.628   5.829  20.851  0.00  0.00    +0.000 NA
ATOM      9  C   UNL     1       2.233   6.397  19.775  0.00  0.00    +0.000 A 
ATOM     10  N   UNL     1       2.101   7.769  19.652  0.00  0.00    +0.000 N 
ATOM     11  C   UNL     1       1.951   8.422  18.351  0.00  0.00    +0.000 C 
ATOM     12  C   UNL     1       0.661   9.235  18.215  0.00  0.00    +0.000 C 
ATOM     13  N   UNL     1       0.472  10.138  19.349  0.00  0.00    +0.000 N 
ATOM     14  C   UNL     1       0.513   9.463  20.659  0.00  0.00    +0.000 C 
ATOM     15  C   UNL     1       1.799   8.610  20.830  0.00  0.00    +0.000 C 
ATOM     16  C   UNL     1       2.934   5.519  18.876  0.00  0.00    +0.000 A 
ENDROOT
BRANCH  13  17
ATOM     17  C   UNL     1       0.594  11.512  19.215  0.00  0.00    +0.000 A 
ATOM     18  C   UNL     1      -0.440  12.343  19.671  0.00  0.00    +0.000 A 
ATOM     19  C   UNL     1      -0.411  13.731  19.486  0.00  0.00    +0.000 A 
ATOM     20  C   UNL     1       0.668  14.332  18.845  0.00  0.00    +0.000 A 
ATOM     21  C   UNL     1       1.717  13.541  18.393  0.00  0.00    +0.000 A 
ATOM     22  C   UNL     1       1.672  12.153  18.577  0.00  0.00    +0.000 A 
ATOM     23  F   UNL     1       2.727  11.449  18.134  0.00  0.00    +0.000 F 
ENDBRANCH  13  17
BRANCH   3  24
ATOM     24  C   UNL     1       4.930   4.276  15.880  0.00  0.00    +0.000 C 
ATOM     25  O   UNL     1       4.348   4.005  14.825  0.00  0.00    +0.000 OA
ATOM     26  N   UNL     1       6.340   4.382  15.833  0.00  0.00    +0.000 N 
ATOM     27  C   UNL     1       7.256   4.445  16.967  0.00  0.00    +0.000 C 
BRANCH  26  28
ATOM     28  C   UNL     1       6.927   4.400  14.484  0.00  0.00    +0.000 C 
ATOM     29  C   UNL     1       7.419   5.768  14.002  0.00  0.00    +0.000 C 
ATOM     30  C   UNL     1       8.346   5.544  12.806  0.00  0.00    +0.000 C 
ATOM     31  C   UNL     1       7.675   4.730  11.692  0.00  0.00    +0.000 C 
ATOM     32  C   UNL     1       6.922   3.484  12.180  0.00  0.00    +0.000 C 
ATOM     33  C   UNL     1       6.047   3.762  13.406  0.00  0.00    +0.000 C 
ENDBRANCH  26  28
ENDBRANCH   3  24
TORSDOF 3
ENDMDL
MODEL 7
REMARK VINA RESULT:      -7.0      5.620      7.556
REMARK  Name = 
REMARK  5 active torsions:
REMARK  status: ('A' for Active; 'I' for Inactive)
REMARK    1  A    between atoms: C_1  and  C_2
REMARK    2  A    between atoms: C_3  and  C_4
REMARK    3  A    between atoms: N_6  and  C_7
REMARK    4  A    between atoms: N_6  and  C_8
REMARK    5  A    between atoms: N_23  and  C_24
REMARK                            x       y       z     vdW  Elec       q    Type
REMARK                         _______ _______ _______ _____ _____    ______ ____
ROOT
ATOM      1  C   UNL     1       4.757  14.406  17.954  0.00  0.00    +0.000 C 
ATOM      2  C   UNL     1       5.003  15.573  18.873  0.00  0.00    +0.000 A 
ATOM      3  C   UNL     1       6.291  16.026  19.204  0.00  0.00    +0.000 A 
ATOM      4  S   UNL     1       6.207  17.553  19.954  0.00  0.00    +0.000 S 
ATOM      5  C   UNL     1       4.519  17.490  20.101  0.00  0.00    +0.000 A 
ATOM      6  N   UNL     1       3.897  18.501  20.717  0.00  0.00    +0.000 NA
ATOM      7  C   UNL     1       2.578  18.353  20.724  0.00  0.00    +0.000 A 
ATOM      8  N   UNL     1       1.876  17.330  20.219  0.00  0.00    +0.000 NA
ATOM      9  C   UNL     1       2.512  16.289  19.621  0.00  0.00    +0.000 A 
ATOM     10  N   UNL     1       1.708  15.252  19.180  0.00  0.00    +0.000 N 
ATOM     11  C   UNL     1       2.132  13.853  19.256  0.00  0.00    +0.000 C 
ATOM     12  C   UNL     1       1.196  12.971  20.085  0.00  0.00    +0.000 C 
ATOM     13  N   UNL     1      -0.199  13.138  19.683  0.00  0.00    +0.000 N 
ATOM     14  C   UNL     1      -0.661  14.538  19.712  0.00  0.00    +0.000 C 
ATOM     15  C   UNL     1       0.274  15.473  18.898  0.00  0.00    +0.000 C 
ATOM     16  C   UNL     1       3.945  16.366  19.517  0.00  0.00    +0.000 A 
ENDROOT
BRANCH  13  17
ATOM     17  C   UNL     1      -0.892  12.140  19.018  0.00  0.00    +0.000 A 
ATOM     18  C   UNL     1      -2.291  12.202  18.946  0.00  0.00    +0.000 A 
ATOM     19  C   UNL     1      -3.049  11.179  18.360  0.00  0.00    +0.000 A 
ATOM     20  C   UNL     1      -2.422  10.063  17.817  0.00  0.00    +0.000 A 
ATOM     21  C   UNL     1      -1.035   9.974  17.859  0.00  0.00    +0.000 A 
ATOM     22  C   UNL     1      -0.289  11.000  18.453  0.00  0.00    +0.000 A 
ATOM     23  F   UNL     1       1.046  10.861  18.442  0.00  0.00    +0.000 F 
ENDBRANCH  13  17
BRANCH   3  24
ATOM     24  C   UNL     1       7.559  15.427  18.765  0.00  0.00    +0.000 C 
ATOM     25  O   UNL     1       7.959  15.675  17.623  0.00  0.00    +0.000 OA
ATOM     26  N   UNL     1       8.357  14.570  19.559  0.00  0.00    +0.000 N 
ATOM     27  C   UNL     1       7.984  13.940  20.820  0.00  0.00    +0.000 C 
BRANCH  26  28
ATOM     28  C   UNL     1       9.693  14.273  19.020  0.00  0.00    +0.000 C 
ATOM     29  C   UNL     1       9.798  12.981  18.204  0.00  0.00    +0.000 C 
ATOM     30  C   UNL     1      11.095  13.035  17.395  0.00  0.00    +0.000 C 
ATOM     31  C   UNL     1      12.325  13.277  18.280  0.00  0.00    +0.000 C 
ATOM     32  C   UNL     1      12.152  14.397  19.316  0.00  0.00    +0.000 C 
ATOM     33  C   UNL     1      10.816  14.314  20.060  0.00  0.00    +0.000 C 
ENDBRANCH  26  28
ENDBRANCH   3  24
TORSDOF 3
ENDMDL
MODEL 8
REMARK VINA RESULT:      -7.0      5.756     10.090
REMARK  Name = 
REMARK  5 active torsions:
REMARK  status: ('A' for Active; 'I' for Inactive)
REMARK    1  A    between atoms: C_1  and  C_2
REMARK    2  A    between atoms: C_3  and  C_4
REMARK    3  A    between atoms: N_6  and  C_7
REMARK    4  A    between atoms: N_6  and  C_8
REMARK    5  A    between atoms: N_23  and  C_24
REMARK                            x       y       z     vdW  Elec       q    Type
REMARK                         _______ _______ _______ _____ _____    ______ ____
ROOT
ATOM      1  C   UNL     1       2.841  13.201  19.290  0.00  0.00    +0.000 C 
ATOM      2  C   UNL     1       2.163  14.143  20.249  0.00  0.00    +0.000 A 
ATOM      3  C   UNL     1       0.767  14.282  20.324  0.00  0.00    +0.000 A 
ATOM      4  S   UNL     1       0.332  15.138  21.730  0.00  0.00    +0.000 S 
ATOM      5  C   UNL     1       1.936  15.563  22.079  0.00  0.00    +0.000 A 
ATOM      6  N   UNL     1       2.171  16.342  23.139  0.00  0.00    +0.000 NA
ATOM      7  C   UNL     1       3.467  16.561  23.329  0.00  0.00    +0.000 A 
ATOM      8  N   UNL     1       4.481  16.114  22.577  0.00  0.00    +0.000 NA
ATOM      9  C   UNL     1       4.238  15.347  21.482  0.00  0.00    +0.000 A 
ATOM     10  N   UNL     1       5.344  14.978  20.736  0.00  0.00    +0.000 N 
ATOM     11  C   UNL     1       5.301  14.886  19.275  0.00  0.00    +0.000 C 
ATOM     12  C   UNL     1       6.308  15.799  18.572  0.00  0.00    +0.000 C 
ATOM     13  N   UNL     1       7.652  15.649  19.128  0.00  0.00    +0.000 N 
ATOM     14  C   UNL     1       7.715  15.851  20.588  0.00  0.00    +0.000 C 
ATOM     15  C   UNL     1       6.693  14.957  21.340  0.00  0.00    +0.000 C 
ATOM     16  C   UNL     1       2.867  15.009  21.206  0.00  0.00    +0.000 A 
ENDROOT
BRANCH  13  17
ATOM     17  C   UNL     1       8.673  15.044  18.415  0.00  0.00    +0.000 A 
ATOM     18  C   UNL     1       8.674  13.650  18.262  0.00  0.00    +0.000 A 
ATOM     19  C   UNL     1       9.724  12.975  17.625  0.00  0.00    +0.000 A 
ATOM     20  C   UNL     1      10.804  13.683  17.110  0.00  0.00    +0.000 A 
ATOM     21  C   UNL     1      10.830  15.068  17.232  0.00  0.00    +0.000 A 
ATOM     22  C   UNL     1       9.778  15.730  17.877  0.00  0.00    +0.000 A 
ATOM     23  F   UNL     1       9.856  17.069  17.943  0.00  0.00    +0.000 F 
ENDBRANCH  13  17
BRANCH   3  24
ATOM     24  C   UNL     1      -0.218  13.596  19.477  0.00  0.00    +0.000 C 
ATOM     25  O   UNL     1      -0.477  14.078  18.371  0.00  0.00    +0.000 OA
ATOM     26  N   UNL     1      -0.906  12.415  19.846  0.00  0.00    +0.000 N 
ATOM     27  C   UNL     1      -0.960  11.806  21.170  0.00  0.00    +0.000 C 
BRANCH  26  28
ATOM     28  C   UNL     1      -1.666  11.764  18.767  0.00  0.00    +0.000 C 
ATOM     29  C   UNL     1      -3.190  11.836  18.905  0.00  0.00    +0.000 C 
ATOM     30  C   UNL     1      -3.804  11.498  17.545  0.00  0.00    +0.000 C 
ATOM     31  C   UNL     1      -3.322  10.144  17.007  0.00  0.00    +0.000 C 
ATOM     32  C   UNL     1      -1.806   9.922  17.114  0.00  0.00    +0.000 C 
ATOM     33  C   UNL     1      -1.244  10.321  18.482  0.00  0.00    +0.000 C 
ENDBRANCH  26  28
ENDBRANCH   3  24
TORSDOF 3
ENDMDL
MODEL 9
REMARK VINA RESULT:      -6.9      1.278      1.406
REMARK  Name = 
REMARK  5 active torsions:
REMARK  status: ('A' for Active; 'I' for Inactive)
REMARK    1  A    between atoms: C_1  and  C_2
REMARK    2  A    between atoms: C_3  and  C_4
REMARK    3  A    between atoms: N_6  and  C_7
REMARK    4  A    between atoms: N_6  and  C_8
REMARK    5  A    between atoms: N_23  and  C_24
REMARK                            x       y       z     vdW  Elec       q    Type
REMARK                         _______ _______ _______ _____ _____    ______ ____
ROOT
ATOM      1  C   UNL     1      -1.398  10.888  19.684  0.00  0.00    +0.000 C 
ATOM      2  C   UNL     1      -0.120  11.636  19.417  0.00  0.00    +0.000 A 
ATOM      3  C   UNL     1       1.058  11.005  18.982  0.00  0.00    +0.000 A 
ATOM      4  S   UNL     1       2.183  12.161  18.438  0.00  0.00    +0.000 S 
ATOM      5  C   UNL     1       1.268  13.463  19.024  0.00  0.00    +0.000 A 
ATOM      6  N   UNL     1       1.763  14.698  18.892  0.00  0.00    +0.000 NA
ATOM      7  C   UNL     1       0.931  15.627  19.347  0.00  0.00    +0.000 A 
ATOM      8  N   UNL     1      -0.269  15.433  19.910  0.00  0.00    +0.000 NA
ATOM      9  C   UNL     1      -0.756  14.175  20.071  0.00  0.00    +0.000 A 
ATOM     10  N   UNL     1      -1.979  14.070  20.712  0.00  0.00    +0.000 N 
ATOM     11  C   UNL     1      -2.284  12.969  21.628  0.00  0.00    +0.000 C 
ATOM     12  C   UNL     1      -2.646  13.428  23.042  0.00  0.00    +0.000 C 
ATOM     13  N   UNL     1      -3.667  14.474  23.025  0.00  0.00    +0.000 N 
ATOM     14  C   UNL     1      -3.311  15.636  22.188  0.00  0.00    +0.000 C 
ATOM     15  C   UNL     1      -2.917  15.212  20.748  0.00  0.00    +0.000 C 
ATOM     16  C   UNL     1       0.045  13.089  19.571  0.00  0.00    +0.000 A 
ENDROOT
BRANCH  13  17
ATOM     17  C   UNL     1      -4.960  14.239  23.461  0.00  0.00    +0.000 A 
ATOM     18  C   UNL     1      -5.363  12.927  23.747  0.00  0.00    +0.000 A 
ATOM     19  C   UNL     1      -6.681  12.618  24.110  0.00  0.00    +0.000 A 
ATOM     20  C   UNL     1      -7.636  13.624  24.208  0.00  0.00    +0.000 A 
ATOM     21  C   UNL     1      -7.268  14.938  23.945  0.00  0.00    +0.000 A 
ATOM     22  C   UNL     1      -5.950  15.233  23.576  0.00  0.00    +0.000 A 
ATOM     23  F   UNL     1      -5.657  16.525  23.355  0.00  0.00    +0.000 F 
ENDBRANCH  13  17
BRANCH   3  24
ATOM     24  C   UNL     1       1.240   9.562  18.774  0.00  0.00    +0.000 C 
ATOM     25  O   UNL     1       1.149   9.120  17.625  0.00  0.00    +0.000 OA
ATOM     26  N   UNL     1       1.505   8.632  19.806  0.00  0.00    +0.000 N 
ATOM     27  C   UNL     1       1.412   8.863  21.244  0.00  0.00    +0.000 C 
BRANCH  26  28
ATOM     28  C   UNL     1       1.885   7.283  19.358  0.00  0.00    +0.000 C 
ATOM     29  C   UNL     1       1.864   6.202  20.443  0.00  0.00    +0.000 C 
ATOM     30  C   UNL     1       1.872   4.837  19.753  0.00  0.00    +0.000 C 
ATOM     31  C   UNL     1       3.051   4.680  18.785  0.00  0.00    +0.000 C 
ATOM     32  C   UNL     1       3.278   5.884  17.859  0.00  0.00    +0.000 C 
ATOM     33  C   UNL     1       3.214   7.222  18.600  0.00  0.00    +0.000 C 
ENDBRANCH  26  28
ENDBRANCH   3  24
TORSDOF 3
ENDMDL
