MODEL 1
REMARK VINA RESULT:      -7.8      0.000      0.000
REMARK  Name = 
REMARK  2 active torsions:
REMARK  status: ('A' for Active; 'I' for Inactive)
REMARK    1  A    between atoms: C_1  and  C_2
REMARK    2  A    between atoms: N_6  and  C_7
REMARK                            x       y       z     vdW  Elec       q    Type
REMARK                         _______ _______ _______ _____ _____    ______ ____
ROOT
ATOM      1  C   UNL     1       4.802   5.400  18.056  0.00  0.00    +0.000 A 
ATOM      2  C   UNL     1       3.654   6.193  17.967  0.00  0.00    +0.000 A 
ATOM      3  C   UNL     1       2.473   5.820  18.606  0.00  0.00    +0.000 A 
ATOM      4  C   UNL     1       2.435   4.680  19.414  0.00  0.00    +0.000 A 
ATOM      5  C   UNL     1       3.611   3.936  19.614  0.00  0.00    +0.000 A 
ATOM      6  C   UNL     1       4.778   4.291  18.908  0.00  0.00    +0.000 A 
ATOM      7  C   UNL     1       3.636   2.737  20.531  0.00  0.00    +0.000 C 
ATOM      8  C   UNL     1       2.422   2.662  21.460  0.00  0.00    +0.000 C 
ATOM      9  C   UNL     1       1.137   2.910  20.680  0.00  0.00    +0.000 C 
ATOM     10  C   UNL     1       1.141   4.323  20.099  0.00  0.00    +0.000 C 
ENDROOT
BRANCH   1  16
ATOM     11  C   UNL     1       5.264   3.767  13.120  0.00  0.00    +0.000 C 
ATOM     12  C   UNL     1       6.246   3.853  14.273  0.00  0.00    +0.000 C 
ATOM     13  C   UNL     1       7.273   4.997  14.131  0.00  0.00    +0.000 C 
ATOM     14  N   UNL     1       7.376   5.462  15.499  0.00  0.00    +0.000 N 
ATOM     15  C   UNL     1       6.262   5.159  16.238  0.00  0.00    +0.000 C 
ATOM     16  N   UNL     1       5.995   5.706  17.373  0.00  0.00    +0.000 NA
ATOM     17  N   UNL     1       5.567   4.233  15.499  0.00  0.00    +0.000 N 
ATOM     18  H   UNL     1       7.831   6.337  15.721  0.00  0.00    +0.000 HD
ATOM     19  H   UNL     1       4.983   3.573  15.995  0.00  0.00    +0.000 HD
ENDBRANCH   1  16
TORSDOF 1
ENDMDL
MODEL 2
REMARK VINA RESULT:      -7.6      1.385      1.411
REMARK  Name = 
REMARK  2 active torsions:
REMARK  status: ('A' for Active; 'I' for Inactive)
REMARK    1  A    between atoms: C_1  and  C_2
REMARK    2  A    between atoms: N_6  and  C_7
REMARK                            x       y       z     vdW  Elec       q    Type
REMARK                         _______ _______ _______ _____ _____    ______ ____
ROOT
ATOM      1  C   UNL     1       4.912   5.250  16.956  0.00  0.00    +0.000 A 
ATOM      2  C   UNL     1       4.020   6.212  17.440  0.00  0.00    +0.000 A 
ATOM      3  C   UNL     1       2.840   5.838  18.080  0.00  0.00    +0.000 A 
ATOM      4  C   UNL     1       2.560   4.489  18.318  0.00  0.00    +0.000 A 
ATOM      5  C   UNL     1       3.502   3.513  17.947  0.00  0.00    +0.000 A 
ATOM      6  C   UNL     1       4.658   3.905  17.243  0.00  0.00    +0.000 A 
ATOM      7  C   UNL     1       3.275   2.050  18.243  0.00  0.00    +0.000 C 
ATOM      8  C   UNL     1       2.168   1.807  19.272  0.00  0.00    +0.000 C 
ATOM      9  C   UNL     1       0.940   2.645  18.942  0.00  0.00    +0.000 C 
ATOM     10  C   UNL     1       1.280   4.131  19.027  0.00  0.00    +0.000 C 
ENDROOT
BRANCH   1  16
ATOM     11  C   UNL     1       5.364   3.506  12.056  0.00  0.00    +0.000 C 
ATOM     12  C   UNL     1       6.359   3.661  13.191  0.00  0.00    +0.000 C 
ATOM     13  C   UNL     1       7.338   4.839  13.003  0.00  0.00    +0.000 C 
ATOM     14  N   UNL     1       7.443   5.344  14.357  0.00  0.00    +0.000 N 
ATOM     15  C   UNL     1       6.353   5.018  15.121  0.00  0.00    +0.000 C 
ATOM     16  N   UNL     1       6.082   5.584  16.246  0.00  0.00    +0.000 NA
ATOM     17  N   UNL     1       5.684   4.046  14.417  0.00  0.00    +0.000 N 
ATOM     18  H   UNL     1       7.867   6.241  14.550  0.00  0.00    +0.000 HD
ATOM     19  H   UNL     1       5.134   3.377  14.939  0.00  0.00    +0.000 HD
ENDBRANCH   1  16
TORSDOF 1
ENDMDL
MODEL 3
REMARK VINA RESULT:      -7.2      1.824      3.066
REMARK  Name = 
REMARK  2 active torsions:
REMARK  status: ('A' for Active; 'I' for Inactive)
REMARK    1  A    between atoms: C_1  and  C_2
REMARK    2  A    between atoms: N_6  and  C_7
REMARK                            x       y       z     vdW  Elec       q    Type
REMARK                         _______ _______ _______ _____ _____    ______ ____
ROOT
ATOM      1  C   UNL     1       6.095   5.639  16.538  0.00  0.00    +0.000 A 
ATOM      2  C   UNL     1       5.989   4.556  17.417  0.00  0.00    +0.000 A 
ATOM      3  C   UNL     1       5.042   4.553  18.440  0.00  0.00    +0.000 A 
ATOM      4  C   UNL     1       4.128   5.603  18.562  0.00  0.00    +0.000 A 
ATOM      5  C   UNL     1       4.140   6.642  17.614  0.00  0.00    +0.000 A 
ATOM      6  C   UNL     1       5.145   6.661  16.627  0.00  0.00    +0.000 A 
ATOM      7  C   UNL     1       3.128   7.762  17.664  0.00  0.00    +0.000 C 
ATOM      8  C   UNL     1       1.929   7.453  18.562  0.00  0.00    +0.000 C 
ATOM      9  C   UNL     1       2.394   6.880  19.895  0.00  0.00    +0.000 C 
ATOM     10  C   UNL     1       3.112   5.551  19.673  0.00  0.00    +0.000 C 
ENDROOT
BRANCH   1  16
ATOM     11  C   UNL     1       5.019   3.450  11.922  0.00  0.00    +0.000 C 
ATOM     12  C   UNL     1       6.284   3.526  12.757  0.00  0.00    +0.000 C 
ATOM     13  C   UNL     1       7.340   4.503  12.198  0.00  0.00    +0.000 C 
ATOM     14  N   UNL     1       7.861   5.091  13.416  0.00  0.00    +0.000 N 
ATOM     15  C   UNL     1       6.968   5.018  14.453  0.00  0.00    +0.000 C 
ATOM     16  N   UNL     1       7.079   5.711  15.533  0.00  0.00    +0.000 NA
ATOM     17  N   UNL     1       6.009   4.119  14.053  0.00  0.00    +0.000 N 
ATOM     18  H   UNL     1       8.444   5.917  13.390  0.00  0.00    +0.000 HD
ATOM     19  H   UNL     1       5.521   3.597  14.770  0.00  0.00    +0.000 HD
ENDBRANCH   1  16
TORSDOF 1
ENDMDL
MODEL 4
REMARK VINA RESULT:      -7.1      1.551      2.522
REMARK  Name = 
REMARK  2 active torsions:
REMARK  status: ('A' for Active; 'I' for Inactive)
REMARK    1  A    between atoms: C_1  and  C_2
REMARK    2  A    between atoms: N_6  and  C_7
REMARK                            x       y       z     vdW  Elec       q    Type
REMARK                         _______ _______ _______ _____ _____    ______ ____
ROOT
ATOM      1  C   UNL     1       6.256   4.954  16.589  0.00  0.00    +0.000 A 
ATOM      2  C   UNL     1       6.695   4.920  17.916  0.00  0.00    +0.000 A 
ATOM      3  C   UNL     1       5.836   4.546  18.947  0.00  0.00    +0.000 A 
ATOM      4  C   UNL     1       4.534   4.122  18.666  0.00  0.00    +0.000 A 
ATOM      5  C   UNL     1       4.112   4.033  17.327  0.00  0.00    +0.000 A 
ATOM      6  C   UNL     1       4.972   4.478  16.304  0.00  0.00    +0.000 A 
ATOM      7  C   UNL     1       2.739   3.517  16.970  0.00  0.00    +0.000 C 
ATOM      8  C   UNL     1       2.051   2.782  18.123  0.00  0.00    +0.000 C 
ATOM      9  C   UNL     1       2.176   3.580  19.414  0.00  0.00    +0.000 C 
ATOM     10  C   UNL     1       3.645   3.711  19.810  0.00  0.00    +0.000 C 
ENDROOT
BRANCH   1  16
ATOM     11  C   UNL     1       5.217   3.108  11.818  0.00  0.00    +0.000 C 
ATOM     12  C   UNL     1       6.513   3.407  12.547  0.00  0.00    +0.000 C 
ATOM     13  C   UNL     1       7.231   4.678  12.045  0.00  0.00    +0.000 C 
ATOM     14  N   UNL     1       7.730   5.235  13.285  0.00  0.00    +0.000 N 
ATOM     15  C   UNL     1       7.007   4.818  14.372  0.00  0.00    +0.000 C 
ATOM     16  N   UNL     1       7.071   5.389  15.526  0.00  0.00    +0.000 NA
ATOM     17  N   UNL     1       6.254   3.757  13.932  0.00  0.00    +0.000 N 
ATOM     18  H   UNL     1       8.090   6.179  13.327  0.00  0.00    +0.000 HD
ATOM     19  H   UNL     1       5.992   3.050  14.606  0.00  0.00    +0.000 HD
ENDBRANCH   1  16
TORSDOF 1
ENDMDL
MODEL 5
REMARK VINA RESULT:      -6.9      3.887      5.972
REMARK  Name = 
REMARK  2 active torsions:
REMARK  status: ('A' for Active; 'I' for Inactive)
REMARK    1  A    between atoms: C_1  and  C_2
REMARK    2  A    between atoms: N_6  and  C_7
REMARK                            x       y       z     vdW  Elec       q    Type
REMARK                         _______ _______ _______ _____ _____    ______ ____
ROOT
ATOM      1  C   UNL     1       2.367   7.242  18.680  0.00  0.00    +0.000 A 
ATOM      2  C   UNL     1       2.118   7.049  20.043  0.00  0.00    +0.000 A 
ATOM      3  C   UNL     1       1.787   5.790  20.542  0.00  0.00    +0.000 A 
ATOM      4  C   UNL     1       1.771   4.676  19.697  0.00  0.00    +0.000 A 
ATOM      5  C   UNL     1       2.137   4.828  18.348  0.00  0.00    +0.000 A 
ATOM      6  C   UNL     1       2.404   6.118  17.848  0.00  0.00    +0.000 A 
ATOM      7  C   UNL     1       2.201   3.643  17.414  0.00  0.00    +0.000 C 
ATOM      8  C   UNL     1       2.205   2.298  18.144  0.00  0.00    +0.000 C 
ATOM      9  C   UNL     1       1.129   2.273  19.222  0.00  0.00    +0.000 C 
ATOM     10  C   UNL     1       1.424   3.332  20.282  0.00  0.00    +0.000 C 
ENDROOT
BRANCH   1  16
ATOM     11  C   UNL     1      -0.470  11.291  20.355  0.00  0.00    +0.000 C 
ATOM     12  C   UNL     1       0.065  10.902  18.990  0.00  0.00    +0.000 C 
ATOM     13  C   UNL     1       1.259  11.760  18.522  0.00  0.00    +0.000 C 
ATOM     14  N   UNL     1       2.090  10.768  17.872  0.00  0.00    +0.000 N 
ATOM     15  C   UNL     1       1.846   9.501  18.334  0.00  0.00    +0.000 C 
ATOM     16  N   UNL     1       2.640   8.507  18.126  0.00  0.00    +0.000 NA
ATOM     17  N   UNL     1       0.665   9.581  19.031  0.00  0.00    +0.000 N 
ATOM     18  H   UNL     1       3.047  10.971  17.618  0.00  0.00    +0.000 HD
ATOM     19  H   UNL     1       0.090   8.750  19.085  0.00  0.00    +0.000 HD
ENDBRANCH   1  16
TORSDOF 1
ENDMDL
MODEL 6
REMARK VINA RESULT:      -6.8      1.143      1.762
REMARK  Name = 
REMARK  2 active torsions:
REMARK  status: ('A' for Active; 'I' for Inactive)
REMARK    1  A    between atoms: C_1  and  C_2
REMARK    2  A    between atoms: N_6  and  C_7
REMARK                            x       y       z     vdW  Elec       q    Type
REMARK                         _______ _______ _______ _____ _____    ______ ____
ROOT
ATOM      1  C   UNL     1       4.932   4.532  17.388  0.00  0.00    +0.000 A 
ATOM      2  C   UNL     1       4.445   3.268  17.042  0.00  0.00    +0.000 A 
ATOM      3  C   UNL     1       3.398   2.683  17.751  0.00  0.00    +0.000 A 
ATOM      4  C   UNL     1       2.761   3.383  18.780  0.00  0.00    +0.000 A 
ATOM      5  C   UNL     1       3.155   4.703  19.063  0.00  0.00    +0.000 A 
ATOM      6  C   UNL     1       4.258   5.253  18.380  0.00  0.00    +0.000 A 
ATOM      7  C   UNL     1       2.452   5.524  20.117  0.00  0.00    +0.000 C 
ATOM      8  C   UNL     1       1.103   4.937  20.539  0.00  0.00    +0.000 C 
ATOM      9  C   UNL     1       1.229   3.441  20.796  0.00  0.00    +0.000 C 
ATOM     10  C   UNL     1       1.622   2.719  19.509  0.00  0.00    +0.000 C 
ENDROOT
BRANCH   1  16
ATOM     11  C   UNL     1       5.576   3.562  12.300  0.00  0.00    +0.000 C 
ATOM     12  C   UNL     1       6.551   3.707  13.453  0.00  0.00    +0.000 C 
ATOM     13  C   UNL     1       7.342   5.032  13.437  0.00  0.00    +0.000 C 
ATOM     14  N   UNL     1       7.387   5.357  14.848  0.00  0.00    +0.000 N 
ATOM     15  C   UNL     1       6.368   4.771  15.551  0.00  0.00    +0.000 C 
ATOM     16  N   UNL     1       6.030   5.131  16.741  0.00  0.00    +0.000 NA
ATOM     17  N   UNL     1       5.842   3.815  14.715  0.00  0.00    +0.000 N 
ATOM     18  H   UNL     1       7.676   6.273  15.165  0.00  0.00    +0.000 HD
ATOM     19  H   UNL     1       5.404   3.007  15.136  0.00  0.00    +0.000 HD
ENDBRANCH   1  16
TORSDOF 1
ENDMDL
MODEL 7
REMARK VINA RESULT:      -6.7      4.234      6.539
REMARK  Name = 
REMARK  2 active torsions:
REMARK  status: ('A' for Active; 'I' for Inactive)
REMARK    1  A    between atoms: C_1  and  C_2
REMARK    2  A    between atoms: N_6  and  C_7
REMARK                            x       y       z     vdW  Elec       q    Type
REMARK                         _______ _______ _______ _____ _____    ______ ____
ROOT
ATOM      1  C   UNL     1       1.926   6.979  20.150  0.00  0.00    +0.000 A 
ATOM      2  C   UNL     1       2.556   7.149  18.913  0.00  0.00    +0.000 A 
ATOM      3  C   UNL     1       2.790   6.063  18.072  0.00  0.00    +0.000 A 
ATOM      4  C   UNL     1       2.331   4.788  18.416  0.00  0.00    +0.000 A 
ATOM      5  C   UNL     1       1.589   4.618  19.599  0.00  0.00    +0.000 A 
ATOM      6  C   UNL     1       1.419   5.714  20.468  0.00  0.00    +0.000 A 
ATOM      7  C   UNL     1       1.014   3.275  19.979  0.00  0.00    +0.000 C 
ATOM      8  C   UNL     1       0.995   2.276  18.820  0.00  0.00    +0.000 C 
ATOM      9  C   UNL     1       2.333   2.276  18.093  0.00  0.00    +0.000 C 
ATOM     10  C   UNL     1       2.592   3.646  17.469  0.00  0.00    +0.000 C 
ENDROOT
BRANCH   1  16
ATOM     11  C   UNL     1      -1.463  10.720  18.821  0.00  0.00    +0.000 C 
ATOM     12  C   UNL     1      -0.123  10.749  19.532  0.00  0.00    +0.000 C 
ATOM     13  C   UNL     1      -0.228  11.007  21.049  0.00  0.00    +0.000 C 
ATOM     14  N   UNL     1       0.801  10.126  21.563  0.00  0.00    +0.000 N 
ATOM     15  C   UNL     1       1.075   9.091  20.707  0.00  0.00    +0.000 C 
ATOM     16  N   UNL     1       1.729   8.038  21.058  0.00  0.00    +0.000 NA
ATOM     17  N   UNL     1       0.498   9.437  19.510  0.00  0.00    +0.000 N 
ATOM     18  H   UNL     1       0.864   9.914  22.550  0.00  0.00    +0.000 HD
ATOM     19  H   UNL     1       0.911   9.071  18.662  0.00  0.00    +0.000 HD
ENDBRANCH   1  16
TORSDOF 1
ENDMDL
MODEL 8
REMARK VINA RESULT:      -6.7      2.778      4.551
REMARK  Name = 
REMARK  2 active torsions:
REMARK  status: ('A' for Active; 'I' for Inactive)
REMARK    1  A    between atoms: C_1  and  C_2
REMARK    2  A    between atoms: N_6  and  C_7
REMARK                            x       y       z     vdW  Elec       q    Type
REMARK                         _______ _______ _______ _____ _____    ______ ____
ROOT
ATOM      1  C   UNL     1       2.988   6.122  18.384  0.00  0.00    +0.000 A 
ATOM      2  C   UNL     1       2.568   5.612  19.616  0.00  0.00    +0.000 A 
ATOM      3  C   UNL     1       1.896   6.417  20.534  0.00  0.00    +0.000 A 
ATOM      4  C   UNL     1       1.562   7.735  20.209  0.00  0.00    +0.000 A 
ATOM      5  C   UNL     1       1.869   8.228  18.929  0.00  0.00    +0.000 A 
ATOM      6  C   UNL     1       2.606   7.422  18.039  0.00  0.00    +0.000 A 
ATOM      7  C   UNL     1       1.468   9.622  18.508  0.00  0.00    +0.000 C 
ATOM      8  C   UNL     1       0.418  10.252  19.426  0.00  0.00    +0.000 C 
ATOM      9  C   UNL     1       0.799  10.053  20.888  0.00  0.00    +0.000 C 
ATOM     10  C   UNL     1       0.821   8.564  21.226  0.00  0.00    +0.000 C 
ENDROOT
BRANCH   1  16
ATOM     11  C   UNL     1       8.134   5.688  19.145  0.00  0.00    +0.000 C 
ATOM     12  C   UNL     1       7.288   5.849  17.897  0.00  0.00    +0.000 C 
ATOM     13  C   UNL     1       7.168   4.561  17.056  0.00  0.00    +0.000 C 
ATOM     14  N   UNL     1       5.787   4.625  16.624  0.00  0.00    +0.000 N 
ATOM     15  C   UNL     1       5.015   5.387  17.462  0.00  0.00    +0.000 C 
ATOM     16  N   UNL     1       3.727   5.362  17.456  0.00  0.00    +0.000 NA
ATOM     17  N   UNL     1       5.899   6.088  18.246  0.00  0.00    +0.000 N 
ATOM     18  H   UNL     1       5.331   3.825  16.207  0.00  0.00    +0.000 HD
ATOM     19  H   UNL     1       5.602   6.984  18.610  0.00  0.00    +0.000 HD
ENDBRANCH   1  16
TORSDOF 1
ENDMDL
MODEL 9
REMARK VINA RESULT:      -6.6      1.590      2.647
REMARK  Name = 
REMARK  2 active torsions:
REMARK  status: ('A' for Active; 'I' for Inactive)
REMARK    1  A    between atoms: C_1  and  C_2
REMARK    2  A    between atoms: N_6  and  C_7
REMARK                            x       y       z     vdW  Elec       q    Type
REMARK                         _______ _______ _______ _____ _____    ______ ____
ROOT
ATOM      1  C   UNL     1       5.724   4.949  15.760  0.00  0.00    +0.000 A 
ATOM      2  C   UNL     1       5.378   6.293  15.932  0.00  0.00    +0.000 A 
ATOM      3  C   UNL     1       4.396   6.669  16.848  0.00  0.00    +0.000 A 
ATOM      4  C   UNL     1       3.790   5.714  17.668  0.00  0.00    +0.000 A 
ATOM      5  C   UNL     1       4.212   4.374  17.596  0.00  0.00    +0.000 A 
ATOM      6  C   UNL     1       5.157   4.002  16.620  0.00  0.00    +0.000 A 
ATOM      7  C   UNL     1       3.635   3.319  18.509  0.00  0.00    +0.000 C 
ATOM      8  C   UNL     1       2.880   3.903  19.706  0.00  0.00    +0.000 C 
ATOM      9  C   UNL     1       1.943   5.015  19.254  0.00  0.00    +0.000 C 
ATOM     10  C   UNL     1       2.746   6.168  18.655  0.00  0.00    +0.000 C 
ENDROOT
BRANCH   1  16
ATOM     11  C   UNL     1       3.923   3.495  11.081  0.00  0.00    +0.000 C 
ATOM     12  C   UNL     1       5.027   2.958  11.972  0.00  0.00    +0.000 C 
ATOM     13  C   UNL     1       6.448   3.291  11.471  0.00  0.00    +0.000 C 
ATOM     14  N   UNL     1       7.135   3.569  12.716  0.00  0.00    +0.000 N 
ATOM     15  C   UNL     1       6.275   3.953  13.711  0.00  0.00    +0.000 C 
ATOM     16  N   UNL     1       6.662   4.520  14.801  0.00  0.00    +0.000 NA
ATOM     17  N   UNL     1       5.018   3.628  13.261  0.00  0.00    +0.000 N 
ATOM     18  H   UNL     1       8.047   4.006  12.724  0.00  0.00    +0.000 HD
ATOM     19  H   UNL     1       4.308   3.419  13.950  0.00  0.00    +0.000 HD
ENDBRANCH   1  16
TORSDOF 1
ENDMDL
