MODEL 1
REMARK VINA RESULT:      -7.9      0.000      0.000
REMARK  Name = 
REMARK  9 active torsions:
REMARK  status: ('A' for Active; 'I' for Inactive)
REMARK    1  A    between atoms: C_1  and  O_2
REMARK    2  A    between atoms: O_2  and  C_3
REMARK    3  A    between atoms: C_6  and  C_7
REMARK    4  A    between atoms: C_10  and  C_11
REMARK    5  A    between atoms: N_13  and  C_14
REMARK    6  A    between atoms: C_14  and  C_15
REMARK    7  A    between atoms: C_18  and  N_19
REMARK    8  A    between atoms: C_26  and  O_27
REMARK    9  A    between atoms: O_27  and  C_28
REMARK                            x       y       z     vdW  Elec       q    Type
REMARK                         _______ _______ _______ _____ _____    ______ ____
ROOT
ATOM      1  C   UNL     1       8.590   9.295  18.193  0.00  0.00    +0.000 A 
ATOM      2  N   UNL     1       8.963   8.427  19.149  0.00  0.00    +0.000 NA
ATOM      3  O   UNL     1       8.266   7.266  18.821  0.00  0.00    +0.000 OA
ATOM      4  C   UNL     1       7.556   7.534  17.683  0.00  0.00    +0.000 A 
ATOM      5  N   UNL     1       7.765   8.759  17.235  0.00  0.00    +0.000 NA
ENDROOT
BRANCH   1   9
ATOM      6  C   UNL     1       9.587  13.455  18.216  0.00  0.00    +0.000 A 
ATOM      7  C   UNL     1      10.453  12.504  18.783  0.00  0.00    +0.000 A 
ATOM      8  C   UNL     1      10.155  11.142  18.742  0.00  0.00    +0.000 A 
ATOM      9  C   UNL     1       8.948  10.704  18.194  0.00  0.00    +0.000 A 
ATOM     10  C   UNL     1       8.053  11.661  17.699  0.00  0.00    +0.000 A 
ATOM     11  C   UNL     1       8.350  13.032  17.708  0.00  0.00    +0.000 A 
BRANCH   6  13
ATOM     12  C   UNL     1      10.929  15.145  17.240  0.00  0.00    +0.000 C 
ATOM     13  O   UNL     1       9.926  14.780  18.190  0.00  0.00    +0.000 OA
ENDBRANCH   6  13
BRANCH  11  14
ATOM     14  O   UNL     1       7.329  13.771  17.174  0.00  0.00    +0.000 OA
ATOM     15  C   UNL     1       6.500  14.539  18.028  0.00  0.00    +0.000 C 
ENDBRANCH  11  14
ENDBRANCH   1   9
BRANCH   4  16
ATOM     16  C   UNL     1       6.627   6.565  17.042  0.00  0.00    +0.000 A 
ATOM     17  C   UNL     1       6.478   5.239  17.389  0.00  0.00    +0.000 A 
ATOM     18  N   UNL     1       5.514   4.759  16.547  0.00  0.00    +0.000 N 
ATOM     19  C   UNL     1       5.155   5.776  15.708  0.00  0.00    +0.000 A 
ATOM     20  N   UNL     1       5.788   6.888  15.996  0.00  0.00    +0.000 NA
BRANCH  18  21
ATOM     21  C   UNL     1       4.865   3.465  16.628  0.00  0.00    +0.000 C 
BRANCH  21  22
ATOM     22  C   UNL     1       3.752   3.432  17.643  0.00  0.00    +0.000 A 
ATOM     23  C   UNL     1       4.012   3.076  18.970  0.00  0.00    +0.000 A 
ATOM     24  C   UNL     1       2.987   3.086  19.923  0.00  0.00    +0.000 A 
ATOM     25  C   UNL     1       1.694   3.484  19.578  0.00  0.00    +0.000 A 
ATOM     26  C   UNL     1       1.419   3.760  18.238  0.00  0.00    +0.000 A 
ATOM     27  C   UNL     1       2.438   3.755  17.280  0.00  0.00    +0.000 A 
BRANCH  25  28
ATOM     28  N   UNL     1       0.654   3.381  20.508  0.00  0.00    +0.000 N 
ATOM     29  H   UNL     1      -0.085   4.064  20.374  0.00  0.00    +0.000 HD
ATOM     30  H   UNL     1       0.292   2.439  20.621  0.00  0.00    +0.000 HD
ENDBRANCH  25  28
ENDBRANCH  21  22
ENDBRANCH  18  21
ENDBRANCH   4  16
TORSDOF 7
ENDMDL
MODEL 2
REMARK VINA RESULT:      -7.8      6.099      8.775
REMARK  Name = 
REMARK  9 active torsions:
REMARK  status: ('A' for Active; 'I' for Inactive)
REMARK    1  A    between atoms: C_1  and  O_2
REMARK    2  A    between atoms: O_2  and  C_3
REMARK    3  A    between atoms: C_6  and  C_7
REMARK    4  A    between atoms: C_10  and  C_11
REMARK    5  A    between atoms: N_13  and  C_14
REMARK    6  A    between atoms: C_14  and  C_15
REMARK    7  A    between atoms: C_18  and  N_19
REMARK    8  A    between atoms: C_26  and  O_27
REMARK    9  A    between atoms: O_27  and  C_28
REMARK                            x       y       z     vdW  Elec       q    Type
REMARK                         _______ _______ _______ _____ _____    ______ ____
ROOT
ATOM      1  C   UNL     1       3.204   6.350  18.667  0.00  0.00    +0.000 A 
ATOM      2  N   UNL     1       2.869   5.778  19.837  0.00  0.00    +0.000 NA
ATOM      3  O   UNL     1       2.050   6.730  20.440  0.00  0.00    +0.000 OA
ATOM      4  C   UNL     1       1.947   7.778  19.568  0.00  0.00    +0.000 A 
ATOM      5  N   UNL     1       2.603   7.564  18.442  0.00  0.00    +0.000 NA
ENDROOT
BRANCH   1   9
ATOM      6  C   UNL     1       6.109   4.723  15.982  0.00  0.00    +0.000 A 
ATOM      7  C   UNL     1       4.937   4.012  16.290  0.00  0.00    +0.000 A 
ATOM      8  C   UNL     1       3.966   4.554  17.133  0.00  0.00    +0.000 A 
ATOM      9  C   UNL     1       4.176   5.792  17.741  0.00  0.00    +0.000 A 
ATOM     10  C   UNL     1       5.380   6.464  17.492  0.00  0.00    +0.000 A 
ATOM     11  C   UNL     1       6.355   5.945  16.626  0.00  0.00    +0.000 A 
BRANCH   6  13
ATOM     12  C   UNL     1       6.583   4.147  13.734  0.00  0.00    +0.000 C 
ATOM     13  O   UNL     1       7.019   4.219  15.093  0.00  0.00    +0.000 OA
ENDBRANCH   6  13
BRANCH  11  14
ATOM     14  O   UNL     1       7.441   6.774  16.538  0.00  0.00    +0.000 OA
ATOM     15  C   UNL     1       7.701   7.700  17.578  0.00  0.00    +0.000 C 
ENDBRANCH  11  14
ENDBRANCH   1   9
BRANCH   4  16
ATOM     16  C   UNL     1       1.205   9.032  19.869  0.00  0.00    +0.000 A 
ATOM     17  C   UNL     1       1.008  10.082  18.997  0.00  0.00    +0.000 A 
ATOM     18  N   UNL     1       0.268  10.991  19.700  0.00  0.00    +0.000 N 
ATOM     19  C   UNL     1       0.087  10.491  20.959  0.00  0.00    +0.000 A 
ATOM     20  N   UNL     1       0.616   9.298  21.087  0.00  0.00    +0.000 NA
BRANCH  18  21
ATOM     21  C   UNL     1      -0.358  12.188  19.172  0.00  0.00    +0.000 C 
BRANCH  21  22
ATOM     22  C   UNL     1      -1.767  11.949  18.697  0.00  0.00    +0.000 A 
ATOM     23  C   UNL     1      -2.008  11.443  17.415  0.00  0.00    +0.000 A 
ATOM     24  C   UNL     1      -3.314  11.182  16.988  0.00  0.00    +0.000 A 
ATOM     25  C   UNL     1      -4.400  11.387  17.841  0.00  0.00    +0.000 A 
ATOM     26  C   UNL     1      -4.165  11.967  19.089  0.00  0.00    +0.000 A 
ATOM     27  C   UNL     1      -2.862  12.229  19.524  0.00  0.00    +0.000 A 
BRANCH  25  28
ATOM     28  N   UNL     1      -5.707  11.232  17.367  0.00  0.00    +0.000 N 
ATOM     29  H   UNL     1      -6.001  10.263  17.285  0.00  0.00    +0.000 HD
ATOM     30  H   UNL     1      -6.393  11.802  17.850  0.00  0.00    +0.000 HD
ENDBRANCH  25  28
ENDBRANCH  21  22
ENDBRANCH  18  21
ENDBRANCH   4  16
TORSDOF 7
ENDMDL
MODEL 3
REMARK VINA RESULT:      -7.7      5.743      8.609
REMARK  Name = 
REMARK  9 active torsions:
REMARK  status: ('A' for Active; 'I' for Inactive)
REMARK    1  A    between atoms: C_1  and  O_2
REMARK    2  A    between atoms: O_2  and  C_3
REMARK    3  A    between atoms: C_6  and  C_7
REMARK    4  A    between atoms: C_10  and  C_11
REMARK    5  A    between atoms: N_13  and  C_14
REMARK    6  A    between atoms: C_14  and  C_15
REMARK    7  A    between atoms: C_18  and  N_19
REMARK    8  A    between atoms: C_26  and  O_27
REMARK    9  A    between atoms: O_27  and  C_28
REMARK                            x       y       z     vdW  Elec       q    Type
REMARK                         _______ _______ _______ _____ _____    ______ ____
ROOT
ATOM      1  C   UNL     1       3.371   5.845  18.822  0.00  0.00    +0.000 A 
ATOM      2  N   UNL     1       3.166   5.160  19.960  0.00  0.00    +0.000 NA
ATOM      3  O   UNL     1       2.306   5.983  20.683  0.00  0.00    +0.000 OA
ATOM      4  C   UNL     1       2.052   7.078  19.904  0.00  0.00    +0.000 A 
ATOM      5  N   UNL     1       2.651   7.010  18.728  0.00  0.00    +0.000 NA
ENDROOT
BRANCH   1   9
ATOM      6  C   UNL     1       6.231   4.698  15.855  0.00  0.00    +0.000 A 
ATOM      7  C   UNL     1       5.099   3.905  16.107  0.00  0.00    +0.000 A 
ATOM      8  C   UNL     1       4.141   4.293  17.044  0.00  0.00    +0.000 A 
ATOM      9  C   UNL     1       4.328   5.452  17.800  0.00  0.00    +0.000 A 
ATOM     10  C   UNL     1       5.496   6.199  17.600  0.00  0.00    +0.000 A 
ATOM     11  C   UNL     1       6.455   5.836  16.644  0.00  0.00    +0.000 A 
BRANCH   6  13
ATOM     12  C   UNL     1       6.558   4.023  13.609  0.00  0.00    +0.000 C 
ATOM     13  O   UNL     1       7.125   4.350  14.879  0.00  0.00    +0.000 OA
ENDBRANCH   6  13
BRANCH  11  14
ATOM     14  O   UNL     1       7.506   6.714  16.628  0.00  0.00    +0.000 OA
ATOM     15  C   UNL     1       7.469   7.866  17.452  0.00  0.00    +0.000 C 
ENDBRANCH  11  14
ENDBRANCH   1   9
BRANCH   4  16
ATOM     16  C   UNL     1       1.222   8.230  20.345  0.00  0.00    +0.000 A 
ATOM     17  C   UNL     1       1.130   9.450  19.708  0.00  0.00    +0.000 A 
ATOM     18  N   UNL     1       0.248  10.176  20.460  0.00  0.00    +0.000 N 
ATOM     19  C   UNL     1      -0.118   9.404  21.527  0.00  0.00    +0.000 A 
ATOM     20  N   UNL     1       0.430   8.214  21.475  0.00  0.00    +0.000 NA
BRANCH  18  21
ATOM     21  C   UNL     1      -0.329  11.460  20.112  0.00  0.00    +0.000 C 
BRANCH  21  22
ATOM     22  C   UNL     1      -1.541  11.335  19.226  0.00  0.00    +0.000 A 
ATOM     23  C   UNL     1      -2.719  12.025  19.533  0.00  0.00    +0.000 A 
ATOM     24  C   UNL     1      -3.831  11.943  18.689  0.00  0.00    +0.000 A 
ATOM     25  C   UNL     1      -3.780  11.200  17.508  0.00  0.00    +0.000 A 
ATOM     26  C   UNL     1      -2.634  10.448  17.245  0.00  0.00    +0.000 A 
ATOM     27  C   UNL     1      -1.515  10.527  18.082  0.00  0.00    +0.000 A 
BRANCH  25  28
ATOM     28  N   UNL     1      -4.931  11.031  16.731  0.00  0.00    +0.000 N 
ATOM     29  H   UNL     1      -5.001  10.117  16.294  0.00  0.00    +0.000 HD
ATOM     30  H   UNL     1      -5.790  11.299  17.201  0.00  0.00    +0.000 HD
ENDBRANCH  25  28
ENDBRANCH  21  22
ENDBRANCH  18  21
ENDBRANCH   4  16
TORSDOF 7
ENDMDL
MODEL 4
REMARK VINA RESULT:      -7.7      6.507      9.086
REMARK  Name = 
REMARK  9 active torsions:
REMARK  status: ('A' for Active; 'I' for Inactive)
REMARK    1  A    between atoms: C_1  and  O_2
REMARK    2  A    between atoms: O_2  and  C_3
REMARK    3  A    between atoms: C_6  and  C_7
REMARK    4  A    between atoms: C_10  and  C_11
REMARK    5  A    between atoms: N_13  and  C_14
REMARK    6  A    between atoms: C_14  and  C_15
REMARK    7  A    between atoms: C_18  and  N_19
REMARK    8  A    between atoms: C_26  and  O_27
REMARK    9  A    between atoms: O_27  and  C_28
REMARK                            x       y       z     vdW  Elec       q    Type
REMARK                         _______ _______ _______ _____ _____    ______ ____
ROOT
ATOM      1  C   UNL     1       2.970   6.858  18.508  0.00  0.00    +0.000 A 
ATOM      2  N   UNL     1       2.651   6.562  19.779  0.00  0.00    +0.000 NA
ATOM      3  O   UNL     1       1.871   7.644  20.178  0.00  0.00    +0.000 OA
ATOM      4  C   UNL     1       1.771   8.482  19.102  0.00  0.00    +0.000 A 
ATOM      5  N   UNL     1       2.393   8.012  18.036  0.00  0.00    +0.000 NA
ENDROOT
BRANCH   1   9
ATOM      6  C   UNL     1       5.766   4.601  16.187  0.00  0.00    +0.000 A 
ATOM      7  C   UNL     1       4.517   4.059  16.535  0.00  0.00    +0.000 A 
ATOM      8  C   UNL     1       3.584   4.804  17.256  0.00  0.00    +0.000 A 
ATOM      9  C   UNL     1       3.905   6.086  17.706  0.00  0.00    +0.000 A 
ATOM     10  C   UNL     1       5.180   6.593  17.422  0.00  0.00    +0.000 A 
ATOM     11  C   UNL     1       6.120   5.868  16.675  0.00  0.00    +0.000 A 
BRANCH   6  13
ATOM     12  C   UNL     1       6.490   4.050  14.000  0.00  0.00    +0.000 C 
ATOM     13  O   UNL     1       6.644   3.893  15.412  0.00  0.00    +0.000 OA
ENDBRANCH   6  13
BRANCH  11  14
ATOM     14  O   UNL     1       7.289   6.564  16.527  0.00  0.00    +0.000 OA
ATOM     15  C   UNL     1       7.575   7.646  17.395  0.00  0.00    +0.000 C 
ENDBRANCH  11  14
ENDBRANCH   1   9
BRANCH   4  16
ATOM     16  C   UNL     1       1.067   9.792  19.139  0.00  0.00    +0.000 A 
ATOM     17  C   UNL     1      -0.148  10.040  19.742  0.00  0.00    +0.000 A 
ATOM     18  N   UNL     1      -0.382  11.370  19.534  0.00  0.00    +0.000 N 
ATOM     19  C   UNL     1       0.654  11.860  18.789  0.00  0.00    +0.000 A 
ATOM     20  N   UNL     1       1.559  10.941  18.555  0.00  0.00    +0.000 NA
BRANCH  18  21
ATOM     21  C   UNL     1      -1.440  12.164  20.129  0.00  0.00    +0.000 C 
BRANCH  21  22
ATOM     22  C   UNL     1      -2.735  12.076  19.365  0.00  0.00    +0.000 A 
ATOM     23  C   UNL     1      -2.759  11.562  18.064  0.00  0.00    +0.000 A 
ATOM     24  C   UNL     1      -3.967  11.442  17.369  0.00  0.00    +0.000 A 
ATOM     25  C   UNL     1      -5.176  11.798  17.969  0.00  0.00    +0.000 A 
ATOM     26  C   UNL     1      -5.143  12.385  19.236  0.00  0.00    +0.000 A 
ATOM     27  C   UNL     1      -3.939  12.506  19.939  0.00  0.00    +0.000 A 
BRANCH  25  28
ATOM     28  N   UNL     1      -6.362  11.781  17.228  0.00  0.00    +0.000 N 
ATOM     29  H   UNL     1      -6.630  10.856  16.904  0.00  0.00    +0.000 HD
ATOM     30  H   UNL     1      -7.133  12.272  17.670  0.00  0.00    +0.000 HD
ENDBRANCH  25  28
ENDBRANCH  21  22
ENDBRANCH  18  21
ENDBRANCH   4  16
TORSDOF 7
ENDMDL
MODEL 5
REMARK VINA RESULT:      -7.7      6.612      9.183
REMARK  Name = 
REMARK  9 active torsions:
REMARK  status: ('A' for Active; 'I' for Inactive)
REMARK    1  A    between atoms: C_1  and  O_2
REMARK    2  A    between atoms: O_2  and  C_3
REMARK    3  A    between atoms: C_6  and  C_7
REMARK    4  A    between atoms: C_10  and  C_11
REMARK    5  A    between atoms: N_13  and  C_14
REMARK    6  A    between atoms: C_14  and  C_15
REMARK    7  A    between atoms: C_18  and  N_19
REMARK    8  A    between atoms: C_26  and  O_27
REMARK    9  A    between atoms: O_27  and  C_28
REMARK                            x       y       z     vdW  Elec       q    Type
REMARK                         _______ _______ _______ _____ _____    ______ ____
ROOT
ATOM      1  C   UNL     1       2.938   6.640  18.637  0.00  0.00    +0.000 A 
ATOM      2  N   UNL     1       2.584   6.227  19.866  0.00  0.00    +0.000 NA
ATOM      3  O   UNL     1       1.808   7.278  20.350  0.00  0.00    +0.000 OA
ATOM      4  C   UNL     1       1.746   8.218  19.358  0.00  0.00    +0.000 A 
ATOM      5  N   UNL     1       2.389   7.843  18.267  0.00  0.00    +0.000 NA
ENDROOT
BRANCH   1   9
ATOM      6  C   UNL     1       5.763   4.582  16.171  0.00  0.00    +0.000 A 
ATOM      7  C   UNL     1       4.560   3.966  16.555  0.00  0.00    +0.000 A 
ATOM      8  C   UNL     1       3.616   4.645  17.324  0.00  0.00    +0.000 A 
ATOM      9  C   UNL     1       3.883   5.935  17.786  0.00  0.00    +0.000 A 
ATOM     10  C   UNL     1       5.116   6.517  17.466  0.00  0.00    +0.000 A 
ATOM     11  C   UNL     1       6.065   5.858  16.671  0.00  0.00    +0.000 A 
BRANCH   6  13
ATOM     12  C   UNL     1       6.371   4.023  13.951  0.00  0.00    +0.000 C 
ATOM     13  O   UNL     1       6.648   3.937  15.351  0.00  0.00    +0.000 OA
ENDBRANCH   6  13
BRANCH  11  14
ATOM     14  O   UNL     1       7.188   6.620  16.492  0.00  0.00    +0.000 OA
ATOM     15  C   UNL     1       7.560   7.562  17.483  0.00  0.00    +0.000 C 
ENDBRANCH  11  14
ENDBRANCH   1   9
BRANCH   4  16
ATOM     16  C   UNL     1       1.060   9.529  19.506  0.00  0.00    +0.000 A 
ATOM     17  C   UNL     1       0.862  10.208  20.689  0.00  0.00    +0.000 A 
ATOM     18  N   UNL     1       0.211  11.357  20.334  0.00  0.00    +0.000 N 
ATOM     19  C   UNL     1       0.001  11.311  18.984  0.00  0.00    +0.000 A 
ATOM     20  N   UNL     1       0.524  10.235  18.448  0.00  0.00    +0.000 NA
BRANCH  18  21
ATOM     21  C   UNL     1      -0.063  12.494  21.191  0.00  0.00    +0.000 C 
BRANCH  21  22
ATOM     22  C   UNL     1      -1.485  12.524  21.685  0.00  0.00    +0.000 A 
ATOM     23  C   UNL     1      -1.795  12.108  22.984  0.00  0.00    +0.000 A 
ATOM     24  C   UNL     1      -3.110  12.175  23.457  0.00  0.00    +0.000 A 
ATOM     25  C   UNL     1      -4.133  12.689  22.658  0.00  0.00    +0.000 A 
ATOM     26  C   UNL     1      -3.838  13.029  21.337  0.00  0.00    +0.000 A 
ATOM     27  C   UNL     1      -2.525  12.967  20.856  0.00  0.00    +0.000 A 
BRANCH  25  28
ATOM     28  N   UNL     1      -5.460  12.646  23.099  0.00  0.00    +0.000 N 
ATOM     29  H   UNL     1      -5.740  11.742  23.468  0.00  0.00    +0.000 HD
ATOM     30  H   UNL     1      -5.716  13.409  23.716  0.00  0.00    +0.000 HD
ENDBRANCH  25  28
ENDBRANCH  21  22
ENDBRANCH  18  21
ENDBRANCH   4  16
TORSDOF 7
ENDMDL
MODEL 6
REMARK VINA RESULT:      -7.6      1.135      2.054
REMARK  Name = 
REMARK  9 active torsions:
REMARK  status: ('A' for Active; 'I' for Inactive)
REMARK    1  A    between atoms: C_1  and  O_2
REMARK    2  A    between atoms: O_2  and  C_3
REMARK    3  A    between atoms: C_6  and  C_7
REMARK    4  A    between atoms: C_10  and  C_11
REMARK    5  A    between atoms: N_13  and  C_14
REMARK    6  A    between atoms: C_14  and  C_15
REMARK    7  A    between atoms: C_18  and  N_19
REMARK    8  A    between atoms: C_26  and  O_27
REMARK    9  A    between atoms: O_27  and  C_28
REMARK                            x       y       z     vdW  Elec       q    Type
REMARK                         _______ _______ _______ _____ _____    ______ ____
ROOT
ATOM      1  C   UNL     1       8.387   9.230  18.150  0.00  0.00    +0.000 A 
ATOM      2  N   UNL     1       8.913   8.424  19.088  0.00  0.00    +0.000 NA
ATOM      3  O   UNL     1       8.370   7.177  18.786  0.00  0.00    +0.000 OA
ATOM      4  C   UNL     1       7.585   7.342  17.678  0.00  0.00    +0.000 A 
ATOM      5  N   UNL     1       7.606   8.582  17.224  0.00  0.00    +0.000 NA
ENDROOT
BRANCH   1   9
ATOM      6  C   UNL     1       8.921  13.474  18.119  0.00  0.00    +0.000 A 
ATOM      7  C   UNL     1       8.024  12.855  17.232  0.00  0.00    +0.000 A 
ATOM      8  C   UNL     1       7.814  11.476  17.264  0.00  0.00    +0.000 A 
ATOM      9  C   UNL     1       8.548  10.675  18.140  0.00  0.00    +0.000 A 
ATOM     10  C   UNL     1       9.497  11.286  18.969  0.00  0.00    +0.000 A 
ATOM     11  C   UNL     1       9.701  12.674  18.968  0.00  0.00    +0.000 A 
BRANCH   6  13
ATOM     12  C   UNL     1       7.955  15.566  18.666  0.00  0.00    +0.000 C 
ATOM     13  O   UNL     1       9.062  14.835  18.134  0.00  0.00    +0.000 OA
ENDBRANCH   6  13
BRANCH  11  14
ATOM     14  O   UNL     1      10.674  13.040  19.858  0.00  0.00    +0.000 OA
ATOM     15  C   UNL     1      10.307  13.618  21.098  0.00  0.00    +0.000 C 
ENDBRANCH  11  14
ENDBRANCH   1   9
BRANCH   4  16
ATOM     16  C   UNL     1       6.774   6.252  17.072  0.00  0.00    +0.000 A 
ATOM     17  C   UNL     1       5.626   5.707  17.608  0.00  0.00    +0.000 A 
ATOM     18  N   UNL     1       5.227   4.763  16.704  0.00  0.00    +0.000 N 
ATOM     19  C   UNL     1       6.152   4.737  15.698  0.00  0.00    +0.000 A 
ATOM     20  N   UNL     1       7.085   5.642  15.875  0.00  0.00    +0.000 NA
BRANCH  18  21
ATOM     21  C   UNL     1       3.972   4.035  16.712  0.00  0.00    +0.000 C 
BRANCH  21  22
ATOM     22  C   UNL     1       3.467   3.759  18.104  0.00  0.00    +0.000 A 
ATOM     23  C   UNL     1       2.290   4.359  18.564  0.00  0.00    +0.000 A 
ATOM     24  C   UNL     1       1.798   4.071  19.841  0.00  0.00    +0.000 A 
ATOM     25  C   UNL     1       2.449   3.155  20.670  0.00  0.00    +0.000 A 
ATOM     26  C   UNL     1       3.666   2.620  20.242  0.00  0.00    +0.000 A 
ATOM     27  C   UNL     1       4.164   2.901  18.964  0.00  0.00    +0.000 A 
BRANCH  25  28
ATOM     28  N   UNL     1       2.014   2.961  21.985  0.00  0.00    +0.000 N 
ATOM     29  H   UNL     1       1.970   3.815  22.533  0.00  0.00    +0.000 HD
ATOM     30  H   UNL     1       1.165   2.411  22.062  0.00  0.00    +0.000 HD
ENDBRANCH  25  28
ENDBRANCH  21  22
ENDBRANCH  18  21
ENDBRANCH   4  16
TORSDOF 7
ENDMDL
MODEL 7
REMARK VINA RESULT:      -7.5      7.305     10.454
REMARK  Name = 
REMARK  9 active torsions:
REMARK  status: ('A' for Active; 'I' for Inactive)
REMARK    1  A    between atoms: C_1  and  O_2
REMARK    2  A    between atoms: O_2  and  C_3
REMARK    3  A    between atoms: C_6  and  C_7
REMARK    4  A    between atoms: C_10  and  C_11
REMARK    5  A    between atoms: N_13  and  C_14
REMARK    6  A    between atoms: C_14  and  C_15
REMARK    7  A    between atoms: C_18  and  N_19
REMARK    8  A    between atoms: C_26  and  O_27
REMARK    9  A    between atoms: O_27  and  C_28
REMARK                            x       y       z     vdW  Elec       q    Type
REMARK                         _______ _______ _______ _____ _____    ______ ____
ROOT
ATOM      1  C   UNL     1       2.348   7.822  18.400  0.00  0.00    +0.000 A 
ATOM      2  N   UNL     1       2.793   8.570  17.376  0.00  0.00    +0.000 NA
ATOM      3  O   UNL     1       1.998   9.711  17.439  0.00  0.00    +0.000 OA
ATOM      4  C   UNL     1       1.162   9.558  18.510  0.00  0.00    +0.000 A 
ATOM      5  N   UNL     1       1.377   8.428  19.160  0.00  0.00    +0.000 NA
ENDROOT
BRANCH   1   9
ATOM      6  C   UNL     1       3.560   3.793  19.171  0.00  0.00    +0.000 A 
ATOM      7  C   UNL     1       3.857   4.411  17.945  0.00  0.00    +0.000 A 
ATOM      8  C   UNL     1       3.502   5.738  17.702  0.00  0.00    +0.000 A 
ATOM      9  C   UNL     1       2.779   6.457  18.655  0.00  0.00    +0.000 A 
ATOM     10  C   UNL     1       2.419   5.813  19.846  0.00  0.00    +0.000 A 
ATOM     11  C   UNL     1       2.792   4.488  20.116  0.00  0.00    +0.000 A 
BRANCH   6  13
ATOM     12  C   UNL     1       3.578   1.526  18.485  0.00  0.00    +0.000 C 
ATOM     13  O   UNL     1       3.983   2.518  19.430  0.00  0.00    +0.000 OA
ENDBRANCH   6  13
BRANCH  11  14
ATOM     14  O   UNL     1       2.328   4.074  21.336  0.00  0.00    +0.000 OA
ATOM     15  C   UNL     1       1.437   2.976  21.411  0.00  0.00    +0.000 C 
ENDBRANCH  11  14
ENDBRANCH   1   9
BRANCH   4  16
ATOM     16  C   UNL     1       0.106  10.538  18.881  0.00  0.00    +0.000 A 
ATOM     17  C   UNL     1       0.172  11.440  19.922  0.00  0.00    +0.000 A 
ATOM     18  N   UNL     1      -1.005  12.132  19.865  0.00  0.00    +0.000 N 
ATOM     19  C   UNL     1      -1.745  11.605  18.844  0.00  0.00    +0.000 A 
ATOM     20  N   UNL     1      -1.094  10.659  18.212  0.00  0.00    +0.000 NA
BRANCH  18  21
ATOM     21  C   UNL     1      -1.348  13.316  20.630  0.00  0.00    +0.000 C 
BRANCH  21  22
ATOM     22  C   UNL     1      -2.423  13.059  21.653  0.00  0.00    +0.000 A 
ATOM     23  C   UNL     1      -2.134  12.352  22.824  0.00  0.00    +0.000 A 
ATOM     24  C   UNL     1      -3.121  12.149  23.794  0.00  0.00    +0.000 A 
ATOM     25  C   UNL     1      -4.403  12.676  23.631  0.00  0.00    +0.000 A 
ATOM     26  C   UNL     1      -4.713  13.312  22.428  0.00  0.00    +0.000 A 
ATOM     27  C   UNL     1      -3.730  13.521  21.453  0.00  0.00    +0.000 A 
BRANCH  25  28
ATOM     28  N   UNL     1      -5.413  12.371  24.551  0.00  0.00    +0.000 N 
ATOM     29  H   UNL     1      -5.962  11.554  24.301  0.00  0.00    +0.000 HD
ATOM     30  H   UNL     1      -5.098  12.342  25.515  0.00  0.00    +0.000 HD
ENDBRANCH  25  28
ENDBRANCH  21  22
ENDBRANCH  18  21
ENDBRANCH   4  16
TORSDOF 7
ENDMDL
MODEL 8
REMARK VINA RESULT:      -7.5      5.835      7.993
REMARK  Name = 
REMARK  9 active torsions:
REMARK  status: ('A' for Active; 'I' for Inactive)
REMARK    1  A    between atoms: C_1  and  O_2
REMARK    2  A    between atoms: O_2  and  C_3
REMARK    3  A    between atoms: C_6  and  C_7
REMARK    4  A    between atoms: C_10  and  C_11
REMARK    5  A    between atoms: N_13  and  C_14
REMARK    6  A    between atoms: C_14  and  C_15
REMARK    7  A    between atoms: C_18  and  N_19
REMARK    8  A    between atoms: C_26  and  O_27
REMARK    9  A    between atoms: O_27  and  C_28
REMARK                            x       y       z     vdW  Elec       q    Type
REMARK                         _______ _______ _______ _____ _____    ______ ____
ROOT
ATOM      1  C   UNL     1       0.865   9.482  20.382  0.00  0.00    +0.000 A 
ATOM      2  N   UNL     1       1.368   9.717  19.158  0.00  0.00    +0.000 NA
ATOM      3  O   UNL     1       1.994   8.517  18.829  0.00  0.00    +0.000 OA
ATOM      4  C   UNL     1       1.790   7.661  19.875  0.00  0.00    +0.000 A 
ATOM      5  N   UNL     1       1.057   8.199  20.833  0.00  0.00    +0.000 NA
ENDROOT
BRANCH   1   9
ATOM      6  C   UNL     1      -0.997  12.503  22.770  0.00  0.00    +0.000 A 
ATOM      7  C   UNL     1      -1.114  11.145  23.109  0.00  0.00    +0.000 A 
ATOM      8  C   UNL     1      -0.476  10.157  22.359  0.00  0.00    +0.000 A 
ATOM      9  C   UNL     1       0.240  10.500  21.211  0.00  0.00    +0.000 A 
ATOM     10  C   UNL     1       0.291  11.848  20.833  0.00  0.00    +0.000 A 
ATOM     11  C   UNL     1      -0.323  12.856  21.592  0.00  0.00    +0.000 A 
BRANCH   6  13
ATOM     12  C   UNL     1      -2.934  13.762  23.292  0.00  0.00    +0.000 C 
ATOM     13  O   UNL     1      -1.560  13.471  23.557  0.00  0.00    +0.000 OA
ENDBRANCH   6  13
BRANCH  11  14
ATOM     14  O   UNL     1      -0.139  14.091  21.029  0.00  0.00    +0.000 OA
ATOM     15  C   UNL     1      -0.246  14.244  19.625  0.00  0.00    +0.000 C 
ENDBRANCH  11  14
ENDBRANCH   1   9
BRANCH   4  16
ATOM     16  C   UNL     1       2.359   6.288  19.941  0.00  0.00    +0.000 A 
ATOM     17  C   UNL     1       3.433   5.823  19.213  0.00  0.00    +0.000 A 
ATOM     18  N   UNL     1       3.599   4.527  19.614  0.00  0.00    +0.000 N 
ATOM     19  C   UNL     1       2.612   4.244  20.516  0.00  0.00    +0.000 A 
ATOM     20  N   UNL     1       1.862   5.292  20.757  0.00  0.00    +0.000 NA
BRANCH  18  21
ATOM     21  C   UNL     1       4.709   3.655  19.280  0.00  0.00    +0.000 C 
BRANCH  21  22
ATOM     22  C   UNL     1       5.439   4.091  18.037  0.00  0.00    +0.000 A 
ATOM     23  C   UNL     1       4.917   3.808  16.770  0.00  0.00    +0.000 A 
ATOM     24  C   UNL     1       5.574   4.249  15.616  0.00  0.00    +0.000 A 
ATOM     25  C   UNL     1       6.742   5.008  15.703  0.00  0.00    +0.000 A 
ATOM     26  C   UNL     1       7.305   5.220  16.963  0.00  0.00    +0.000 A 
ATOM     27  C   UNL     1       6.653   4.785  18.123  0.00  0.00    +0.000 A 
BRANCH  25  28
ATOM     28  N   UNL     1       7.451   5.345  14.545  0.00  0.00    +0.000 N 
ATOM     29  H   UNL     1       7.543   6.346  14.397  0.00  0.00    +0.000 HD
ATOM     30  H   UNL     1       8.336   4.859  14.446  0.00  0.00    +0.000 HD
ENDBRANCH  25  28
ENDBRANCH  21  22
ENDBRANCH  18  21
ENDBRANCH   4  16
TORSDOF 7
ENDMDL
MODEL 9
REMARK VINA RESULT:      -7.4      7.288     10.579
REMARK  Name = 
REMARK  9 active torsions:
REMARK  status: ('A' for Active; 'I' for Inactive)
REMARK    1  A    between atoms: C_1  and  O_2
REMARK    2  A    between atoms: O_2  and  C_3
REMARK    3  A    between atoms: C_6  and  C_7
REMARK    4  A    between atoms: C_10  and  C_11
REMARK    5  A    between atoms: N_13  and  C_14
REMARK    6  A    between atoms: C_14  and  C_15
REMARK    7  A    between atoms: C_18  and  N_19
REMARK    8  A    between atoms: C_26  and  O_27
REMARK    9  A    between atoms: O_27  and  C_28
REMARK                            x       y       z     vdW  Elec       q    Type
REMARK                         _______ _______ _______ _____ _____    ______ ____
ROOT
ATOM      1  C   UNL     1       2.391   7.884  18.480  0.00  0.00    +0.000 A 
ATOM      2  N   UNL     1       2.500   8.557  17.322  0.00  0.00    +0.000 NA
ATOM      3  O   UNL     1       1.804   9.738  17.569  0.00  0.00    +0.000 OA
ATOM      4  C   UNL     1       1.360   9.679  18.861  0.00  0.00    +0.000 A 
ATOM      5  N   UNL     1       1.741   8.573  19.475  0.00  0.00    +0.000 NA
ENDROOT
BRANCH   1   9
ATOM      6  C   UNL     1       3.654   3.836  19.043  0.00  0.00    +0.000 A 
ATOM      7  C   UNL     1       3.983   4.535  17.870  0.00  0.00    +0.000 A 
ATOM      8  C   UNL     1       3.610   5.868  17.697  0.00  0.00    +0.000 A 
ATOM      9  C   UNL     1       2.839   6.513  18.666  0.00  0.00    +0.000 A 
ATOM     10  C   UNL     1       2.449   5.789  19.799  0.00  0.00    +0.000 A 
ATOM     11  C   UNL     1       2.838   4.456  20.001  0.00  0.00    +0.000 A 
BRANCH   6  13
ATOM     12  C   UNL     1       3.459   1.554  18.439  0.00  0.00    +0.000 C 
ATOM     13  O   UNL     1       4.092   2.554  19.239  0.00  0.00    +0.000 OA
ENDBRANCH   6  13
BRANCH  11  14
ATOM     14  O   UNL     1       2.339   3.959  21.174  0.00  0.00    +0.000 OA
ATOM     15  C   UNL     1       1.287   3.010  21.142  0.00  0.00    +0.000 C 
ENDBRANCH  11  14
ENDBRANCH   1   9
BRANCH   4  16
ATOM     16  C   UNL     1       0.514  10.727  19.492  0.00  0.00    +0.000 A 
ATOM     17  C   UNL     1       0.780  11.368  20.684  0.00  0.00    +0.000 A 
ATOM     18  N   UNL     1      -0.253  12.249  20.849  0.00  0.00    +0.000 N 
ATOM     19  C   UNL     1      -1.112  12.080  19.799  0.00  0.00    +0.000 A 
ATOM     20  N   UNL     1      -0.666  11.188  18.947  0.00  0.00    +0.000 NA
BRANCH  18  21
ATOM     21  C   UNL     1      -0.347  13.289  21.855  0.00  0.00    +0.000 C 
BRANCH  21  22
ATOM     22  C   UNL     1      -1.678  13.301  22.560  0.00  0.00    +0.000 A 
ATOM     23  C   UNL     1      -2.422  14.482  22.653  0.00  0.00    +0.000 A 
ATOM     24  C   UNL     1      -3.677  14.484  23.271  0.00  0.00    +0.000 A 
ATOM     25  C   UNL     1      -4.228  13.305  23.776  0.00  0.00    +0.000 A 
ATOM     26  C   UNL     1      -3.451  12.145  23.755  0.00  0.00    +0.000 A 
ATOM     27  C   UNL     1      -2.196  12.134  23.136  0.00  0.00    +0.000 A 
BRANCH  25  28
ATOM     28  N   UNL     1      -5.430  13.339  24.492  0.00  0.00    +0.000 N 
ATOM     29  H   UNL     1      -5.386  12.864  25.389  0.00  0.00    +0.000 HD
ATOM     30  H   UNL     1      -5.840  14.264  24.567  0.00  0.00    +0.000 HD
ENDBRANCH  25  28
ENDBRANCH  21  22
ENDBRANCH  18  21
ENDBRANCH   4  16
TORSDOF 7
ENDMDL
