MODEL 1
REMARK VINA RESULT:      -8.6      0.000      0.000
REMARK  Name = 
REMARK  5 active torsions:
REMARK  status: ('A' for Active; 'I' for Inactive)
REMARK    1  A    between atoms: C_2  and  C_3
REMARK    2  A    between atoms: C_3  and  C_18
REMARK    3  A    between atoms: C_4  and  C_5
REMARK    4  A    between atoms: C_8  and  S_9
REMARK    5  A    between atoms: S_9  and  C_10
REMARK                            x       y       z     vdW  Elec       q    Type
REMARK                         _______ _______ _______ _____ _____    ______ ____
ROOT
ATOM      1  C   UNL     1       7.805   7.329  18.039  0.00  0.00    +0.000 C 
ATOM      2  C   UNL     1       7.175   7.040  16.877  0.00  0.00    +0.000 C 
ENDROOT
BRANCH   1   3
ATOM      3  C   UNL     1       8.332   8.635  18.238  0.00  0.00    +0.000 A 
ATOM      4  N   UNL     1       8.229   9.708  17.474  0.00  0.00    +0.000 NA
ATOM      5  C   UNL     1       8.804  10.735  18.178  0.00  0.00    +0.000 A 
ATOM      6  C   UNL     1       8.920  12.093  17.852  0.00  0.00    +0.000 A 
ATOM      7  C   UNL     1       9.550  12.951  18.763  0.00  0.00    +0.000 A 
ATOM      8  C   UNL     1      10.057  12.463  19.971  0.00  0.00    +0.000 A 
ATOM      9  C   UNL     1       9.948  11.109  20.313  0.00  0.00    +0.000 A 
ATOM     10  C   UNL     1       9.312  10.279  19.388  0.00  0.00    +0.000 A 
ATOM     11  N   UNL     1       9.015   8.938  19.397  0.00  0.00    +0.000 N 
ATOM     12  H   UNL     1       9.226   8.306  20.156  0.00  0.00    +0.000 HD
ENDBRANCH   1   3
BRANCH   2  13
ATOM     13  C   UNL     1       6.473   5.807  16.661  0.00  0.00    +0.000 A 
ATOM     14  C   UNL     1       6.802   4.732  15.847  0.00  0.00    +0.000 A 
ATOM     15  C   UNL     1       5.771   3.760  15.961  0.00  0.00    +0.000 A 
ATOM     16  C   UNL     1       4.836   4.278  16.828  0.00  0.00    +0.000 A 
ATOM     17  O   UNL     1       5.253   5.510  17.236  0.00  0.00    +0.000 OA
BRANCH  16  18
ATOM     18  S   UNL     1       3.287   3.622  17.295  0.00  0.00    +0.000 S 
BRANCH  18  19
ATOM     19  C   UNL     1       2.704   4.901  18.396  0.00  0.00    +0.000 A 
ATOM     20  C   UNL     1       2.299   4.619  19.704  0.00  0.00    +0.000 A 
ATOM     21  C   UNL     1       1.906   5.647  20.569  0.00  0.00    +0.000 A 
ATOM     22  C   UNL     1       1.931   6.968  20.129  0.00  0.00    +0.000 A 
ATOM     23 CL   UNL     1       1.454   8.236  21.190  0.00  0.00    +0.000 Cl
ATOM     24  C   UNL     1       2.352   7.268  18.835  0.00  0.00    +0.000 A 
ATOM     25  C   UNL     1       2.741   6.237  17.973  0.00  0.00    +0.000 A 
ENDBRANCH  18  19
ENDBRANCH  16  18
ENDBRANCH   2  13
BRANCH   1  27
ATOM     26  N   UNL     1       7.857   5.362  20.005  0.00  0.00    +0.000 NA
ATOM     27  C   UNL     1       7.833   6.254  19.113  0.00  0.00    +0.000 C 
ENDBRANCH   1  27
TORSDOF 5
ENDMDL
MODEL 2
REMARK VINA RESULT:      -8.0      0.390      1.198
REMARK  Name = 
REMARK  5 active torsions:
REMARK  status: ('A' for Active; 'I' for Inactive)
REMARK    1  A    between atoms: C_2  and  C_3
REMARK    2  A    between atoms: C_3  and  C_18
REMARK    3  A    between atoms: C_4  and  C_5
REMARK    4  A    between atoms: C_8  and  S_9
REMARK    5  A    between atoms: S_9  and  C_10
REMARK                            x       y       z     vdW  Elec       q    Type
REMARK                         _______ _______ _______ _____ _____    ______ ____
ROOT
ATOM      1  C   UNL     1       7.831   7.587  18.065  0.00  0.00    +0.000 C 
ATOM      2  C   UNL     1       7.059   7.438  16.963  0.00  0.00    +0.000 C 
ENDROOT
BRANCH   1   3
ATOM      3  C   UNL     1       8.351   8.872  18.380  0.00  0.00    +0.000 A 
ATOM      4  N   UNL     1       9.168   9.232  19.355  0.00  0.00    +0.000 NA
ATOM      5  C   UNL     1       9.461  10.554  19.140  0.00  0.00    +0.000 A 
ATOM      6  C   UNL     1      10.315  11.412  19.847  0.00  0.00    +0.000 A 
ATOM      7  C   UNL     1      10.451  12.735  19.407  0.00  0.00    +0.000 A 
ATOM      8  C   UNL     1       9.746  13.194  18.291  0.00  0.00    +0.000 A 
ATOM      9  C   UNL     1       8.889  12.350  17.573  0.00  0.00    +0.000 A 
ATOM     10  C   UNL     1       8.777  11.036  18.030  0.00  0.00    +0.000 A 
ATOM     11  N   UNL     1       8.066   9.953  17.574  0.00  0.00    +0.000 N 
ATOM     12  H   UNL     1       7.476   9.956  16.754  0.00  0.00    +0.000 HD
ENDBRANCH   1   3
BRANCH   2  13
ATOM     13  C   UNL     1       6.362   6.220  16.663  0.00  0.00    +0.000 A 
ATOM     14  C   UNL     1       6.609   5.280  15.673  0.00  0.00    +0.000 A 
ATOM     15  C   UNL     1       5.621   4.263  15.773  0.00  0.00    +0.000 A 
ATOM     16  C   UNL     1       4.792   4.621  16.812  0.00  0.00    +0.000 A 
ATOM     17  O   UNL     1       5.230   5.801  17.334  0.00  0.00    +0.000 OA
BRANCH  16  18
ATOM     18  S   UNL     1       3.328   3.848  17.366  0.00  0.00    +0.000 S 
BRANCH  18  19
ATOM     19  C   UNL     1       2.697   5.094  18.478  0.00  0.00    +0.000 A 
ATOM     20  C   UNL     1       2.273   4.780  19.773  0.00  0.00    +0.000 A 
ATOM     21  C   UNL     1       1.842   5.784  20.648  0.00  0.00    +0.000 A 
ATOM     22  C   UNL     1       1.847   7.113  20.233  0.00  0.00    +0.000 A 
ATOM     23 CL   UNL     1       1.322   8.350  21.307  0.00  0.00    +0.000 Cl
ATOM     24  C   UNL     1       2.286   7.445  18.953  0.00  0.00    +0.000 A 
ATOM     25  C   UNL     1       2.714   6.438  18.081  0.00  0.00    +0.000 A 
ENDBRANCH  18  19
ENDBRANCH  16  18
ENDBRANCH   2  13
BRANCH   1  27
ATOM     26  N   UNL     1       8.186   5.368  19.702  0.00  0.00    +0.000 NA
ATOM     27  C   UNL     1       8.025   6.374  18.960  0.00  0.00    +0.000 C 
ENDBRANCH   1  27
TORSDOF 5
ENDMDL
MODEL 3
REMARK VINA RESULT:      -8.0      6.064      8.930
REMARK  Name = 
REMARK  5 active torsions:
REMARK  status: ('A' for Active; 'I' for Inactive)
REMARK    1  A    between atoms: C_2  and  C_3
REMARK    2  A    between atoms: C_3  and  C_18
REMARK    3  A    between atoms: C_4  and  C_5
REMARK    4  A    between atoms: C_8  and  S_9
REMARK    5  A    between atoms: S_9  and  C_10
REMARK                            x       y       z     vdW  Elec       q    Type
REMARK                         _______ _______ _______ _____ _____    ______ ____
ROOT
ATOM      1  C   UNL     1       1.774   8.125  19.754  0.00  0.00    +0.000 C 
ATOM      2  C   UNL     1       1.148   8.728  20.792  0.00  0.00    +0.000 C 
ENDROOT
BRANCH   1   3
ATOM      3  C   UNL     1       2.154   6.760  19.869  0.00  0.00    +0.000 A 
ATOM      4  N   UNL     1       3.037   6.072  19.168  0.00  0.00    +0.000 NA
ATOM      5  C   UNL     1       3.118   4.838  19.761  0.00  0.00    +0.000 A 
ATOM      6  C   UNL     1       3.935   3.742  19.448  0.00  0.00    +0.000 A 
ATOM      7  C   UNL     1       3.832   2.584  20.229  0.00  0.00    +0.000 A 
ATOM      8  C   UNL     1       2.929   2.517  21.294  0.00  0.00    +0.000 A 
ATOM      9  C   UNL     1       2.106   3.602  21.620  0.00  0.00    +0.000 A 
ATOM     10  C   UNL     1       2.234   4.746  20.828  0.00  0.00    +0.000 A 
ATOM     11  N   UNL     1       1.621   5.974  20.868  0.00  0.00    +0.000 N 
ATOM     12  H   UNL     1       0.932   6.252  21.553  0.00  0.00    +0.000 HD
ENDBRANCH   1   3
BRANCH   2  13
ATOM     13  C   UNL     1       0.586  10.045  20.701  0.00  0.00    +0.000 A 
ATOM     14  C   UNL     1       1.181  11.278  20.925  0.00  0.00    +0.000 A 
ATOM     15  C   UNL     1       0.197  12.286  20.728  0.00  0.00    +0.000 A 
ATOM     16  C   UNL     1      -0.972  11.635  20.405  0.00  0.00    +0.000 A 
ATOM     17  O   UNL     1      -0.739  10.293  20.402  0.00  0.00    +0.000 OA
BRANCH  16  18
ATOM     18  S   UNL     1      -2.567  12.301  20.153  0.00  0.00    +0.000 S 
BRANCH  18  19
ATOM     19  C   UNL     1      -2.959  11.621  18.549  0.00  0.00    +0.000 A 
ATOM     20  C   UNL     1      -4.263  11.627  18.044  0.00  0.00    +0.000 A 
ATOM     21  C   UNL     1      -4.534  11.146  16.758  0.00  0.00    +0.000 A 
ATOM     22  C   UNL     1      -3.495  10.668  15.965  0.00  0.00    +0.000 A 
ATOM     23 CL   UNL     1      -3.824  10.080  14.381  0.00  0.00    +0.000 Cl
ATOM     24  C   UNL     1      -2.187  10.674  16.445  0.00  0.00    +0.000 A 
ATOM     25  C   UNL     1      -1.920  11.153  17.732  0.00  0.00    +0.000 A 
ENDBRANCH  18  19
ENDBRANCH  16  18
ENDBRANCH   2  13
BRANCH   1  27
ATOM     26  N   UNL     1       2.107   9.596  17.418  0.00  0.00    +0.000 NA
ATOM     27  C   UNL     1       1.956   8.929  18.477  0.00  0.00    +0.000 C 
ENDBRANCH   1  27
TORSDOF 5
ENDMDL
MODEL 4
REMARK VINA RESULT:      -8.0      6.120      9.031
REMARK  Name = 
REMARK  5 active torsions:
REMARK  status: ('A' for Active; 'I' for Inactive)
REMARK    1  A    between atoms: C_2  and  C_3
REMARK    2  A    between atoms: C_3  and  C_18
REMARK    3  A    between atoms: C_4  and  C_5
REMARK    4  A    between atoms: C_8  and  S_9
REMARK    5  A    between atoms: S_9  and  C_10
REMARK                            x       y       z     vdW  Elec       q    Type
REMARK                         _______ _______ _______ _____ _____    ______ ____
ROOT
ATOM      1  C   UNL     1       1.651   8.211  19.966  0.00  0.00    +0.000 C 
ATOM      2  C   UNL     1       1.064   8.934  20.948  0.00  0.00    +0.000 C 
ENDROOT
BRANCH   1   3
ATOM      3  C   UNL     1       2.035   6.868  20.226  0.00  0.00    +0.000 A 
ATOM      4  N   UNL     1       1.461   5.964  21.000  0.00  0.00    +0.000 NA
ATOM      5  C   UNL     1       2.151   4.795  20.801  0.00  0.00    +0.000 A 
ATOM      6  C   UNL     1       1.929   3.519  21.336  0.00  0.00    +0.000 A 
ATOM      7  C   UNL     1       2.783   2.475  20.957  0.00  0.00    +0.000 A 
ATOM      8  C   UNL     1       3.838   2.701  20.069  0.00  0.00    +0.000 A 
ATOM      9  C   UNL     1       4.073   3.970  19.524  0.00  0.00    +0.000 A 
ATOM     10  C   UNL     1       3.203   4.990  19.915  0.00  0.00    +0.000 A 
ATOM     11  N   UNL     1       3.120   6.318  19.576  0.00  0.00    +0.000 N 
ATOM     12  H   UNL     1       3.730   6.784  18.920  0.00  0.00    +0.000 HD
ENDBRANCH   1   3
BRANCH   2  13
ATOM     13  C   UNL     1       0.498  10.233  20.724  0.00  0.00    +0.000 A 
ATOM     14  C   UNL     1       1.100  11.482  20.780  0.00  0.00    +0.000 A 
ATOM     15  C   UNL     1       0.109  12.463  20.503  0.00  0.00    +0.000 A 
ATOM     16  C   UNL     1      -1.071  11.784  20.301  0.00  0.00    +0.000 A 
ATOM     17  O   UNL     1      -0.838  10.449  20.447  0.00  0.00    +0.000 OA
BRANCH  16  18
ATOM     18  S   UNL     1      -2.674  12.421  20.031  0.00  0.00    +0.000 S 
BRANCH  18  19
ATOM     19  C   UNL     1      -3.053  11.701  18.442  0.00  0.00    +0.000 A 
ATOM     20  C   UNL     1      -4.356  11.674  17.936  0.00  0.00    +0.000 A 
ATOM     21  C   UNL     1      -4.618  11.162  16.660  0.00  0.00    +0.000 A 
ATOM     22  C   UNL     1      -3.570  10.685  15.877  0.00  0.00    +0.000 A 
ATOM     23 CL   UNL     1      -3.886  10.058  14.306  0.00  0.00    +0.000 Cl
ATOM     24  C   UNL     1      -2.262  10.723  16.358  0.00  0.00    +0.000 A 
ATOM     25  C   UNL     1      -2.005  11.234  17.635  0.00  0.00    +0.000 A 
ENDBRANCH  18  19
ENDBRANCH  16  18
ENDBRANCH   2  13
BRANCH   1  27
ATOM     26  N   UNL     1       1.895   9.396  17.462  0.00  0.00    +0.000 NA
ATOM     27  C   UNL     1       1.785   8.859  18.597  0.00  0.00    +0.000 C 
ENDBRANCH   1  27
TORSDOF 5
ENDMDL
MODEL 5
REMARK VINA RESULT:      -7.9      1.695      1.940
REMARK  Name = 
REMARK  5 active torsions:
REMARK  status: ('A' for Active; 'I' for Inactive)
REMARK    1  A    between atoms: C_2  and  C_3
REMARK    2  A    between atoms: C_3  and  C_18
REMARK    3  A    between atoms: C_4  and  C_5
REMARK    4  A    between atoms: C_8  and  S_9
REMARK    5  A    between atoms: S_9  and  C_10
REMARK                            x       y       z     vdW  Elec       q    Type
REMARK                         _______ _______ _______ _____ _____    ______ ____
ROOT
ATOM      1  C   UNL     1       7.796   7.270  18.037  0.00  0.00    +0.000 C 
ATOM      2  C   UNL     1       7.238   6.950  16.846  0.00  0.00    +0.000 C 
ENDROOT
BRANCH   1   3
ATOM      3  C   UNL     1       8.305   8.582  18.236  0.00  0.00    +0.000 A 
ATOM      4  N   UNL     1       8.168   9.660  17.484  0.00  0.00    +0.000 NA
ATOM      5  C   UNL     1       8.740  10.691  18.185  0.00  0.00    +0.000 A 
ATOM      6  C   UNL     1       8.827  12.054  17.868  0.00  0.00    +0.000 A 
ATOM      7  C   UNL     1       9.461  12.914  18.773  0.00  0.00    +0.000 A 
ATOM      8  C   UNL     1      10.002  12.425  19.965  0.00  0.00    +0.000 A 
ATOM      9  C   UNL     1       9.923  11.067  20.298  0.00  0.00    +0.000 A 
ATOM     10  C   UNL     1       9.281  10.233  19.379  0.00  0.00    +0.000 A 
ATOM     11  N   UNL     1       9.007   8.888  19.383  0.00  0.00    +0.000 N 
ATOM     12  H   UNL     1       9.245   8.253  20.131  0.00  0.00    +0.000 HD
ENDBRANCH   1   3
BRANCH   2  13
ATOM     13  C   UNL     1       6.556   5.709  16.617  0.00  0.00    +0.000 A 
ATOM     14  C   UNL     1       7.071   4.463  16.290  0.00  0.00    +0.000 A 
ATOM     15  C   UNL     1       5.983   3.559  16.145  0.00  0.00    +0.000 A 
ATOM     16  C   UNL     1       4.836   4.285  16.373  0.00  0.00    +0.000 A 
ATOM     17  O   UNL     1       5.181   5.576  16.642  0.00  0.00    +0.000 OA
BRANCH  16  18
ATOM     18  S   UNL     1       3.170   3.780  16.237  0.00  0.00    +0.000 S 
BRANCH  18  19
ATOM     19  C   UNL     1       2.758   3.534  17.957  0.00  0.00    +0.000 A 
ATOM     20  C   UNL     1       1.518   3.913  18.480  0.00  0.00    +0.000 A 
ATOM     21  C   UNL     1       1.195   3.652  19.816  0.00  0.00    +0.000 A 
ATOM     22  C   UNL     1       2.111   2.994  20.634  0.00  0.00    +0.000 A 
ATOM     23 CL   UNL     1       1.715   2.666  22.276  0.00  0.00    +0.000 Cl
ATOM     24  C   UNL     1       3.342   2.590  20.123  0.00  0.00    +0.000 A 
ATOM     25  C   UNL     1       3.663   2.856  18.787  0.00  0.00    +0.000 A 
ENDBRANCH  18  19
ENDBRANCH  16  18
ENDBRANCH   2  13
BRANCH   1  27
ATOM     26  N   UNL     1       7.737   5.350  20.048  0.00  0.00    +0.000 NA
ATOM     27  C   UNL     1       7.764   6.221  19.136  0.00  0.00    +0.000 C 
ENDBRANCH   1  27
TORSDOF 5
ENDMDL
MODEL 6
REMARK VINA RESULT:      -7.7      5.412      8.228
REMARK  Name = 
REMARK  5 active torsions:
REMARK  status: ('A' for Active; 'I' for Inactive)
REMARK    1  A    between atoms: C_2  and  C_3
REMARK    2  A    between atoms: C_3  and  C_18
REMARK    3  A    between atoms: C_4  and  C_5
REMARK    4  A    between atoms: C_8  and  S_9
REMARK    5  A    between atoms: S_9  and  C_10
REMARK                            x       y       z     vdW  Elec       q    Type
REMARK                         _______ _______ _______ _____ _____    ______ ____
ROOT
ATOM      1  C   UNL     1       2.056   7.934  18.663  0.00  0.00    +0.000 C 
ATOM      2  C   UNL     1       1.551   8.909  17.872  0.00  0.00    +0.000 C 
ENDROOT
BRANCH   1   3
ATOM      3  C   UNL     1       2.971   6.996  18.112  0.00  0.00    +0.000 A 
ATOM      4  N   UNL     1       2.951   5.676  18.156  0.00  0.00    +0.000 NA
ATOM      5  C   UNL     1       3.985   5.250  17.363  0.00  0.00    +0.000 A 
ATOM      6  C   UNL     1       4.380   3.948  17.024  0.00  0.00    +0.000 A 
ATOM      7  C   UNL     1       5.479   3.781  16.172  0.00  0.00    +0.000 A 
ATOM      8  C   UNL     1       6.172   4.888  15.673  0.00  0.00    +0.000 A 
ATOM      9  C   UNL     1       5.789   6.195  16.000  0.00  0.00    +0.000 A 
ATOM     10  C   UNL     1       4.688   6.331  16.848  0.00  0.00    +0.000 A 
ATOM     11  N   UNL     1       4.035   7.430  17.350  0.00  0.00    +0.000 N 
ATOM     12  H   UNL     1       4.279   8.388  17.145  0.00  0.00    +0.000 HD
ENDBRANCH   1   3
BRANCH   2  13
ATOM     13  C   UNL     1       0.756   9.989  18.383  0.00  0.00    +0.000 A 
ATOM     14  C   UNL     1      -0.553  10.341  18.087  0.00  0.00    +0.000 A 
ATOM     15  C   UNL     1      -0.878  11.504  18.838  0.00  0.00    +0.000 A 
ATOM     16  C   UNL     1       0.248  11.835  19.558  0.00  0.00    +0.000 A 
ATOM     17  O   UNL     1       1.229  10.933  19.273  0.00  0.00    +0.000 OA
BRANCH  16  18
ATOM     18  S   UNL     1       0.529  13.219  20.584  0.00  0.00    +0.000 S 
BRANCH  18  19
ATOM     19  C   UNL     1      -0.794  13.028  21.767  0.00  0.00    +0.000 A 
ATOM     20  C   UNL     1      -1.741  14.033  21.983  0.00  0.00    +0.000 A 
ATOM     21  C   UNL     1      -2.806  13.835  22.870  0.00  0.00    +0.000 A 
ATOM     22  C   UNL     1      -2.934  12.619  23.536  0.00  0.00    +0.000 A 
ATOM     23 CL   UNL     1      -4.244  12.369  24.623  0.00  0.00    +0.000 Cl
ATOM     24  C   UNL     1      -2.011  11.599  23.316  0.00  0.00    +0.000 A 
ATOM     25  C   UNL     1      -0.947  11.802  22.431  0.00  0.00    +0.000 A 
ENDBRANCH  18  19
ENDBRANCH  16  18
ENDBRANCH   2  13
BRANCH   1  27
ATOM     26  N   UNL     1       1.369   7.971  21.358  0.00  0.00    +0.000 NA
ATOM     27  C   UNL     1       1.681   7.954  20.136  0.00  0.00    +0.000 C 
ENDBRANCH   1  27
TORSDOF 5
ENDMDL
MODEL 7
REMARK VINA RESULT:      -7.5      4.548      6.538
REMARK  Name = 
REMARK  5 active torsions:
REMARK  status: ('A' for Active; 'I' for Inactive)
REMARK    1  A    between atoms: C_2  and  C_3
REMARK    2  A    between atoms: C_3  and  C_18
REMARK    3  A    between atoms: C_4  and  C_5
REMARK    4  A    between atoms: C_8  and  S_9
REMARK    5  A    between atoms: S_9  and  C_10
REMARK                            x       y       z     vdW  Elec       q    Type
REMARK                         _______ _______ _______ _____ _____    ______ ____
ROOT
ATOM      1  C   UNL     1       4.809   5.173  17.397  0.00  0.00    +0.000 C 
ATOM      2  C   UNL     1       3.470   5.350  17.491  0.00  0.00    +0.000 C 
ENDROOT
BRANCH   1   3
ATOM      3  C   UNL     1       5.406   5.054  16.113  0.00  0.00    +0.000 A 
ATOM      4  N   UNL     1       6.475   5.658  15.624  0.00  0.00    +0.000 NA
ATOM      5  C   UNL     1       6.700   5.100  14.391  0.00  0.00    +0.000 A 
ATOM      6  C   UNL     1       7.729   5.340  13.470  0.00  0.00    +0.000 A 
ATOM      7  C   UNL     1       7.738   4.616  12.271  0.00  0.00    +0.000 A 
ATOM      8  C   UNL     1       6.739   3.679  11.994  0.00  0.00    +0.000 A 
ATOM      9  C   UNL     1       5.704   3.426  12.903  0.00  0.00    +0.000 A 
ATOM     10  C   UNL     1       5.723   4.158  14.093  0.00  0.00    +0.000 A 
ATOM     11  N   UNL     1       4.903   4.158  15.194  0.00  0.00    +0.000 N 
ATOM     12  H   UNL     1       4.099   3.559  15.313  0.00  0.00    +0.000 HD
ENDBRANCH   1   3
BRANCH   2  13
ATOM     13  C   UNL     1       2.811   5.643  18.731  0.00  0.00    +0.000 A 
ATOM     14  C   UNL     1       2.076   4.808  19.561  0.00  0.00    +0.000 A 
ATOM     15  C   UNL     1       1.607   5.580  20.660  0.00  0.00    +0.000 A 
ATOM     16  C   UNL     1       2.057   6.865  20.458  0.00  0.00    +0.000 A 
ATOM     17  O   UNL     1       2.766   6.903  19.295  0.00  0.00    +0.000 OA
BRANCH  16  18
ATOM     18  S   UNL     1       1.727   8.304  21.391  0.00  0.00    +0.000 S 
BRANCH  18  19
ATOM     19  C   UNL     1       0.765   9.245  20.217  0.00  0.00    +0.000 A 
ATOM     20  C   UNL     1       1.087   9.278  18.857  0.00  0.00    +0.000 A 
ATOM     21  C   UNL     1       0.281   9.971  17.948  0.00  0.00    +0.000 A 
ATOM     22  C   UNL     1      -0.864  10.625  18.396  0.00  0.00    +0.000 A 
ATOM     23 CL   UNL     1      -1.861  11.474  17.280  0.00  0.00    +0.000 Cl
ATOM     24  C   UNL     1      -1.211  10.584  19.745  0.00  0.00    +0.000 A 
ATOM     25  C   UNL     1      -0.401   9.892  20.651  0.00  0.00    +0.000 A 
ENDBRANCH  18  19
ENDBRANCH  16  18
ENDBRANCH   2  13
BRANCH   1  27
ATOM     26  N   UNL     1       6.286   5.227  19.753  0.00  0.00    +0.000 NA
ATOM     27  C   UNL     1       5.616   5.203  18.685  0.00  0.00    +0.000 C 
ENDBRANCH   1  27
TORSDOF 5
ENDMDL
MODEL 8
REMARK VINA RESULT:      -7.5      5.964      8.885
REMARK  Name = 
REMARK  5 active torsions:
REMARK  status: ('A' for Active; 'I' for Inactive)
REMARK    1  A    between atoms: C_2  and  C_3
REMARK    2  A    between atoms: C_3  and  C_18
REMARK    3  A    between atoms: C_4  and  C_5
REMARK    4  A    between atoms: C_8  and  S_9
REMARK    5  A    between atoms: S_9  and  C_10
REMARK                            x       y       z     vdW  Elec       q    Type
REMARK                         _______ _______ _______ _____ _____    ______ ____
ROOT
ATOM      1  C   UNL     1       1.848   7.967  19.522  0.00  0.00    +0.000 C 
ATOM      2  C   UNL     1       1.243   8.429  20.641  0.00  0.00    +0.000 C 
ENDROOT
BRANCH   1   3
ATOM      3  C   UNL     1       2.237   6.602  19.455  0.00  0.00    +0.000 A 
ATOM      4  N   UNL     1       2.088   5.640  20.349  0.00  0.00    +0.000 NA
ATOM      5  C   UNL     1       2.515   4.486  19.744  0.00  0.00    +0.000 A 
ATOM      6  C   UNL     1       2.527   3.170  20.228  0.00  0.00    +0.000 A 
ATOM      7  C   UNL     1       3.010   2.153  19.394  0.00  0.00    +0.000 A 
ATOM      8  C   UNL     1       3.475   2.444  18.108  0.00  0.00    +0.000 A 
ATOM      9  C   UNL     1       3.469   3.752  17.609  0.00  0.00    +0.000 A 
ATOM     10  C   UNL     1       2.978   4.745  18.461  0.00  0.00    +0.000 A 
ATOM     11  N   UNL     1       2.806   6.098  18.304  0.00  0.00    +0.000 N 
ATOM     12  H   UNL     1       3.021   6.613  17.463  0.00  0.00    +0.000 HD
ENDBRANCH   1   3
BRANCH   2  13
ATOM     13  C   UNL     1       0.673   9.743  20.730  0.00  0.00    +0.000 A 
ATOM     14  C   UNL     1       1.221  10.914  21.233  0.00  0.00    +0.000 A 
ATOM     15  C   UNL     1       0.247  11.943  21.118  0.00  0.00    +0.000 A 
ATOM     16  C   UNL     1      -0.872  11.365  20.563  0.00  0.00    +0.000 A 
ATOM     17  O   UNL     1      -0.619  10.044  20.344  0.00  0.00    +0.000 OA
BRANCH  16  18
ATOM     18  S   UNL     1      -2.442  12.069  20.270  0.00  0.00    +0.000 S 
BRANCH  18  19
ATOM     19  C   UNL     1      -2.744  11.520  18.598  0.00  0.00    +0.000 A 
ATOM     20  C   UNL     1      -1.785  10.808  17.871  0.00  0.00    +0.000 A 
ATOM     21  C   UNL     1      -2.068  10.333  16.585  0.00  0.00    +0.000 A 
ATOM     22  C   UNL     1      -3.323  10.560  16.025  0.00  0.00    +0.000 A 
ATOM     23 CL   UNL     1      -3.677   9.974  14.447  0.00  0.00    +0.000 Cl
ATOM     24  C   UNL     1      -4.296  11.250  16.743  0.00  0.00    +0.000 A 
ATOM     25  C   UNL     1      -4.009  11.725  18.028  0.00  0.00    +0.000 A 
ENDBRANCH  18  19
ENDBRANCH  16  18
ENDBRANCH   2  13
BRANCH   1  27
ATOM     26  N   UNL     1       2.118   9.723  17.382  0.00  0.00    +0.000 NA
ATOM     27  C   UNL     1       1.995   8.927  18.353  0.00  0.00    +0.000 C 
ENDBRANCH   1  27
TORSDOF 5
ENDMDL
MODEL 9
REMARK VINA RESULT:      -7.5      5.522      7.973
REMARK  Name = 
REMARK  5 active torsions:
REMARK  status: ('A' for Active; 'I' for Inactive)
REMARK    1  A    between atoms: C_2  and  C_3
REMARK    2  A    between atoms: C_3  and  C_18
REMARK    3  A    between atoms: C_4  and  C_5
REMARK    4  A    between atoms: C_8  and  S_9
REMARK    5  A    between atoms: S_9  and  C_10
REMARK                            x       y       z     vdW  Elec       q    Type
REMARK                         _______ _______ _______ _____ _____    ______ ____
ROOT
ATOM      1  C   UNL     1       2.094   8.087  18.680  0.00  0.00    +0.000 C 
ATOM      2  C   UNL     1       1.483   8.932  17.817  0.00  0.00    +0.000 C 
ENDROOT
BRANCH   1   3
ATOM      3  C   UNL     1       3.169   7.280  18.219  0.00  0.00    +0.000 A 
ATOM      4  N   UNL     1       3.903   7.400  17.127  0.00  0.00    +0.000 NA
ATOM      5  C   UNL     1       4.885   6.447  17.219  0.00  0.00    +0.000 A 
ATOM      6  C   UNL     1       5.955   6.173  16.355  0.00  0.00    +0.000 A 
ATOM      7  C   UNL     1       6.837   5.137  16.688  0.00  0.00    +0.000 A 
ATOM      8  C   UNL     1       6.654   4.389  17.854  0.00  0.00    +0.000 A 
ATOM      9  C   UNL     1       5.592   4.650  18.728  0.00  0.00    +0.000 A 
ATOM     10  C   UNL     1       4.730   5.691  18.374  0.00  0.00    +0.000 A 
ATOM     11  N   UNL     1       3.625   6.227  18.985  0.00  0.00    +0.000 N 
ATOM     12  H   UNL     1       3.251   5.921  19.872  0.00  0.00    +0.000 HD
ENDBRANCH   1   3
BRANCH   2  13
ATOM     13  C   UNL     1       0.506   9.896  18.234  0.00  0.00    +0.000 A 
ATOM     14  C   UNL     1      -0.849   9.965  17.945  0.00  0.00    +0.000 A 
ATOM     15  C   UNL     1      -1.377  11.125  18.576  0.00  0.00    +0.000 A 
ATOM     16  C   UNL     1      -0.324  11.737  19.218  0.00  0.00    +0.000 A 
ATOM     17  O   UNL     1       0.805  11.006  19.000  0.00  0.00    +0.000 OA
BRANCH  16  18
ATOM     18  S   UNL     1      -0.294  13.256  20.078  0.00  0.00    +0.000 S 
BRANCH  18  19
ATOM     19  C   UNL     1      -1.485  12.930  21.367  0.00  0.00    +0.000 A 
ATOM     20  C   UNL     1      -1.287  11.923  22.317  0.00  0.00    +0.000 A 
ATOM     21  C   UNL     1      -2.204  11.728  23.355  0.00  0.00    +0.000 A 
ATOM     22  C   UNL     1      -3.321  12.553  23.456  0.00  0.00    +0.000 A 
ATOM     23 CL   UNL     1      -4.449  12.321  24.734  0.00  0.00    +0.000 Cl
ATOM     24  C   UNL     1      -3.523  13.575  22.530  0.00  0.00    +0.000 A 
ATOM     25  C   UNL     1      -2.605  13.765  21.491  0.00  0.00    +0.000 A 
ENDBRANCH  18  19
ENDBRANCH  16  18
ENDBRANCH   2  13
BRANCH   1  27
ATOM     26  N   UNL     1       1.278   8.146  21.338  0.00  0.00    +0.000 NA
ATOM     27  C   UNL     1       1.648   8.120  20.133  0.00  0.00    +0.000 C 
ENDBRANCH   1  27
TORSDOF 5
ENDMDL
