MODEL 1
REMARK VINA RESULT:      -6.9      0.000      0.000
REMARK  Name = 
REMARK  2 active torsions:
REMARK  status: ('A' for Active; 'I' for Inactive)
REMARK    1  A    between atoms: N_4  and  C_5
REMARK    2  A    between atoms: C_5  and  C_6
REMARK                            x       y       z     vdW  Elec       q    Type
REMARK                         _______ _______ _______ _____ _____    ______ ____
ROOT
ATOM      1  C   UNL     1       6.122   5.438  17.772  0.00  0.00    +0.000 C 
ATOM      2  C   UNL     1       6.270   5.467  19.280  0.00  0.00    +0.000 C 
ATOM      3  O   UNL     1       4.962   5.274  19.811  0.00  0.00    +0.000 OA
ATOM      4  C   UNL     1       4.196   4.676  18.768  0.00  0.00    +0.000 C 
ATOM      5  C   UNL     1       4.200   3.148  18.925  0.00  0.00    +0.000 C 
ATOM      6  C   UNL     1       3.323   2.467  17.873  0.00  0.00    +0.000 C 
ATOM      7  C   UNL     1       1.896   3.006  17.893  0.00  0.00    +0.000 C 
ATOM      8  C   UNL     1       1.855   4.530  17.804  0.00  0.00    +0.000 C 
ATOM      9  C   UNL     1       2.755   5.188  18.850  0.00  0.00    +0.000 C 
ATOM     10  O   UNL     1       4.777   5.022  17.506  0.00  0.00    +0.000 OA
ENDROOT
BRANCH   1  11
ATOM     11  C   UNL     1       7.125   4.509  17.075  0.00  0.00    +0.000 C 
BRANCH  11  15
ATOM     12  N   UNL     1       6.247   3.527  13.651  0.00  0.00    +0.000 NA
ATOM     13  C   UNL     1       6.761   4.267  14.572  0.00  0.00    +0.000 C 
ATOM     14  N   UNL     1       7.458   5.374  14.308  0.00  0.00    +0.000 N 
ATOM     15  N   UNL     1       6.605   3.921  15.861  0.00  0.00    +0.000 N 
ATOM     16  H   UNL     1       6.475   3.905  12.735  0.00  0.00    +0.000 HD
ATOM     17  H   UNL     1       7.305   5.761  13.384  0.00  0.00    +0.000 HD
ATOM     18  H   UNL     1       7.373   6.098  15.012  0.00  0.00    +0.000 HD
ATOM     19  H   UNL     1       6.086   3.059  15.980  0.00  0.00    +0.000 HD
ENDBRANCH  11  15
ENDBRANCH   1  11
TORSDOF 2
ENDMDL
MODEL 2
REMARK VINA RESULT:      -6.8      1.618      1.862
REMARK  Name = 
REMARK  2 active torsions:
REMARK  status: ('A' for Active; 'I' for Inactive)
REMARK    1  A    between atoms: N_4  and  C_5
REMARK    2  A    between atoms: C_5  and  C_6
REMARK                            x       y       z     vdW  Elec       q    Type
REMARK                         _______ _______ _______ _____ _____    ______ ____
ROOT
ATOM      1  C   UNL     1       4.167   5.182  17.403  0.00  0.00    +0.000 C 
ATOM      2  C   UNL     1       5.121   5.626  18.492  0.00  0.00    +0.000 C 
ATOM      3  O   UNL     1       4.402   5.523  19.718  0.00  0.00    +0.000 OA
ATOM      4  C   UNL     1       3.321   4.630  19.468  0.00  0.00    +0.000 C 
ATOM      5  C   UNL     1       3.713   3.204  19.883  0.00  0.00    +0.000 C 
ATOM      6  C   UNL     1       2.553   2.221  19.708  0.00  0.00    +0.000 C 
ATOM      7  C   UNL     1       1.308   2.678  20.462  0.00  0.00    +0.000 C 
ATOM      8  C   UNL     1       0.924   4.117  20.122  0.00  0.00    +0.000 C 
ATOM      9  C   UNL     1       2.104   5.077  20.284  0.00  0.00    +0.000 C 
ATOM     10  O   UNL     1       3.016   4.646  18.069  0.00  0.00    +0.000 OA
ENDROOT
BRANCH   1  11
ATOM     11  C   UNL     1       4.768   4.146  16.444  0.00  0.00    +0.000 C 
BRANCH  11  15
ATOM     12  N   UNL     1       7.507   5.353  14.323  0.00  0.00    +0.000 NA
ATOM     13  C   UNL     1       6.964   4.845  15.375  0.00  0.00    +0.000 C 
ATOM     14  N   UNL     1       7.674   4.412  16.419  0.00  0.00    +0.000 N 
ATOM     15  N   UNL     1       5.627   4.733  15.440  0.00  0.00    +0.000 N 
ATOM     16  H   UNL     1       8.519   5.343  14.415  0.00  0.00    +0.000 HD
ATOM     17  H   UNL     1       8.618   4.775  16.470  0.00  0.00    +0.000 HD
ATOM     18  H   UNL     1       7.207   4.516  17.312  0.00  0.00    +0.000 HD
ATOM     19  H   UNL     1       5.161   5.061  14.602  0.00  0.00    +0.000 HD
ENDBRANCH  11  15
ENDBRANCH   1  11
TORSDOF 2
ENDMDL
MODEL 3
REMARK VINA RESULT:      -6.8      2.596      3.505
REMARK  Name = 
REMARK  2 active torsions:
REMARK  status: ('A' for Active; 'I' for Inactive)
REMARK    1  A    between atoms: N_4  and  C_5
REMARK    2  A    between atoms: C_5  and  C_6
REMARK                            x       y       z     vdW  Elec       q    Type
REMARK                         _______ _______ _______ _____ _____    ______ ____
ROOT
ATOM      1  C   UNL     1       4.731   4.382  17.756  0.00  0.00    +0.000 C 
ATOM      2  C   UNL     1       4.142   5.746  17.459  0.00  0.00    +0.000 C 
ATOM      3  O   UNL     1       2.746   5.642  17.722  0.00  0.00    +0.000 OA
ATOM      4  C   UNL     1       2.587   4.511  18.575  0.00  0.00    +0.000 C 
ATOM      5  C   UNL     1       2.563   4.962  20.043  0.00  0.00    +0.000 C 
ATOM      6  C   UNL     1       2.313   3.789  20.994  0.00  0.00    +0.000 C 
ATOM      7  C   UNL     1       1.033   3.038  20.640  0.00  0.00    +0.000 C 
ATOM      8  C   UNL     1       0.993   2.630  19.168  0.00  0.00    +0.000 C 
ATOM      9  C   UNL     1       1.266   3.813  18.239  0.00  0.00    +0.000 C 
ATOM     10  O   UNL     1       3.688   3.618  18.374  0.00  0.00    +0.000 OA
ENDROOT
BRANCH   1  11
ATOM     11  C   UNL     1       5.973   4.432  18.657  0.00  0.00    +0.000 C 
BRANCH  11  15
ATOM     12  N   UNL     1       8.366   7.209  18.786  0.00  0.00    +0.000 NA
ATOM     13  C   UNL     1       7.825   6.099  19.152  0.00  0.00    +0.000 C 
ATOM     14  N   UNL     1       8.308   5.350  20.147  0.00  0.00    +0.000 N 
ATOM     15  N   UNL     1       6.730   5.654  18.513  0.00  0.00    +0.000 N 
ATOM     16  H   UNL     1       9.196   7.392  19.345  0.00  0.00    +0.000 HD
ATOM     17  H   UNL     1       8.925   5.839  20.784  0.00  0.00    +0.000 HD
ATOM     18  H   UNL     1       7.603   4.837  20.662  0.00  0.00    +0.000 HD
ATOM     19  H   UNL     1       6.438   6.264  17.757  0.00  0.00    +0.000 HD
ENDBRANCH  11  15
ENDBRANCH   1  11
TORSDOF 2
ENDMDL
MODEL 4
REMARK VINA RESULT:      -6.8      1.874      2.369
REMARK  Name = 
REMARK  2 active torsions:
REMARK  status: ('A' for Active; 'I' for Inactive)
REMARK    1  A    between atoms: N_4  and  C_5
REMARK    2  A    between atoms: C_5  and  C_6
REMARK                            x       y       z     vdW  Elec       q    Type
REMARK                         _______ _______ _______ _____ _____    ______ ____
ROOT
ATOM      1  C   UNL     1       3.708   5.081  17.230  0.00  0.00    +0.000 C 
ATOM      2  C   UNL     1       4.412   6.057  18.149  0.00  0.00    +0.000 C 
ATOM      3  O   UNL     1       3.697   6.030  19.382  0.00  0.00    +0.000 OA
ATOM      4  C   UNL     1       2.969   4.805  19.389  0.00  0.00    +0.000 C 
ATOM      5  C   UNL     1       3.770   3.725  20.133  0.00  0.00    +0.000 C 
ATOM      6  C   UNL     1       2.991   2.412  20.237  0.00  0.00    +0.000 C 
ATOM      7  C   UNL     1       1.626   2.615  20.889  0.00  0.00    +0.000 C 
ATOM      8  C   UNL     1       0.826   3.728  20.214  0.00  0.00    +0.000 C 
ATOM      9  C   UNL     1       1.631   5.023  20.103  0.00  0.00    +0.000 C 
ATOM     10  O   UNL     1       2.751   4.384  18.039  0.00  0.00    +0.000 OA
ENDROOT
BRANCH   1  11
ATOM     11  C   UNL     1       4.657   4.092  16.540  0.00  0.00    +0.000 C 
BRANCH  11  15
ATOM     12  N   UNL     1       8.142   4.189  17.680  0.00  0.00    +0.000 NA
ATOM     13  C   UNL     1       7.163   4.357  16.860  0.00  0.00    +0.000 C 
ATOM     14  N   UNL     1       7.313   4.919  15.658  0.00  0.00    +0.000 N 
ATOM     15  N   UNL     1       5.929   3.962  17.214  0.00  0.00    +0.000 N 
ATOM     16  H   UNL     1       8.999   4.562  17.279  0.00  0.00    +0.000 HD
ATOM     17  H   UNL     1       8.264   4.927  15.309  0.00  0.00    +0.000 HD
ATOM     18  H   UNL     1       6.680   4.566  14.951  0.00  0.00    +0.000 HD
ATOM     19  H   UNL     1       5.892   3.567  18.147  0.00  0.00    +0.000 HD
ENDBRANCH  11  15
ENDBRANCH   1  11
TORSDOF 2
ENDMDL
MODEL 5
REMARK VINA RESULT:      -6.8      2.130      3.091
REMARK  Name = 
REMARK  2 active torsions:
REMARK  status: ('A' for Active; 'I' for Inactive)
REMARK    1  A    between atoms: N_4  and  C_5
REMARK    2  A    between atoms: C_5  and  C_6
REMARK                            x       y       z     vdW  Elec       q    Type
REMARK                         _______ _______ _______ _____ _____    ______ ____
ROOT
ATOM      1  C   UNL     1       4.265   5.080  18.141  0.00  0.00    +0.000 C 
ATOM      2  C   UNL     1       3.311   6.225  17.864  0.00  0.00    +0.000 C 
ATOM      3  O   UNL     1       2.008   5.739  18.174  0.00  0.00    +0.000 OA
ATOM      4  C   UNL     1       2.197   4.616  19.030  0.00  0.00    +0.000 C 
ATOM      5  C   UNL     1       2.096   5.055  20.499  0.00  0.00    +0.000 C 
ATOM      6  C   UNL     1       2.213   3.867  21.456  0.00  0.00    +0.000 C 
ATOM      7  C   UNL     1       1.181   2.787  21.145  0.00  0.00    +0.000 C 
ATOM      8  C   UNL     1       1.209   2.371  19.675  0.00  0.00    +0.000 C 
ATOM      9  C   UNL     1       1.112   3.575  18.738  0.00  0.00    +0.000 C 
ATOM     10  O   UNL     1       3.496   4.062  18.792  0.00  0.00    +0.000 OA
ENDROOT
BRANCH   1  11
ATOM     11  C   UNL     1       5.472   5.481  19.000  0.00  0.00    +0.000 C 
BRANCH  11  15
ATOM     12  N   UNL     1       8.591   3.970  17.796  0.00  0.00    +0.000 NA
ATOM     13  C   UNL     1       7.581   4.770  17.774  0.00  0.00    +0.000 C 
ATOM     14  N   UNL     1       7.415   5.702  16.833  0.00  0.00    +0.000 N 
ATOM     15  N   UNL     1       6.647   4.681  18.736  0.00  0.00    +0.000 N 
ATOM     16  H   UNL     1       9.217   4.180  17.023  0.00  0.00    +0.000 HD
ATOM     17  H   UNL     1       7.949   5.550  15.986  0.00  0.00    +0.000 HD
ATOM     18  H   UNL     1       6.446   5.900  16.609  0.00  0.00    +0.000 HD
ATOM     19  H   UNL     1       6.855   3.967  19.425  0.00  0.00    +0.000 HD
ENDBRANCH  11  15
ENDBRANCH   1  11
TORSDOF 2
ENDMDL
MODEL 6
REMARK VINA RESULT:      -6.7      1.799      2.303
REMARK  Name = 
REMARK  2 active torsions:
REMARK  status: ('A' for Active; 'I' for Inactive)
REMARK    1  A    between atoms: N_4  and  C_5
REMARK    2  A    between atoms: C_5  and  C_6
REMARK                            x       y       z     vdW  Elec       q    Type
REMARK                         _______ _______ _______ _____ _____    ______ ____
ROOT
ATOM      1  C   UNL     1       4.859   5.488  19.029  0.00  0.00    +0.000 C 
ATOM      2  C   UNL     1       5.725   4.246  18.982  0.00  0.00    +0.000 C 
ATOM      3  O   UNL     1       4.956   3.201  19.571  0.00  0.00    +0.000 OA
ATOM      4  C   UNL     1       3.597   3.627  19.506  0.00  0.00    +0.000 C 
ATOM      5  C   UNL     1       2.929   3.051  18.248  0.00  0.00    +0.000 C 
ATOM      6  C   UNL     1       1.444   3.415  18.177  0.00  0.00    +0.000 C 
ATOM      7  C   UNL     1       0.695   2.978  19.432  0.00  0.00    +0.000 C 
ATOM      8  C   UNL     1       1.369   3.479  20.709  0.00  0.00    +0.000 C 
ATOM      9  C   UNL     1       2.855   3.122  20.748  0.00  0.00    +0.000 C 
ATOM     10  O   UNL     1       3.558   5.057  19.449  0.00  0.00    +0.000 OA
ENDROOT
BRANCH   1  11
ATOM     11  C   UNL     1       4.776   6.230  17.688  0.00  0.00    +0.000 C 
BRANCH  11  15
ATOM     12  N   UNL     1       7.405   5.176  15.357  0.00  0.00    +0.000 NA
ATOM     13  C   UNL     1       6.854   5.908  16.263  0.00  0.00    +0.000 C 
ATOM     14  N   UNL     1       7.479   6.935  16.843  0.00  0.00    +0.000 N 
ATOM     15  N   UNL     1       5.599   5.637  16.659  0.00  0.00    +0.000 N 
ATOM     16  H   UNL     1       8.357   5.489  15.188  0.00  0.00    +0.000 HD
ATOM     17  H   UNL     1       8.276   7.291  16.329  0.00  0.00    +0.000 HD
ATOM     18  H   UNL     1       6.867   7.694  17.116  0.00  0.00    +0.000 HD
ATOM     19  H   UNL     1       5.201   4.831  16.190  0.00  0.00    +0.000 HD
ENDBRANCH  11  15
ENDBRANCH   1  11
TORSDOF 2
ENDMDL
MODEL 7
REMARK VINA RESULT:      -6.7      2.185      3.102
REMARK  Name = 
REMARK  2 active torsions:
REMARK  status: ('A' for Active; 'I' for Inactive)
REMARK    1  A    between atoms: N_4  and  C_5
REMARK    2  A    between atoms: C_5  and  C_6
REMARK                            x       y       z     vdW  Elec       q    Type
REMARK                         _______ _______ _______ _____ _____    ______ ____
ROOT
ATOM      1  C   UNL     1       4.430   4.391  18.049  0.00  0.00    +0.000 C 
ATOM      2  C   UNL     1       3.561   5.545  17.592  0.00  0.00    +0.000 C 
ATOM      3  O   UNL     1       2.228   5.212  17.970  0.00  0.00    +0.000 OA
ATOM      4  C   UNL     1       2.341   4.227  18.993  0.00  0.00    +0.000 C 
ATOM      5  C   UNL     1       2.284   4.898  20.374  0.00  0.00    +0.000 C 
ATOM      6  C   UNL     1       2.321   3.870  21.507  0.00  0.00    +0.000 C 
ATOM      7  C   UNL     1       1.210   2.833  21.366  0.00  0.00    +0.000 C 
ATOM      8  C   UNL     1       1.196   2.190  19.980  0.00  0.00    +0.000 C 
ATOM      9  C   UNL     1       1.180   3.236  18.864  0.00  0.00    +0.000 C 
ATOM     10  O   UNL     1       3.593   3.548  18.851  0.00  0.00    +0.000 OA
ENDROOT
BRANCH   1  11
ATOM     11  C   UNL     1       5.671   4.832  18.839  0.00  0.00    +0.000 C 
BRANCH  11  15
ATOM     12  N   UNL     1       7.687   7.104  16.784  0.00  0.00    +0.000 NA
ATOM     13  C   UNL     1       7.247   5.969  17.203  0.00  0.00    +0.000 C 
ATOM     14  N   UNL     1       7.616   4.804  16.664  0.00  0.00    +0.000 N 
ATOM     15  N   UNL     1       6.373   5.934  18.224  0.00  0.00    +0.000 N 
ATOM     16  H   UNL     1       8.313   6.964  15.995  0.00  0.00    +0.000 HD
ATOM     17  H   UNL     1       8.472   4.839  16.124  0.00  0.00    +0.000 HD
ATOM     18  H   UNL     1       7.643   4.032  17.319  0.00  0.00    +0.000 HD
ATOM     19  H   UNL     1       6.125   6.856  18.563  0.00  0.00    +0.000 HD
ENDBRANCH  11  15
ENDBRANCH   1  11
TORSDOF 2
ENDMDL
MODEL 8
REMARK VINA RESULT:      -6.7      1.155      1.413
REMARK  Name = 
REMARK  2 active torsions:
REMARK  status: ('A' for Active; 'I' for Inactive)
REMARK    1  A    between atoms: N_4  and  C_5
REMARK    2  A    between atoms: C_5  and  C_6
REMARK                            x       y       z     vdW  Elec       q    Type
REMARK                         _______ _______ _______ _____ _____    ______ ____
ROOT
ATOM      1  C   UNL     1       5.512   5.964  17.864  0.00  0.00    +0.000 C 
ATOM      2  C   UNL     1       6.353   4.754  18.219  0.00  0.00    +0.000 C 
ATOM      3  O   UNL     1       5.530   3.923  19.033  0.00  0.00    +0.000 OA
ATOM      4  C   UNL     1       4.187   4.321  18.774  0.00  0.00    +0.000 C 
ATOM      5  C   UNL     1       3.574   3.418  17.693  0.00  0.00    +0.000 C 
ATOM      6  C   UNL     1       2.103   3.756  17.437  0.00  0.00    +0.000 C 
ATOM      7  C   UNL     1       1.279   3.696  18.720  0.00  0.00    +0.000 C 
ATOM      8  C   UNL     1       1.895   4.532  19.840  0.00  0.00    +0.000 C 
ATOM      9  C   UNL     1       3.369   4.192  20.063  0.00  0.00    +0.000 C 
ATOM     10  O   UNL     1       4.182   5.677  18.314  0.00  0.00    +0.000 OA
ENDROOT
BRANCH   1  11
ATOM     11  C   UNL     1       5.517   6.298  16.366  0.00  0.00    +0.000 C 
BRANCH  11  15
ATOM     12  N   UNL     1       6.311   3.534  14.089  0.00  0.00    +0.000 NA
ATOM     13  C   UNL     1       6.490   4.663  14.682  0.00  0.00    +0.000 C 
ATOM     14  N   UNL     1       7.584   5.408  14.508  0.00  0.00    +0.000 N 
ATOM     15  N   UNL     1       5.549   5.125  15.523  0.00  0.00    +0.000 N 
ATOM     16  H   UNL     1       7.119   3.313  13.513  0.00  0.00    +0.000 HD
ATOM     17  H   UNL     1       8.114   5.195  13.672  0.00  0.00    +0.000 HD
ATOM     18  H   UNL     1       7.424   6.406  14.579  0.00  0.00    +0.000 HD
ATOM     19  H   UNL     1       4.761   4.494  15.620  0.00  0.00    +0.000 HD
ENDBRANCH  11  15
ENDBRANCH   1  11
TORSDOF 2
ENDMDL
MODEL 9
REMARK VINA RESULT:      -6.6      0.752      1.092
REMARK  Name = 
REMARK  2 active torsions:
REMARK  status: ('A' for Active; 'I' for Inactive)
REMARK    1  A    between atoms: N_4  and  C_5
REMARK    2  A    between atoms: C_5  and  C_6
REMARK                            x       y       z     vdW  Elec       q    Type
REMARK                         _______ _______ _______ _____ _____    ______ ____
ROOT
ATOM      1  C   UNL     1       6.414   5.536  17.541  0.00  0.00    +0.000 C 
ATOM      2  C   UNL     1       6.700   5.326  19.014  0.00  0.00    +0.000 C 
ATOM      3  O   UNL     1       5.433   5.315  19.667  0.00  0.00    +0.000 OA
ATOM      4  C   UNL     1       4.470   5.027  18.656  0.00  0.00    +0.000 C 
ATOM      5  C   UNL     1       4.174   3.519  18.630  0.00  0.00    +0.000 C 
ATOM      6  C   UNL     1       3.085   3.172  17.614  0.00  0.00    +0.000 C 
ATOM      7  C   UNL     1       1.806   3.967  17.862  0.00  0.00    +0.000 C 
ATOM      8  C   UNL     1       2.072   5.468  17.959  0.00  0.00    +0.000 C 
ATOM      9  C   UNL     1       3.178   5.790  18.964  0.00  0.00    +0.000 C 
ATOM     10  O   UNL     1       4.994   5.427  17.385  0.00  0.00    +0.000 OA
ENDROOT
BRANCH   1  11
ATOM     11  C   UNL     1       7.138   4.537  16.626  0.00  0.00    +0.000 C 
BRANCH  11  15
ATOM     12  N   UNL     1       7.625   5.505  13.122  0.00  0.00    +0.000 NA
ATOM     13  C   UNL     1       7.196   4.783  14.099  0.00  0.00    +0.000 C 
ATOM     14  N   UNL     1       6.417   3.713  13.921  0.00  0.00    +0.000 N 
ATOM     15  N   UNL     1       7.530   5.109  15.359  0.00  0.00    +0.000 N 
ATOM     16  H   UNL     1       7.266   5.147  12.241  0.00  0.00    +0.000 HD
ATOM     17  H   UNL     1       6.433   3.328  12.985  0.00  0.00    +0.000 HD
ATOM     18  H   UNL     1       6.553   2.981  14.608  0.00  0.00    +0.000 HD
ATOM     19  H   UNL     1       8.101   5.944  15.413  0.00  0.00    +0.000 HD
ENDBRANCH  11  15
ENDBRANCH   1  11
TORSDOF 2
ENDMDL
