MODEL 1
REMARK VINA RESULT:      -7.9      0.000      0.000
REMARK  Name = 
REMARK  2 active torsions:
REMARK  status: ('A' for Active; 'I' for Inactive)
REMARK    1  A    between atoms: C_2  and  C_7
REMARK    2  A    between atoms: N_5  and  O_6
REMARK                            x       y       z     vdW  Elec       q    Type
REMARK                         _______ _______ _______ _____ _____    ______ ____
ROOT
ATOM      1  C   UNL     1       5.659   5.484  15.904  0.00  0.00    +0.000 A 
ATOM      2  C   UNL     1       5.586   6.844  16.295  0.00  0.00    +0.000 A 
ATOM      3  N   UNL     1       4.762   7.047  17.329  0.00  0.00    +0.000 NA
ATOM      4  N   UNL     1       4.301   5.817  17.607  0.00  0.00    +0.000 N 
ATOM      5  C   UNL     1       4.835   4.834  16.804  0.00  0.00    +0.000 A 
ATOM      6  N   UNL     1       4.507   3.522  16.962  0.00  0.00    +0.000 NA
ATOM      7  N   UNL     1       3.667   3.156  17.855  0.00  0.00    +0.000 N 
ATOM      8  O   UNL     1       3.369   1.929  18.010  0.00  0.00    +0.000 OA
ATOM      9  C   UNL     1       3.021   4.155  18.722  0.00  0.00    +0.000 A 
ATOM     10  C   UNL     1       2.071   3.764  19.668  0.00  0.00    +0.000 A 
ATOM     11  C   UNL     1       1.457   4.732  20.465  0.00  0.00    +0.000 A 
ATOM     12  C   UNL     1       1.796   6.083  20.320  0.00  0.00    +0.000 A 
ATOM     13 CL   UNL     1       1.012   7.256  21.305  0.00  0.00    +0.000 Cl
ATOM     14  C   UNL     1       2.750   6.486  19.384  0.00  0.00    +0.000 A 
ATOM     15  C   UNL     1       3.354   5.511  18.591  0.00  0.00    +0.000 A 
ENDROOT
BRANCH   1  17
ATOM     16  O   UNL     1       7.593   5.199  14.625  0.00  0.00    +0.000 OA
ATOM     17  C   UNL     1       6.414   4.913  14.803  0.00  0.00    +0.000 C 
ATOM     18  N   UNL     1       5.702   4.051  13.996  0.00  0.00    +0.000 N 
ATOM     19  C   UNL     1       6.204   3.462  12.880  0.00  0.00    +0.000 C 
ATOM     20  N   UNL     1       5.440   2.684  12.196  0.00  0.00    +0.000 NA
ATOM     21  H   UNL     1       4.735   3.836  14.198  0.00  0.00    +0.000 HD
BRANCH  20  22
ATOM     22  O   UNL     1       6.161   2.196  11.101  0.00  0.00    +0.000 OA
ATOM     23  H   UNL     1       6.686   1.474  11.495  0.00  0.00    +0.000 HD
ENDBRANCH  20  22
ENDBRANCH   1  17
TORSDOF 2
ENDMDL
MODEL 2
REMARK VINA RESULT:      -7.9      3.077      4.710
REMARK  Name = 
REMARK  2 active torsions:
REMARK  status: ('A' for Active; 'I' for Inactive)
REMARK    1  A    between atoms: C_2  and  C_7
REMARK    2  A    between atoms: N_5  and  O_6
REMARK                            x       y       z     vdW  Elec       q    Type
REMARK                         _______ _______ _______ _____ _____    ______ ____
ROOT
ATOM      1  C   UNL     1       3.265   5.434  18.543  0.00  0.00    +0.000 A 
ATOM      2  C   UNL     1       2.906   4.826  19.772  0.00  0.00    +0.000 A 
ATOM      3  N   UNL     1       2.218   5.644  20.577  0.00  0.00    +0.000 NA
ATOM      4  N   UNL     1       2.132   6.780  19.869  0.00  0.00    +0.000 N 
ATOM      5  C   UNL     1       2.712   6.699  18.623  0.00  0.00    +0.000 A 
ATOM      6  N   UNL     1       2.693   7.746  17.753  0.00  0.00    +0.000 NA
ATOM      7  N   UNL     1       2.150   8.859  18.073  0.00  0.00    +0.000 N 
ATOM      8  O   UNL     1       2.123   9.833  17.256  0.00  0.00    +0.000 OA
ATOM      9  C   UNL     1       1.548   9.036  19.405  0.00  0.00    +0.000 A 
ATOM     10  C   UNL     1       0.994  10.264  19.774  0.00  0.00    +0.000 A 
ATOM     11  C   UNL     1       0.446  10.414  21.049  0.00  0.00    +0.000 A 
ATOM     12  C   UNL     1       0.449   9.340  21.948  0.00  0.00    +0.000 A 
ATOM     13 CL   UNL     1      -0.219   9.558  23.519  0.00  0.00    +0.000 Cl
ATOM     14  C   UNL     1       0.992   8.105  21.589  0.00  0.00    +0.000 A 
ATOM     15  C   UNL     1       1.540   7.968  20.313  0.00  0.00    +0.000 A 
ENDROOT
BRANCH   1  17
ATOM     16  O   UNL     1       3.741   3.782  16.961  0.00  0.00    +0.000 OA
ATOM     17  C   UNL     1       4.044   4.860  17.460  0.00  0.00    +0.000 C 
ATOM     18  N   UNL     1       5.127   5.613  17.063  0.00  0.00    +0.000 N 
ATOM     19  C   UNL     1       6.018   5.227  16.112  0.00  0.00    +0.000 C 
ATOM     20  N   UNL     1       7.000   6.009  15.832  0.00  0.00    +0.000 NA
ATOM     21  H   UNL     1       5.322   6.505  17.497  0.00  0.00    +0.000 HD
BRANCH  20  22
ATOM     22  O   UNL     1       7.780   5.411  14.836  0.00  0.00    +0.000 OA
ATOM     23  H   UNL     1       7.586   4.463  14.954  0.00  0.00    +0.000 HD
ENDBRANCH  20  22
ENDBRANCH   1  17
TORSDOF 2
ENDMDL
MODEL 3
REMARK VINA RESULT:      -7.7      3.516      5.386
REMARK  Name = 
REMARK  2 active torsions:
REMARK  status: ('A' for Active; 'I' for Inactive)
REMARK    1  A    between atoms: C_2  and  C_7
REMARK    2  A    between atoms: N_5  and  O_6
REMARK                            x       y       z     vdW  Elec       q    Type
REMARK                         _______ _______ _______ _____ _____    ______ ____
ROOT
ATOM      1  C   UNL     1       2.921   5.632  19.231  0.00  0.00    +0.000 A 
ATOM      2  C   UNL     1       2.362   5.158  20.444  0.00  0.00    +0.000 A 
ATOM      3  N   UNL     1       1.607   6.072  21.064  0.00  0.00    +0.000 NA
ATOM      4  N   UNL     1       1.677   7.138  20.252  0.00  0.00    +0.000 N 
ATOM      5  C   UNL     1       2.424   6.918  19.116  0.00  0.00    +0.000 A 
ATOM      6  N   UNL     1       2.580   7.877  18.162  0.00  0.00    +0.000 NA
ATOM      7  N   UNL     1       2.052   9.034  18.300  0.00  0.00    +0.000 N 
ATOM      8  O   UNL     1       2.188   9.926  17.403  0.00  0.00    +0.000 OA
ATOM      9  C   UNL     1       1.276   9.358  19.508  0.00  0.00    +0.000 A 
ATOM     10  C   UNL     1       0.735  10.634  19.681  0.00  0.00    +0.000 A 
ATOM     11  C   UNL     1       0.020  10.924  20.844  0.00  0.00    +0.000 A 
ATOM     12  C   UNL     1      -0.157   9.942  21.826  0.00  0.00    +0.000 A 
ATOM     13 CL   UNL     1      -1.030  10.332  23.257  0.00  0.00    +0.000 Cl
ATOM     14  C   UNL     1       0.371   8.660  21.662  0.00  0.00    +0.000 A 
ATOM     15  C   UNL     1       1.087   8.382  20.497  0.00  0.00    +0.000 A 
ENDROOT
BRANCH   1  17
ATOM     16  O   UNL     1       3.384   4.218  17.430  0.00  0.00    +0.000 OA
ATOM     17  C   UNL     1       3.817   4.930  18.329  0.00  0.00    +0.000 C 
ATOM     18  N   UNL     1       5.158   5.128  18.574  0.00  0.00    +0.000 N 
ATOM     19  C   UNL     1       6.157   4.515  17.888  0.00  0.00    +0.000 C 
ATOM     20  N   UNL     1       7.376   4.767  18.215  0.00  0.00    +0.000 NA
ATOM     21  H   UNL     1       5.461   5.740  19.320  0.00  0.00    +0.000 HD
BRANCH  20  22
ATOM     22  O   UNL     1       8.226   4.032  17.382  0.00  0.00    +0.000 OA
ATOM     23  H   UNL     1       7.789   4.104  16.513  0.00  0.00    +0.000 HD
ENDBRANCH  20  22
ENDBRANCH   1  17
TORSDOF 2
ENDMDL
MODEL 4
REMARK VINA RESULT:      -7.2      3.751      7.202
REMARK  Name = 
REMARK  2 active torsions:
REMARK  status: ('A' for Active; 'I' for Inactive)
REMARK    1  A    between atoms: C_2  and  C_7
REMARK    2  A    between atoms: N_5  and  O_6
REMARK                            x       y       z     vdW  Elec       q    Type
REMARK                         _______ _______ _______ _____ _____    ______ ____
ROOT
ATOM      1  C   UNL     1       2.639   4.793  18.924  0.00  0.00    +0.000 A 
ATOM      2  C   UNL     1       1.988   3.974  17.968  0.00  0.00    +0.000 A 
ATOM      3  N   UNL     1       2.746   3.720  16.895  0.00  0.00    +0.000 NA
ATOM      4  N   UNL     1       3.887   4.375  17.157  0.00  0.00    +0.000 N 
ATOM      5  C   UNL     1       3.892   5.008  18.380  0.00  0.00    +0.000 A 
ATOM      6  N   UNL     1       4.978   5.696  18.828  0.00  0.00    +0.000 NA
ATOM      7  N   UNL     1       6.034   5.799  18.113  0.00  0.00    +0.000 N 
ATOM      8  O   UNL     1       7.052   6.432  18.536  0.00  0.00    +0.000 OA
ATOM      9  C   UNL     1       6.087   5.186  16.775  0.00  0.00    +0.000 A 
ATOM     10  C   UNL     1       7.222   5.334  15.974  0.00  0.00    +0.000 A 
ATOM     11  C   UNL     1       7.242   4.760  14.701  0.00  0.00    +0.000 A 
ATOM     12  C   UNL     1       6.136   4.040  14.234  0.00  0.00    +0.000 A 
ATOM     13 CL   UNL     1       6.181   3.358  12.655  0.00  0.00    +0.000 Cl
ATOM     14  C   UNL     1       4.999   3.878  15.029  0.00  0.00    +0.000 A 
ATOM     15  C   UNL     1       4.988   4.458  16.297  0.00  0.00    +0.000 A 
ENDROOT
BRANCH   1  17
ATOM     16  O   UNL     1       1.771   4.537  21.078  0.00  0.00    +0.000 OA
ATOM     17  C   UNL     1       2.104   5.298  20.176  0.00  0.00    +0.000 C 
ATOM     18  N   UNL     1       2.001   6.670  20.251  0.00  0.00    +0.000 N 
ATOM     19  C   UNL     1       1.468   7.338  21.308  0.00  0.00    +0.000 C 
ATOM     20  N   UNL     1       1.412   8.623  21.261  0.00  0.00    +0.000 NA
ATOM     21  H   UNL     1       2.306   7.253  19.484  0.00  0.00    +0.000 HD
BRANCH  20  22
ATOM     22  O   UNL     1       0.832   9.090  22.445  0.00  0.00    +0.000 OA
ATOM     23  H   UNL     1      -0.079   8.747  22.386  0.00  0.00    +0.000 HD
ENDBRANCH  20  22
ENDBRANCH   1  17
TORSDOF 2
ENDMDL
MODEL 5
REMARK VINA RESULT:      -7.2      2.926      4.586
REMARK  Name = 
REMARK  2 active torsions:
REMARK  status: ('A' for Active; 'I' for Inactive)
REMARK    1  A    between atoms: C_2  and  C_7
REMARK    2  A    between atoms: N_5  and  O_6
REMARK                            x       y       z     vdW  Elec       q    Type
REMARK                         _______ _______ _______ _____ _____    ______ ____
ROOT
ATOM      1  C   UNL     1       3.078   4.799  19.184  0.00  0.00    +0.000 A 
ATOM      2  C   UNL     1       2.597   4.406  20.458  0.00  0.00    +0.000 A 
ATOM      3  N   UNL     1       1.925   5.378  21.085  0.00  0.00    +0.000 NA
ATOM      4  N   UNL     1       1.971   6.400  20.217  0.00  0.00    +0.000 N 
ATOM      5  C   UNL     1       2.621   6.096  19.042  0.00  0.00    +0.000 A 
ATOM      6  N   UNL     1       2.737   7.001  18.031  0.00  0.00    +0.000 NA
ATOM      7  N   UNL     1       2.263   8.183  18.149  0.00  0.00    +0.000 N 
ATOM      8  O   UNL     1       2.362   9.025  17.200  0.00  0.00    +0.000 OA
ATOM      9  C   UNL     1       1.593   8.596  19.393  0.00  0.00    +0.000 A 
ATOM     10  C   UNL     1       1.113   9.899  19.541  0.00  0.00    +0.000 A 
ATOM     11  C   UNL     1       0.499  10.273  20.738  0.00  0.00    +0.000 A 
ATOM     12  C   UNL     1       0.363   9.347  21.779  0.00  0.00    +0.000 A 
ATOM     13 CL   UNL     1      -0.383   9.839  23.250  0.00  0.00    +0.000 Cl
ATOM     14  C   UNL     1       0.831   8.038  21.641  0.00  0.00    +0.000 A 
ATOM     15  C   UNL     1       1.445   7.677  20.442  0.00  0.00    +0.000 A 
ENDROOT
BRANCH   1  17
ATOM     16  O   UNL     1       4.159   2.850  18.485  0.00  0.00    +0.000 OA
ATOM     17  C   UNL     1       3.877   4.020  18.255  0.00  0.00    +0.000 C 
ATOM     18  N   UNL     1       4.283   4.701  17.128  0.00  0.00    +0.000 N 
ATOM     19  C   UNL     1       5.088   4.175  16.168  0.00  0.00    +0.000 C 
ATOM     20  N   UNL     1       5.413   4.911  15.164  0.00  0.00    +0.000 NA
ATOM     21  H   UNL     1       4.008   5.662  16.979  0.00  0.00    +0.000 HD
BRANCH  20  22
ATOM     22  O   UNL     1       6.239   4.169  14.312  0.00  0.00    +0.000 OA
ATOM     23  H   UNL     1       5.697   4.090  13.505  0.00  0.00    +0.000 HD
ENDBRANCH  20  22
ENDBRANCH   1  17
TORSDOF 2
ENDMDL
MODEL 6
REMARK VINA RESULT:      -7.1      3.485      5.724
REMARK  Name = 
REMARK  2 active torsions:
REMARK  status: ('A' for Active; 'I' for Inactive)
REMARK    1  A    between atoms: C_2  and  C_7
REMARK    2  A    between atoms: N_5  and  O_6
REMARK                            x       y       z     vdW  Elec       q    Type
REMARK                         _______ _______ _______ _____ _____    ______ ____
ROOT
ATOM      1  C   UNL     1       3.335   3.373  20.109  0.00  0.00    +0.000 A 
ATOM      2  C   UNL     1       2.407   3.732  21.118  0.00  0.00    +0.000 A 
ATOM      3  N   UNL     1       1.921   4.969  20.964  0.00  0.00    +0.000 NA
ATOM      4  N   UNL     1       2.536   5.410  19.855  0.00  0.00    +0.000 N 
ATOM      5  C   UNL     1       3.370   4.478  19.279  0.00  0.00    +0.000 A 
ATOM      6  N   UNL     1       4.052   4.739  18.130  0.00  0.00    +0.000 NA
ATOM      7  N   UNL     1       3.959   5.877  17.553  0.00  0.00    +0.000 N 
ATOM      8  O   UNL     1       4.588   6.116  16.473  0.00  0.00    +0.000 OA
ATOM      9  C   UNL     1       3.121   6.938  18.133  0.00  0.00    +0.000 A 
ATOM     10  C   UNL     1       3.053   8.196  17.529  0.00  0.00    +0.000 A 
ATOM     11  C   UNL     1       2.267   9.194  18.109  0.00  0.00    +0.000 A 
ATOM     12  C   UNL     1       1.551   8.934  19.284  0.00  0.00    +0.000 A 
ATOM     13 CL   UNL     1       0.603  10.186  19.986  0.00  0.00    +0.000 Cl
ATOM     14  C   UNL     1       1.604   7.678  19.893  0.00  0.00    +0.000 A 
ATOM     15  C   UNL     1       2.395   6.690  19.307  0.00  0.00    +0.000 A 
ENDROOT
BRANCH   1  17
ATOM     16  O   UNL     1       4.008   1.442  18.979  0.00  0.00    +0.000 OA
ATOM     17  C   UNL     1       4.084   2.134  19.988  0.00  0.00    +0.000 C 
ATOM     18  N   UNL     1       4.859   1.816  21.082  0.00  0.00    +0.000 N 
ATOM     19  C   UNL     1       5.584   0.673  21.197  0.00  0.00    +0.000 C 
ATOM     20  N   UNL     1       6.261   0.476  22.273  0.00  0.00    +0.000 NA
ATOM     21  H   UNL     1       4.898   2.432  21.883  0.00  0.00    +0.000 HD
BRANCH  20  22
ATOM     22  O   UNL     1       6.922  -0.753  22.170  0.00  0.00    +0.000 OA
ATOM     23  H   UNL     1       6.771  -0.998  21.238  0.00  0.00    +0.000 HD
ENDBRANCH  20  22
ENDBRANCH   1  17
TORSDOF 2
ENDMDL
MODEL 7
REMARK VINA RESULT:      -7.1      7.942     11.041
REMARK  Name = 
REMARK  2 active torsions:
REMARK  status: ('A' for Active; 'I' for Inactive)
REMARK    1  A    between atoms: C_2  and  C_7
REMARK    2  A    between atoms: N_5  and  O_6
REMARK                            x       y       z     vdW  Elec       q    Type
REMARK                         _______ _______ _______ _____ _____    ______ ____
ROOT
ATOM      1  C   UNL     1      -0.764  11.007  22.683  0.00  0.00    +0.000 A 
ATOM      2  C   UNL     1      -0.402   9.785  23.304  0.00  0.00    +0.000 A 
ATOM      3  N   UNL     1       0.334   8.995  22.513  0.00  0.00    +0.000 NA
ATOM      4  N   UNL     1       0.448   9.706  21.381  0.00  0.00    +0.000 N 
ATOM      5  C   UNL     1      -0.161  10.940  21.440  0.00  0.00    +0.000 A 
ATOM      6  N   UNL     1      -0.121  11.811  20.395  0.00  0.00    +0.000 NA
ATOM      7  N   UNL     1       0.470  11.503  19.303  0.00  0.00    +0.000 N 
ATOM      8  O   UNL     1       0.517  12.322  18.331  0.00  0.00    +0.000 OA
ATOM      9  C   UNL     1       1.108  10.185  19.149  0.00  0.00    +0.000 A 
ATOM     10  C   UNL     1       1.716   9.829  17.943  0.00  0.00    +0.000 A 
ATOM     11  C   UNL     1       2.297   8.566  17.814  0.00  0.00    +0.000 A 
ATOM     12  C   UNL     1       2.272   7.666  18.887  0.00  0.00    +0.000 A 
ATOM     13 CL   UNL     1       2.981   6.110  18.695  0.00  0.00    +0.000 Cl
ATOM     14  C   UNL     1       1.675   8.013  20.100  0.00  0.00    +0.000 A 
ATOM     15  C   UNL     1       1.095   9.276  20.217  0.00  0.00    +0.000 A 
ENDROOT
BRANCH   1  17
ATOM     16  O   UNL     1      -1.117  13.179  23.467  0.00  0.00    +0.000 OA
ATOM     17  C   UNL     1      -1.587  12.072  23.227  0.00  0.00    +0.000 C 
ATOM     18  N   UNL     1      -2.904  11.732  23.447  0.00  0.00    +0.000 N 
ATOM     19  C   UNL     1      -3.822  12.561  24.008  0.00  0.00    +0.000 C 
ATOM     20  N   UNL     1      -5.023  12.129  24.178  0.00  0.00    +0.000 NA
ATOM     21  H   UNL     1      -3.244  10.808  23.216  0.00  0.00    +0.000 HD
BRANCH  20  22
ATOM     22  O   UNL     1      -5.786  13.144  24.765  0.00  0.00    +0.000 OA
ATOM     23  H   UNL     1      -5.166  13.532  25.409  0.00  0.00    +0.000 HD
ENDBRANCH  20  22
ENDBRANCH   1  17
TORSDOF 2
ENDMDL
MODEL 8
REMARK VINA RESULT:      -6.9      4.874      7.100
REMARK  Name = 
REMARK  2 active torsions:
REMARK  status: ('A' for Active; 'I' for Inactive)
REMARK    1  A    between atoms: C_2  and  C_7
REMARK    2  A    between atoms: N_5  and  O_6
REMARK                            x       y       z     vdW  Elec       q    Type
REMARK                         _______ _______ _______ _____ _____    ______ ____
ROOT
ATOM      1  C   UNL     1       2.418   7.342  18.806  0.00  0.00    +0.000 A 
ATOM      2  C   UNL     1       2.565   8.079  17.604  0.00  0.00    +0.000 A 
ATOM      3  N   UNL     1       2.075   9.321  17.690  0.00  0.00    +0.000 NA
ATOM      4  N   UNL     1       1.610   9.387  18.947  0.00  0.00    +0.000 N 
ATOM      5  C   UNL     1       1.823   8.238  19.675  0.00  0.00    +0.000 A 
ATOM      6  N   UNL     1       1.447   8.134  20.979  0.00  0.00    +0.000 NA
ATOM      7  N   UNL     1       0.857   9.101  21.573  0.00  0.00    +0.000 N 
ATOM      8  O   UNL     1       0.515   9.009  22.795  0.00  0.00    +0.000 OA
ATOM      9  C   UNL     1       0.556  10.346  20.847  0.00  0.00    +0.000 A 
ATOM     10  C   UNL     1      -0.128  11.387  21.481  0.00  0.00    +0.000 A 
ATOM     11  C   UNL     1      -0.419  12.551  20.766  0.00  0.00    +0.000 A 
ATOM     12  C   UNL     1      -0.026  12.674  19.428  0.00  0.00    +0.000 A 
ATOM     13 CL   UNL     1      -0.413  14.112  18.566  0.00  0.00    +0.000 Cl
ATOM     14  C   UNL     1       0.665  11.644  18.786  0.00  0.00    +0.000 A 
ATOM     15  C   UNL     1       0.948  10.485  19.508  0.00  0.00    +0.000 A 
ENDROOT
BRANCH   1  17
ATOM     16  O   UNL     1       3.369   5.296  18.202  0.00  0.00    +0.000 OA
ATOM     17  C   UNL     1       2.794   5.962  19.055  0.00  0.00    +0.000 C 
ATOM     18  N   UNL     1       2.448   5.483  20.300  0.00  0.00    +0.000 N 
ATOM     19  C   UNL     1       2.652   4.203  20.709  0.00  0.00    +0.000 C 
ATOM     20  N   UNL     1       2.274   3.865  21.892  0.00  0.00    +0.000 NA
ATOM     21  H   UNL     1       1.988   6.081  20.974  0.00  0.00    +0.000 HD
BRANCH  20  22
ATOM     22  O   UNL     1       2.582   2.515  22.092  0.00  0.00    +0.000 OA
ATOM     23  H   UNL     1       1.926   2.061  21.531  0.00  0.00    +0.000 HD
ENDBRANCH  20  22
ENDBRANCH   1  17
TORSDOF 2
ENDMDL
MODEL 9
REMARK VINA RESULT:      -6.9      4.913      7.608
REMARK  Name = 
REMARK  2 active torsions:
REMARK  status: ('A' for Active; 'I' for Inactive)
REMARK    1  A    between atoms: C_2  and  C_7
REMARK    2  A    between atoms: N_5  and  O_6
REMARK                            x       y       z     vdW  Elec       q    Type
REMARK                         _______ _______ _______ _____ _____    ______ ____
ROOT
ATOM      1  C   UNL     1       1.564   8.914  18.774  0.00  0.00    +0.000 A 
ATOM      2  C   UNL     1       2.263   9.266  17.593  0.00  0.00    +0.000 A 
ATOM      3  N   UNL     1       3.166   8.349  17.227  0.00  0.00    +0.000 NA
ATOM      4  N   UNL     1       3.050   7.403  18.172  0.00  0.00    +0.000 N 
ATOM      5  C   UNL     1       2.077   7.673  19.107  0.00  0.00    +0.000 A 
ATOM      6  N   UNL     1       1.797   6.810  20.122  0.00  0.00    +0.000 NA
ATOM      7  N   UNL     1       2.451   5.719  20.257  0.00  0.00    +0.000 N 
ATOM      8  O   UNL     1       2.182   4.907  21.199  0.00  0.00    +0.000 OA
ATOM      9  C   UNL     1       3.536   5.382  19.322  0.00  0.00    +0.000 A 
ATOM     10  C   UNL     1       4.281   4.212  19.493  0.00  0.00    +0.000 A 
ATOM     11  C   UNL     1       5.318   3.924  18.604  0.00  0.00    +0.000 A 
ATOM     12  C   UNL     1       5.607   4.798  17.549  0.00  0.00    +0.000 A 
ATOM     13 CL   UNL     1       6.901   4.426  16.479  0.00  0.00    +0.000 Cl
ATOM     14  C   UNL     1       4.865   5.966  17.362  0.00  0.00    +0.000 A 
ATOM     15  C   UNL     1       3.833   6.246  18.258  0.00  0.00    +0.000 A 
ENDROOT
BRANCH   1  17
ATOM     16  O   UNL     1      -0.299  10.320  18.864  0.00  0.00    +0.000 OA
ATOM     17  C   UNL     1       0.554   9.687  19.475  0.00  0.00    +0.000 C 
ATOM     18  N   UNL     1       0.645   9.649  20.850  0.00  0.00    +0.000 N 
ATOM     19  C   UNL     1      -0.161  10.351  21.688  0.00  0.00    +0.000 C 
ATOM     20  N   UNL     1       0.027  10.247  22.957  0.00  0.00    +0.000 NA
ATOM     21  H   UNL     1       1.360   9.096  21.304  0.00  0.00    +0.000 HD
BRANCH  20  22
ATOM     22  O   UNL     1      -0.910  11.051  23.616  0.00  0.00    +0.000 OA
ATOM     23  H   UNL     1      -1.747  10.803  23.181  0.00  0.00    +0.000 HD
ENDBRANCH  20  22
ENDBRANCH   1  17
TORSDOF 2
ENDMDL
