MODEL 1
REMARK VINA RESULT:      -8.0      0.000      0.000
REMARK  Name = 
REMARK  2 active torsions:
REMARK  status: ('A' for Active; 'I' for Inactive)
REMARK    1  A    between atoms: C_4  and  C_5
REMARK    2  A    between atoms: C_15  and  N_16
REMARK                            x       y       z     vdW  Elec       q    Type
REMARK                         _______ _______ _______ _____ _____    ______ ____
ROOT
ATOM      1  N   UNL     1       6.553   3.694  13.872  0.00  0.00    +0.000 N 
ATOM      2  C   UNL     1       6.332   4.288  15.113  0.00  0.00    +0.000 A 
ATOM      3  C   UNL     1       5.235   3.915  15.871  0.00  0.00    +0.000 A 
ATOM      4  C   UNL     1       4.987   4.588  17.064  0.00  0.00    +0.000 A 
ATOM      5  C   UNL     1       5.814   5.648  17.423  0.00  0.00    +0.000 A 
ATOM      6  C   UNL     1       6.888   5.961  16.605  0.00  0.00    +0.000 A 
ATOM      7  N   UNL     1       7.159   5.289  15.469  0.00  0.00    +0.000 NA
ATOM      8  H   UNL     1       6.464   2.686  13.879  0.00  0.00    +0.000 HD
ATOM      9  H   UNL     1       7.448   4.020  13.516  0.00  0.00    +0.000 HD
ENDROOT
BRANCH   4  10
ATOM     10  C   UNL     1       3.842   4.207  17.906  0.00  0.00    +0.000 A 
ATOM     11  C   UNL     1       2.449   4.347  17.473  0.00  0.00    +0.000 A 
ATOM     12  C   UNL     1       1.421   3.984  18.260  0.00  0.00    +0.000 A 
ATOM     13  C   UNL     1       1.670   3.444  19.551  0.00  0.00    +0.000 A 
ATOM     14  N   UNL     1       0.858   3.021  20.496  0.00  0.00    +0.000 NA
ATOM     15  C   UNL     1       1.674   2.608  21.517  0.00  0.00    +0.000 A 
ATOM     16  C   UNL     1       3.000   2.779  21.194  0.00  0.00    +0.000 A 
ATOM     17  N   UNL     1       3.004   3.322  19.935  0.00  0.00    +0.000 N 
ATOM     18  C   UNL     1       4.076   3.694  19.126  0.00  0.00    +0.000 A 
ENDBRANCH   4  10
BRANCH   6  19
ATOM     19  N   UNL     1       7.677   7.073  16.886  0.00  0.00    +0.000 N 
ATOM     20  H   UNL     1       7.150   7.882  17.181  0.00  0.00    +0.000 HD
ATOM     21  H   UNL     1       8.394   6.795  17.549  0.00  0.00    +0.000 HD
ENDBRANCH   6  19
TORSDOF 2
ENDMDL
MODEL 2
REMARK VINA RESULT:      -7.8      0.195      1.974
REMARK  Name = 
REMARK  2 active torsions:
REMARK  status: ('A' for Active; 'I' for Inactive)
REMARK    1  A    between atoms: C_4  and  C_5
REMARK    2  A    between atoms: C_15  and  N_16
REMARK                            x       y       z     vdW  Elec       q    Type
REMARK                         _______ _______ _______ _____ _____    ______ ____
ROOT
ATOM      1  N   UNL     1       7.567   7.259  17.066  0.00  0.00    +0.000 N 
ATOM      2  C   UNL     1       6.711   6.236  16.664  0.00  0.00    +0.000 A 
ATOM      3  C   UNL     1       5.675   5.839  17.492  0.00  0.00    +0.000 A 
ATOM      4  C   UNL     1       4.890   4.755  17.108  0.00  0.00    +0.000 A 
ATOM      5  C   UNL     1       5.210   4.073  15.938  0.00  0.00    +0.000 A 
ATOM      6  C   UNL     1       6.267   4.533  15.169  0.00  0.00    +0.000 A 
ATOM      7  N   UNL     1       7.007   5.606  15.512  0.00  0.00    +0.000 NA
ATOM      8  H   UNL     1       7.090   8.071  17.437  0.00  0.00    +0.000 HD
ATOM      9  H   UNL     1       8.193   7.474  16.295  0.00  0.00    +0.000 HD
ENDROOT
BRANCH   4  10
ATOM     10  C   UNL     1       3.768   4.315  17.953  0.00  0.00    +0.000 A 
ATOM     11  C   UNL     1       2.368   4.393  17.526  0.00  0.00    +0.000 A 
ATOM     12  C   UNL     1       1.361   3.978  18.315  0.00  0.00    +0.000 A 
ATOM     13  C   UNL     1       1.641   3.442  19.600  0.00  0.00    +0.000 A 
ATOM     14  N   UNL     1       0.853   2.974  20.546  0.00  0.00    +0.000 NA
ATOM     15  C   UNL     1       1.692   2.594  21.562  0.00  0.00    +0.000 A 
ATOM     16  C   UNL     1       3.006   2.829  21.234  0.00  0.00    +0.000 A 
ATOM     17  N   UNL     1       2.980   3.380  19.979  0.00  0.00    +0.000 N 
ATOM     18  C   UNL     1       4.031   3.807  19.168  0.00  0.00    +0.000 A 
ENDBRANCH   4  10
BRANCH   6  19
ATOM     19  N   UNL     1       6.672   3.820  14.044  0.00  0.00    +0.000 N 
ATOM     20  H   UNL     1       6.260   4.149  13.183  0.00  0.00    +0.000 HD
ATOM     21  H   UNL     1       7.688   3.806  14.024  0.00  0.00    +0.000 HD
ENDBRANCH   6  19
TORSDOF 2
ENDMDL
MODEL 3
REMARK VINA RESULT:      -7.6      0.972      1.051
REMARK  Name = 
REMARK  2 active torsions:
REMARK  status: ('A' for Active; 'I' for Inactive)
REMARK    1  A    between atoms: C_4  and  C_5
REMARK    2  A    between atoms: C_15  and  N_16
REMARK                            x       y       z     vdW  Elec       q    Type
REMARK                         _______ _______ _______ _____ _____    ______ ____
ROOT
ATOM      1  N   UNL     1       6.689   4.205  13.690  0.00  0.00    +0.000 N 
ATOM      2  C   UNL     1       6.516   4.588  15.019  0.00  0.00    +0.000 A 
ATOM      3  C   UNL     1       5.534   3.988  15.788  0.00  0.00    +0.000 A 
ATOM      4  C   UNL     1       5.322   4.452  17.083  0.00  0.00    +0.000 A 
ATOM      5  C   UNL     1       6.063   5.539  17.538  0.00  0.00    +0.000 A 
ATOM      6  C   UNL     1       7.024   6.085  16.702  0.00  0.00    +0.000 A 
ATOM      7  N   UNL     1       7.263   5.617  15.462  0.00  0.00    +0.000 NA
ATOM      8  H   UNL     1       6.704   3.203  13.552  0.00  0.00    +0.000 HD
ATOM      9  H   UNL     1       7.510   4.678  13.325  0.00  0.00    +0.000 HD
ENDROOT
BRANCH   4  10
ATOM     10  C   UNL     1       4.300   3.827  17.938  0.00  0.00    +0.000 A 
ATOM     11  C   UNL     1       3.709   2.518  17.650  0.00  0.00    +0.000 A 
ATOM     12  C   UNL     1       2.781   1.966  18.451  0.00  0.00    +0.000 A 
ATOM     13  C   UNL     1       2.351   2.653  19.618  0.00  0.00    +0.000 A 
ATOM     14  N   UNL     1       1.476   2.337  20.549  0.00  0.00    +0.000 NA
ATOM     15  C   UNL     1       1.485   3.390  21.428  0.00  0.00    +0.000 A 
ATOM     16  C   UNL     1       2.377   4.359  21.032  0.00  0.00    +0.000 A 
ATOM     17  N   UNL     1       2.931   3.895  19.867  0.00  0.00    +0.000 N 
ATOM     18  C   UNL     1       3.894   4.475  19.043  0.00  0.00    +0.000 A 
ENDBRANCH   4  10
BRANCH   6  19
ATOM     19  N   UNL     1       7.716   7.229  17.090  0.00  0.00    +0.000 N 
ATOM     20  H   UNL     1       8.488   7.046  17.716  0.00  0.00    +0.000 HD
ATOM     21  H   UNL     1       7.989   7.736  16.253  0.00  0.00    +0.000 HD
ENDBRANCH   6  19
TORSDOF 2
ENDMDL
MODEL 4
REMARK VINA RESULT:      -7.5      1.102      2.225
REMARK  Name = 
REMARK  2 active torsions:
REMARK  status: ('A' for Active; 'I' for Inactive)
REMARK    1  A    between atoms: C_4  and  C_5
REMARK    2  A    between atoms: C_15  and  N_16
REMARK                            x       y       z     vdW  Elec       q    Type
REMARK                         _______ _______ _______ _____ _____    ______ ____
ROOT
ATOM      1  N   UNL     1       7.959   7.334  18.200  0.00  0.00    +0.000 N 
ATOM      2  C   UNL     1       7.130   6.475  17.481  0.00  0.00    +0.000 A 
ATOM      3  C   UNL     1       6.122   5.784  18.131  0.00  0.00    +0.000 A 
ATOM      4  C   UNL     1       5.368   4.864  17.408  0.00  0.00    +0.000 A 
ATOM      5  C   UNL     1       5.691   4.629  16.075  0.00  0.00    +0.000 A 
ATOM      6  C   UNL     1       6.719   5.360  15.501  0.00  0.00    +0.000 A 
ATOM      7  N   UNL     1       7.428   6.280  16.182  0.00  0.00    +0.000 NA
ATOM      8  H   UNL     1       7.461   7.955  18.825  0.00  0.00    +0.000 HD
ATOM      9  H   UNL     1       8.564   7.819  17.543  0.00  0.00    +0.000 HD
ENDROOT
BRANCH   4  10
ATOM     10  C   UNL     1       4.275   4.124  18.060  0.00  0.00    +0.000 A 
ATOM     11  C   UNL     1       3.565   3.016  17.416  0.00  0.00    +0.000 A 
ATOM     12  C   UNL     1       2.574   2.352  18.038  0.00  0.00    +0.000 A 
ATOM     13  C   UNL     1       2.192   2.717  19.357  0.00  0.00    +0.000 A 
ATOM     14  N   UNL     1       1.274   2.236  20.168  0.00  0.00    +0.000 NA
ATOM     15  C   UNL     1       1.370   2.989  21.311  0.00  0.00    +0.000 A 
ATOM     16  C   UNL     1       2.359   3.938  21.198  0.00  0.00    +0.000 A 
ATOM     17  N   UNL     1       2.886   3.773  19.943  0.00  0.00    +0.000 N 
ATOM     18  C   UNL     1       3.915   4.467  19.308  0.00  0.00    +0.000 A 
ENDBRANCH   4  10
BRANCH   6  19
ATOM     19  N   UNL     1       7.128   5.083  14.200  0.00  0.00    +0.000 N 
ATOM     20  H   UNL     1       6.414   4.653  13.630  0.00  0.00    +0.000 HD
ATOM     21  H   UNL     1       7.506   5.935  13.796  0.00  0.00    +0.000 HD
ENDBRANCH   6  19
TORSDOF 2
ENDMDL
MODEL 5
REMARK VINA RESULT:      -7.4      1.044      1.184
REMARK  Name = 
REMARK  2 active torsions:
REMARK  status: ('A' for Active; 'I' for Inactive)
REMARK    1  A    between atoms: C_4  and  C_5
REMARK    2  A    between atoms: C_15  and  N_16
REMARK                            x       y       z     vdW  Elec       q    Type
REMARK                         _______ _______ _______ _____ _____    ______ ____
ROOT
ATOM      1  N   UNL     1       7.347   5.219  14.614  0.00  0.00    +0.000 N 
ATOM      2  C   UNL     1       6.994   5.261  15.962  0.00  0.00    +0.000 A 
ATOM      3  C   UNL     1       5.797   4.703  16.378  0.00  0.00    +0.000 A 
ATOM      4  C   UNL     1       5.426   4.838  17.713  0.00  0.00    +0.000 A 
ATOM      5  C   UNL     1       6.240   5.577  18.567  0.00  0.00    +0.000 A 
ATOM      6  C   UNL     1       7.419   6.106  18.068  0.00  0.00    +0.000 A 
ATOM      7  N   UNL     1       7.806   5.947  16.787  0.00  0.00    +0.000 NA
ATOM      8  H   UNL     1       7.220   4.312  14.185  0.00  0.00    +0.000 HD
ATOM      9  H   UNL     1       8.291   5.584  14.519  0.00  0.00    +0.000 HD
ENDROOT
BRANCH   4  10
ATOM     10  C   UNL     1       4.170   4.243  18.198  0.00  0.00    +0.000 A 
ATOM     11  C   UNL     1       3.164   3.661  17.305  0.00  0.00    +0.000 A 
ATOM     12  C   UNL     1       2.028   3.117  17.775  0.00  0.00    +0.000 A 
ATOM     13  C   UNL     1       1.778   3.091  19.174  0.00  0.00    +0.000 A 
ATOM     14  N   UNL     1       0.766   2.626  19.874  0.00  0.00    +0.000 NA
ATOM     15  C   UNL     1       1.084   2.881  21.184  0.00  0.00    +0.000 A 
ATOM     16  C   UNL     1       2.304   3.506  21.285  0.00  0.00    +0.000 A 
ATOM     17  N   UNL     1       2.752   3.650  19.998  0.00  0.00    +0.000 N 
ATOM     18  C   UNL     1       3.933   4.216  19.520  0.00  0.00    +0.000 A 
ENDBRANCH   4  10
BRANCH   6  19
ATOM     19  N   UNL     1       8.208   6.927  18.869  0.00  0.00    +0.000 N 
ATOM     20  H   UNL     1       9.131   7.096  18.495  0.00  0.00    +0.000 HD
ATOM     21  H   UNL     1       7.689   7.778  19.060  0.00  0.00    +0.000 HD
ENDBRANCH   6  19
TORSDOF 2
ENDMDL
MODEL 6
REMARK VINA RESULT:      -7.2      4.340      6.025
REMARK  Name = 
REMARK  2 active torsions:
REMARK  status: ('A' for Active; 'I' for Inactive)
REMARK    1  A    between atoms: C_4  and  C_5
REMARK    2  A    between atoms: C_15  and  N_16
REMARK                            x       y       z     vdW  Elec       q    Type
REMARK                         _______ _______ _______ _____ _____    ______ ____
ROOT
ATOM      1  N   UNL     1       5.314   3.337  18.864  0.00  0.00    +0.000 N 
ATOM      2  C   UNL     1       4.159   3.875  19.427  0.00  0.00    +0.000 A 
ATOM      3  C   UNL     1       3.781   5.171  19.120  0.00  0.00    +0.000 A 
ATOM      4  C   UNL     1       2.674   5.715  19.765  0.00  0.00    +0.000 A 
ATOM      5  C   UNL     1       2.024   4.961  20.737  0.00  0.00    +0.000 A 
ATOM      6  C   UNL     1       2.469   3.673  20.988  0.00  0.00    +0.000 A 
ATOM      7  N   UNL     1       3.514   3.124  20.339  0.00  0.00    +0.000 NA
ATOM      8  H   UNL     1       5.396   3.494  17.868  0.00  0.00    +0.000 HD
ATOM      9  H   UNL     1       5.371   2.357  19.125  0.00  0.00    +0.000 HD
ENDROOT
BRANCH   4  10
ATOM     10  C   UNL     1       2.231   7.083  19.451  0.00  0.00    +0.000 A 
ATOM     11  C   UNL     1       2.389   7.691  18.127  0.00  0.00    +0.000 A 
ATOM     12  C   UNL     1       1.969   8.941  17.865  0.00  0.00    +0.000 A 
ATOM     13  C   UNL     1       1.346   9.710  18.885  0.00  0.00    +0.000 A 
ATOM     14  N   UNL     1       0.855  10.931  18.887  0.00  0.00    +0.000 NA
ATOM     15  C   UNL     1       0.382  11.130  20.158  0.00  0.00    +0.000 A 
ATOM     16  C   UNL     1       0.583  10.019  20.943  0.00  0.00    +0.000 A 
ATOM     17  N   UNL     1       1.208   9.106  20.133  0.00  0.00    +0.000 N 
ATOM     18  C   UNL     1       1.640   7.811  20.415  0.00  0.00    +0.000 A 
ENDBRANCH   4  10
BRANCH   6  19
ATOM     19  N   UNL     1       1.901   2.927  22.017  0.00  0.00    +0.000 N 
ATOM     20  H   UNL     1       2.526   2.760  22.792  0.00  0.00    +0.000 HD
ATOM     21  H   UNL     1       1.031   3.373  22.290  0.00  0.00    +0.000 HD
ENDBRANCH   6  19
TORSDOF 2
ENDMDL
MODEL 7
REMARK VINA RESULT:      -7.2      1.219      1.490
REMARK  Name = 
REMARK  2 active torsions:
REMARK  status: ('A' for Active; 'I' for Inactive)
REMARK    1  A    between atoms: C_4  and  C_5
REMARK    2  A    between atoms: C_15  and  N_16
REMARK                            x       y       z     vdW  Elec       q    Type
REMARK                         _______ _______ _______ _____ _____    ______ ____
ROOT
ATOM      1  N   UNL     1       6.822   4.387  14.144  0.00  0.00    +0.000 N 
ATOM      2  C   UNL     1       6.574   4.990  15.375  0.00  0.00    +0.000 A 
ATOM      3  C   UNL     1       5.460   4.624  16.111  0.00  0.00    +0.000 A 
ATOM      4  C   UNL     1       5.186   5.306  17.293  0.00  0.00    +0.000 A 
ATOM      5  C   UNL     1       6.007   6.367  17.664  0.00  0.00    +0.000 A 
ATOM      6  C   UNL     1       7.100   6.672  16.868  0.00  0.00    +0.000 A 
ATOM      7  N   UNL     1       7.395   5.992  15.743  0.00  0.00    +0.000 NA
ATOM      8  H   UNL     1       6.731   3.380  14.155  0.00  0.00    +0.000 HD
ATOM      9  H   UNL     1       7.725   4.709  13.806  0.00  0.00    +0.000 HD
ENDROOT
BRANCH   4  10
ATOM     10  C   UNL     1       4.022   4.933  18.113  0.00  0.00    +0.000 A 
ATOM     11  C   UNL     1       3.502   5.775  19.194  0.00  0.00    +0.000 A 
ATOM     12  C   UNL     1       2.432   5.413  19.923  0.00  0.00    +0.000 A 
ATOM     13  C   UNL     1       1.769   4.186  19.651  0.00  0.00    +0.000 A 
ATOM     14  N   UNL     1       0.722   3.614  20.206  0.00  0.00    +0.000 NA
ATOM     15  C   UNL     1       0.544   2.440  19.521  0.00  0.00    +0.000 A 
ATOM     16  C   UNL     1       1.491   2.292  18.535  0.00  0.00    +0.000 A 
ATOM     17  N   UNL     1       2.285   3.407  18.618  0.00  0.00    +0.000 N 
ATOM     18  C   UNL     1       3.393   3.774  17.856  0.00  0.00    +0.000 A 
ENDBRANCH   4  10
BRANCH   6  19
ATOM     19  N   UNL     1       7.885   7.784  17.159  0.00  0.00    +0.000 N 
ATOM     20  H   UNL     1       7.374   8.543  17.585  0.00  0.00    +0.000 HD
ATOM     21  H   UNL     1       8.682   7.476  17.708  0.00  0.00    +0.000 HD
ENDBRANCH   6  19
TORSDOF 2
ENDMDL
MODEL 8
REMARK VINA RESULT:      -7.2      4.212      6.092
REMARK  Name = 
REMARK  2 active torsions:
REMARK  status: ('A' for Active; 'I' for Inactive)
REMARK    1  A    between atoms: C_4  and  C_5
REMARK    2  A    between atoms: C_15  and  N_16
REMARK                            x       y       z     vdW  Elec       q    Type
REMARK                         _______ _______ _______ _____ _____    ______ ____
ROOT
ATOM      1  N   UNL     1       1.538   2.707  21.919  0.00  0.00    +0.000 N 
ATOM      2  C   UNL     1       2.326   3.513  21.100  0.00  0.00    +0.000 A 
ATOM      3  C   UNL     1       1.897   4.786  20.766  0.00  0.00    +0.000 A 
ATOM      4  C   UNL     1       2.658   5.536  19.874  0.00  0.00    +0.000 A 
ATOM      5  C   UNL     1       3.790   4.960  19.305  0.00  0.00    +0.000 A 
ATOM      6  C   UNL     1       4.148   3.678  19.690  0.00  0.00    +0.000 A 
ATOM      7  N   UNL     1       3.439   2.960  20.583  0.00  0.00    +0.000 NA
ATOM      8  H   UNL     1       1.185   3.180  22.740  0.00  0.00    +0.000 HD
ATOM      9  H   UNL     1       2.058   1.860  22.130  0.00  0.00    +0.000 HD
ENDROOT
BRANCH   4  10
ATOM     10  C   UNL     1       2.244   6.901  19.510  0.00  0.00    +0.000 A 
ATOM     11  C   UNL     1       2.391   7.447  18.158  0.00  0.00    +0.000 A 
ATOM     12  C   UNL     1       1.999   8.696  17.850  0.00  0.00    +0.000 A 
ATOM     13  C   UNL     1       1.418   9.524  18.848  0.00  0.00    +0.000 A 
ATOM     14  N   UNL     1       0.959  10.757  18.806  0.00  0.00    +0.000 NA
ATOM     15  C   UNL     1       0.518  11.023  20.076  0.00  0.00    +0.000 A 
ATOM     16  C   UNL     1       0.706   9.941  20.904  0.00  0.00    +0.000 A 
ATOM     17  N   UNL     1       1.290   8.978  20.123  0.00  0.00    +0.000 N 
ATOM     18  C   UNL     1       1.693   7.685  20.452  0.00  0.00    +0.000 A 
ENDBRANCH   4  10
BRANCH   6  19
ATOM     19  N   UNL     1       5.219   3.038  19.072  0.00  0.00    +0.000 N 
ATOM     20  H   UNL     1       5.094   2.041  18.970  0.00  0.00    +0.000 HD
ATOM     21  H   UNL     1       5.409   3.512  18.194  0.00  0.00    +0.000 HD
ENDBRANCH   6  19
TORSDOF 2
ENDMDL
MODEL 9
REMARK VINA RESULT:      -7.1      1.476      6.482
REMARK  Name = 
REMARK  2 active torsions:
REMARK  status: ('A' for Active; 'I' for Inactive)
REMARK    1  A    between atoms: C_4  and  C_5
REMARK    2  A    between atoms: C_15  and  N_16
REMARK                            x       y       z     vdW  Elec       q    Type
REMARK                         _______ _______ _______ _____ _____    ______ ____
ROOT
ATOM      1  N   UNL     1       2.213   5.506  21.198  0.00  0.00    +0.000 N 
ATOM      2  C   UNL     1       2.602   4.633  20.184  0.00  0.00    +0.000 A 
ATOM      3  C   UNL     1       3.597   5.006  19.296  0.00  0.00    +0.000 A 
ATOM      4  C   UNL     1       3.902   4.153  18.239  0.00  0.00    +0.000 A 
ATOM      5  C   UNL     1       3.159   2.988  18.077  0.00  0.00    +0.000 A 
ATOM      6  C   UNL     1       2.177   2.692  19.008  0.00  0.00    +0.000 A 
ATOM      7  N   UNL     1       1.901   3.491  20.057  0.00  0.00    +0.000 NA
ATOM      8  H   UNL     1       2.987   5.921  21.700  0.00  0.00    +0.000 HD
ATOM      9  H   UNL     1       1.551   5.024  21.799  0.00  0.00    +0.000 HD
ENDROOT
BRANCH   4  10
ATOM     10  C   UNL     1       4.967   4.506  17.286  0.00  0.00    +0.000 A 
ATOM     11  C   UNL     1       6.124   5.330  17.648  0.00  0.00    +0.000 A 
ATOM     12  C   UNL     1       7.087   5.631  16.760  0.00  0.00    +0.000 A 
ATOM     13  C   UNL     1       7.002   5.144  15.427  0.00  0.00    +0.000 A 
ATOM     14  N   UNL     1       7.795   5.292  14.388  0.00  0.00    +0.000 NA
ATOM     15  C   UNL     1       7.197   4.591  13.373  0.00  0.00    +0.000 A 
ATOM     16  C   UNL     1       6.027   4.006  13.795  0.00  0.00    +0.000 A 
ATOM     17  N   UNL     1       5.892   4.364  15.112  0.00  0.00    +0.000 N 
ATOM     18  C   UNL     1       4.889   4.045  16.026  0.00  0.00    +0.000 A 
ENDBRANCH   4  10
BRANCH   6  19
ATOM     19  N   UNL     1       1.354   1.584  18.824  0.00  0.00    +0.000 N 
ATOM     20  H   UNL     1       1.509   1.102  17.950  0.00  0.00    +0.000 HD
ATOM     21  H   UNL     1       1.443   0.982  19.637  0.00  0.00    +0.000 HD
ENDBRANCH   6  19
TORSDOF 2
ENDMDL
