MODEL 1
REMARK VINA RESULT:      -7.5      0.000      0.000
REMARK  Name = 
REMARK  6 active torsions:
REMARK  status: ('A' for Active; 'I' for Inactive)
REMARK    1  A    between atoms: C_1  and  C_2
REMARK    2  A    between atoms: C_5  and  S_6
REMARK    3  A    between atoms: S_6  and  N_9
REMARK    4  A    between atoms: N_9  and  C_10
REMARK    5  A    between atoms: C_14  and  C_15
REMARK    6  A    between atoms: C_17  and  C_18
REMARK                            x       y       z     vdW  Elec       q    Type
REMARK                         _______ _______ _______ _____ _____    ______ ____
ROOT
ATOM      1  N   UNL     1       6.593   5.173  15.922  0.00  0.00    +0.000 N 
ATOM      2  C   UNL     1       6.764   4.935  14.571  0.00  0.00    +0.000 A 
ATOM      3  N   UNL     1       7.608   5.744  13.914  0.00  0.00    +0.000 NA
ATOM      4  C   UNL     1       7.818   5.462  12.613  0.00  0.00    +0.000 A 
ATOM      5  C   UNL     1       8.722   6.376  11.837  0.00  0.00    +0.000 C 
ATOM      6  C   UNL     1       7.232   4.375  11.993  0.00  0.00    +0.000 A 
ATOM      7  C   UNL     1       6.407   3.584  12.771  0.00  0.00    +0.000 A 
ATOM      8  C   UNL     1       5.753   2.360  12.203  0.00  0.00    +0.000 C 
ATOM      9  N   UNL     1       6.158   3.853  14.070  0.00  0.00    +0.000 NA
ENDROOT
BRANCH   1  10
ATOM     10  S   UNL     1       5.504   6.268  16.451  0.00  0.00    +0.000 S 
ATOM     11  O   UNL     1       4.878   6.942  15.331  0.00  0.00    +0.000 OA
ATOM     12  O   UNL     1       6.087   7.057  17.520  0.00  0.00    +0.000 OA
BRANCH  10  17
ATOM     13  C   UNL     1       0.868   2.992  18.657  0.00  0.00    +0.000 C 
ATOM     14  C   UNL     1       2.038   3.798  18.171  0.00  0.00    +0.000 A 
ATOM     15  C   UNL     1       2.160   5.159  18.481  0.00  0.00    +0.000 A 
ATOM     16  C   UNL     1       3.246   5.900  18.003  0.00  0.00    +0.000 A 
ATOM     17  C   UNL     1       4.222   5.279  17.215  0.00  0.00    +0.000 A 
ATOM     18  C   UNL     1       4.104   3.925  16.891  0.00  0.00    +0.000 A 
ATOM     19  C   UNL     1       3.018   3.188  17.374  0.00  0.00    +0.000 A 
ENDBRANCH  10  17
ENDBRANCH   1  10
BRANCH   1  20
ATOM     20  C   UNL     1       7.393   4.543  16.756  0.00  0.00    +0.000 C 
ATOM     21  N   UNL     1       8.105   4.015  17.502  0.00  0.00    +0.000 NA
ENDBRANCH   1  20
TORSDOF 3
ENDMDL
MODEL 2
REMARK VINA RESULT:      -7.4      0.141      1.062
REMARK  Name = 
REMARK  6 active torsions:
REMARK  status: ('A' for Active; 'I' for Inactive)
REMARK    1  A    between atoms: C_1  and  C_2
REMARK    2  A    between atoms: C_5  and  S_6
REMARK    3  A    between atoms: S_6  and  N_9
REMARK    4  A    between atoms: N_9  and  C_10
REMARK    5  A    between atoms: C_14  and  C_15
REMARK    6  A    between atoms: C_17  and  C_18
REMARK                            x       y       z     vdW  Elec       q    Type
REMARK                         _______ _______ _______ _____ _____    ______ ____
ROOT
ATOM      1  N   UNL     1       6.575   5.152  15.953  0.00  0.00    +0.000 N 
ATOM      2  C   UNL     1       6.749   4.918  14.601  0.00  0.00    +0.000 A 
ATOM      3  N   UNL     1       7.591   5.731  13.947  0.00  0.00    +0.000 NA
ATOM      4  C   UNL     1       7.804   5.453  12.646  0.00  0.00    +0.000 A 
ATOM      5  C   UNL     1       8.705   6.372  11.873  0.00  0.00    +0.000 C 
ATOM      6  C   UNL     1       7.221   4.366  12.022  0.00  0.00    +0.000 A 
ATOM      7  C   UNL     1       6.398   3.570  12.797  0.00  0.00    +0.000 A 
ATOM      8  C   UNL     1       5.748   2.346  12.227  0.00  0.00    +0.000 C 
ATOM      9  N   UNL     1       6.147   3.835  14.097  0.00  0.00    +0.000 NA
ENDROOT
BRANCH   1  10
ATOM     10  S   UNL     1       5.483   6.242  16.483  0.00  0.00    +0.000 S 
ATOM     11  O   UNL     1       4.966   7.022  15.376  0.00  0.00    +0.000 OA
ATOM     12  O   UNL     1       6.005   6.926  17.652  0.00  0.00    +0.000 OA
BRANCH  10  17
ATOM     13  C   UNL     1       1.071   2.806  18.895  0.00  0.00    +0.000 C 
ATOM     14  C   UNL     1       2.131   3.646  18.243  0.00  0.00    +0.000 A 
ATOM     15  C   UNL     1       3.161   3.061  17.495  0.00  0.00    +0.000 A 
ATOM     16  C   UNL     1       4.154   3.856  16.912  0.00  0.00    +0.000 A 
ATOM     17  C   UNL     1       4.115   5.246  17.069  0.00  0.00    +0.000 A 
ATOM     18  C   UNL     1       3.098   5.839  17.822  0.00  0.00    +0.000 A 
ATOM     19  C   UNL     1       2.107   5.039  18.400  0.00  0.00    +0.000 A 
ENDBRANCH  10  17
ENDBRANCH   1  10
BRANCH   1  20
ATOM     20  C   UNL     1       7.376   4.523  16.786  0.00  0.00    +0.000 C 
ATOM     21  N   UNL     1       8.083   3.993  17.536  0.00  0.00    +0.000 NA
ENDBRANCH   1  20
TORSDOF 3
ENDMDL
MODEL 3
REMARK VINA RESULT:      -7.4      2.251      5.897
REMARK  Name = 
REMARK  6 active torsions:
REMARK  status: ('A' for Active; 'I' for Inactive)
REMARK    1  A    between atoms: C_1  and  C_2
REMARK    2  A    between atoms: C_5  and  S_6
REMARK    3  A    between atoms: S_6  and  N_9
REMARK    4  A    between atoms: N_9  and  C_10
REMARK    5  A    between atoms: C_14  and  C_15
REMARK    6  A    between atoms: C_17  and  C_18
REMARK                            x       y       z     vdW  Elec       q    Type
REMARK                         _______ _______ _______ _____ _____    ______ ____
ROOT
ATOM      1  N   UNL     1       5.758   5.662  18.467  0.00  0.00    +0.000 N 
ATOM      2  C   UNL     1       4.673   4.864  18.778  0.00  0.00    +0.000 A 
ATOM      3  N   UNL     1       4.617   3.659  18.192  0.00  0.00    +0.000 NA
ATOM      4  C   UNL     1       3.592   2.863  18.554  0.00  0.00    +0.000 A 
ATOM      5  C   UNL     1       3.474   1.525  17.883  0.00  0.00    +0.000 C 
ATOM      6  C   UNL     1       2.667   3.245  19.507  0.00  0.00    +0.000 A 
ATOM      7  C   UNL     1       2.837   4.493  20.076  0.00  0.00    +0.000 A 
ATOM      8  C   UNL     1       1.910   4.987  21.146  0.00  0.00    +0.000 C 
ATOM      9  N   UNL     1       3.840   5.323  19.719  0.00  0.00    +0.000 NA
ENDROOT
BRANCH   1  10
ATOM     10  S   UNL     1       5.744   6.621  17.146  0.00  0.00    +0.000 S 
ATOM     11  O   UNL     1       6.891   7.507  17.149  0.00  0.00    +0.000 OA
ATOM     12  O   UNL     1       4.416   7.178  16.962  0.00  0.00    +0.000 OA
BRANCH  10  17
ATOM     13  C   UNL     1       6.525   3.155  12.199  0.00  0.00    +0.000 C 
ATOM     14  C   UNL     1       6.329   3.956  13.454  0.00  0.00    +0.000 A 
ATOM     15  C   UNL     1       5.063   4.087  14.039  0.00  0.00    +0.000 A 
ATOM     16  C   UNL     1       4.892   4.854  15.197  0.00  0.00    +0.000 A 
ATOM     17  C   UNL     1       5.994   5.491  15.779  0.00  0.00    +0.000 A 
ATOM     18  C   UNL     1       7.259   5.376  15.198  0.00  0.00    +0.000 A 
ATOM     19  C   UNL     1       7.424   4.605  14.042  0.00  0.00    +0.000 A 
ENDBRANCH  10  17
ENDBRANCH   1  10
BRANCH   1  20
ATOM     20  C   UNL     1       6.827   5.560  19.228  0.00  0.00    +0.000 C 
ATOM     21  N   UNL     1       7.753   5.450  19.915  0.00  0.00    +0.000 NA
ENDBRANCH   1  20
TORSDOF 3
ENDMDL
MODEL 4
REMARK VINA RESULT:      -6.9      3.013      6.101
REMARK  Name = 
REMARK  6 active torsions:
REMARK  status: ('A' for Active; 'I' for Inactive)
REMARK    1  A    between atoms: C_1  and  C_2
REMARK    2  A    between atoms: C_5  and  S_6
REMARK    3  A    between atoms: S_6  and  N_9
REMARK    4  A    between atoms: N_9  and  C_10
REMARK    5  A    between atoms: C_14  and  C_15
REMARK    6  A    between atoms: C_17  and  C_18
REMARK                            x       y       z     vdW  Elec       q    Type
REMARK                         _______ _______ _______ _____ _____    ______ ____
ROOT
ATOM      1  N   UNL     1       5.594   4.801  16.796  0.00  0.00    +0.000 N 
ATOM      2  C   UNL     1       4.362   5.033  17.380  0.00  0.00    +0.000 A 
ATOM      3  N   UNL     1       4.014   6.313  17.575  0.00  0.00    +0.000 NA
ATOM      4  C   UNL     1       2.785   6.529  18.083  0.00  0.00    +0.000 A 
ATOM      5  C   UNL     1       2.381   7.949  18.356  0.00  0.00    +0.000 C 
ATOM      6  C   UNL     1       1.909   5.494  18.352  0.00  0.00    +0.000 A 
ATOM      7  C   UNL     1       2.354   4.214  18.081  0.00  0.00    +0.000 A 
ATOM      8  C   UNL     1       1.468   3.026  18.303  0.00  0.00    +0.000 C 
ATOM      9  N   UNL     1       3.588   3.963  17.594  0.00  0.00    +0.000 NA
ENDROOT
BRANCH   1  10
ATOM     10  S   UNL     1       6.953   4.736  17.699  0.00  0.00    +0.000 S 
ATOM     11  O   UNL     1       8.040   4.155  16.938  0.00  0.00    +0.000 OA
ATOM     12  O   UNL     1       6.640   4.204  19.012  0.00  0.00    +0.000 OA
BRANCH  10  17
ATOM     13  C   UNL     1       8.822  10.503  18.282  0.00  0.00    +0.000 C 
ATOM     14  C   UNL     1       8.321   9.091  18.187  0.00  0.00    +0.000 A 
ATOM     15  C   UNL     1       8.743   8.110  19.094  0.00  0.00    +0.000 A 
ATOM     16  C   UNL     1       8.284   6.793  18.980  0.00  0.00    +0.000 A 
ATOM     17  C   UNL     1       7.391   6.453  17.957  0.00  0.00    +0.000 A 
ATOM     18  C   UNL     1       6.972   7.421  17.040  0.00  0.00    +0.000 A 
ATOM     19  C   UNL     1       7.433   8.736  17.162  0.00  0.00    +0.000 A 
ENDBRANCH  10  17
ENDBRANCH   1  10
BRANCH   1  20
ATOM     20  C   UNL     1       5.638   4.714  15.484  0.00  0.00    +0.000 C 
ATOM     21  N   UNL     1       5.694   4.660  14.328  0.00  0.00    +0.000 NA
ENDBRANCH   1  20
TORSDOF 3
ENDMDL
MODEL 5
REMARK VINA RESULT:      -6.8      3.231      4.528
REMARK  Name = 
REMARK  6 active torsions:
REMARK  status: ('A' for Active; 'I' for Inactive)
REMARK    1  A    between atoms: C_1  and  C_2
REMARK    2  A    between atoms: C_5  and  S_6
REMARK    3  A    between atoms: S_6  and  N_9
REMARK    4  A    between atoms: N_9  and  C_10
REMARK    5  A    between atoms: C_14  and  C_15
REMARK    6  A    between atoms: C_17  and  C_18
REMARK                            x       y       z     vdW  Elec       q    Type
REMARK                         _______ _______ _______ _____ _____    ______ ____
ROOT
ATOM      1  N   UNL     1       3.840   3.704  18.475  0.00  0.00    +0.000 N 
ATOM      2  C   UNL     1       4.655   4.379  17.584  0.00  0.00    +0.000 A 
ATOM      3  N   UNL     1       5.122   5.574  17.973  0.00  0.00    +0.000 NA
ATOM      4  C   UNL     1       5.969   6.192  17.126  0.00  0.00    +0.000 A 
ATOM      5  C   UNL     1       6.474   7.552  17.511  0.00  0.00    +0.000 C 
ATOM      6  C   UNL     1       6.370   5.613  15.936  0.00  0.00    +0.000 A 
ATOM      7  C   UNL     1       5.856   4.363  15.647  0.00  0.00    +0.000 A 
ATOM      8  C   UNL     1       6.258   3.633  14.401  0.00  0.00    +0.000 C 
ATOM      9  N   UNL     1       4.990   3.727  16.464  0.00  0.00    +0.000 NA
ENDROOT
BRANCH   1  10
ATOM     10  S   UNL     1       2.235   3.996  18.531  0.00  0.00    +0.000 S 
ATOM     11  O   UNL     1       1.598   3.136  19.509  0.00  0.00    +0.000 OA
ATOM     12  O   UNL     1       1.703   4.054  17.182  0.00  0.00    +0.000 OA
BRANCH  10  17
ATOM     13  C   UNL     1       1.342   9.639  20.639  0.00  0.00    +0.000 C 
ATOM     14  C   UNL     1       1.626   8.259  20.121  0.00  0.00    +0.000 A 
ATOM     15  C   UNL     1       1.984   8.046  18.783  0.00  0.00    +0.000 A 
ATOM     16  C   UNL     1       2.224   6.751  18.310  0.00  0.00    +0.000 A 
ATOM     17  C   UNL     1       2.113   5.660  19.179  0.00  0.00    +0.000 A 
ATOM     18  C   UNL     1       1.745   5.859  20.512  0.00  0.00    +0.000 A 
ATOM     19  C   UNL     1       1.509   7.156  20.980  0.00  0.00    +0.000 A 
ENDBRANCH  10  17
ENDBRANCH   1  10
BRANCH   1  20
ATOM     20  C   UNL     1       4.418   2.881  19.324  0.00  0.00    +0.000 C 
ATOM     21  N   UNL     1       4.926   2.178  20.091  0.00  0.00    +0.000 NA
ENDBRANCH   1  20
TORSDOF 3
ENDMDL
MODEL 6
REMARK VINA RESULT:      -6.6      2.234      5.813
REMARK  Name = 
REMARK  6 active torsions:
REMARK  status: ('A' for Active; 'I' for Inactive)
REMARK    1  A    between atoms: C_1  and  C_2
REMARK    2  A    between atoms: C_5  and  S_6
REMARK    3  A    between atoms: S_6  and  N_9
REMARK    4  A    between atoms: N_9  and  C_10
REMARK    5  A    between atoms: C_14  and  C_15
REMARK    6  A    between atoms: C_17  and  C_18
REMARK                            x       y       z     vdW  Elec       q    Type
REMARK                         _______ _______ _______ _____ _____    ______ ____
ROOT
ATOM      1  N   UNL     1       5.812   5.684  18.401  0.00  0.00    +0.000 N 
ATOM      2  C   UNL     1       4.740   4.867  18.709  0.00  0.00    +0.000 A 
ATOM      3  N   UNL     1       4.636   3.717  18.027  0.00  0.00    +0.000 NA
ATOM      4  C   UNL     1       3.627   2.898  18.381  0.00  0.00    +0.000 A 
ATOM      5  C   UNL     1       3.455   1.624  17.605  0.00  0.00    +0.000 C 
ATOM      6  C   UNL     1       2.765   3.201  19.419  0.00  0.00    +0.000 A 
ATOM      7  C   UNL     1       2.982   4.395  20.081  0.00  0.00    +0.000 A 
ATOM      8  C   UNL     1       2.127   4.799  21.244  0.00  0.00    +0.000 C 
ATOM      9  N   UNL     1       3.970   5.247  19.735  0.00  0.00    +0.000 NA
ENDROOT
BRANCH   1  10
ATOM     10  S   UNL     1       5.728   6.752  17.171  0.00  0.00    +0.000 S 
ATOM     11  O   UNL     1       6.868   7.647  17.196  0.00  0.00    +0.000 OA
ATOM     12  O   UNL     1       4.389   7.309  17.100  0.00  0.00    +0.000 OA
BRANCH  10  17
ATOM     13  C   UNL     1       6.390   2.946  12.463  0.00  0.00    +0.000 C 
ATOM     14  C   UNL     1       6.238   3.934  13.584  0.00  0.00    +0.000 A 
ATOM     15  C   UNL     1       7.358   4.523  14.186  0.00  0.00    +0.000 A 
ATOM     16  C   UNL     1       7.201   5.426  15.244  0.00  0.00    +0.000 A 
ATOM     17  C   UNL     1       5.918   5.748  15.701  0.00  0.00    +0.000 A 
ATOM     18  C   UNL     1       4.795   5.157  15.115  0.00  0.00    +0.000 A 
ATOM     19  C   UNL     1       4.958   4.258  14.056  0.00  0.00    +0.000 A 
ENDBRANCH  10  17
ENDBRANCH   1  10
BRANCH   1  20
ATOM     20  C   UNL     1       6.924   5.510  19.084  0.00  0.00    +0.000 C 
ATOM     21  N   UNL     1       7.901   5.386  19.693  0.00  0.00    +0.000 NA
ENDBRANCH   1  20
TORSDOF 3
ENDMDL
MODEL 7
REMARK VINA RESULT:      -6.5      3.548      5.221
REMARK  Name = 
REMARK  6 active torsions:
REMARK  status: ('A' for Active; 'I' for Inactive)
REMARK    1  A    between atoms: C_1  and  C_2
REMARK    2  A    between atoms: C_5  and  S_6
REMARK    3  A    between atoms: S_6  and  N_9
REMARK    4  A    between atoms: N_9  and  C_10
REMARK    5  A    between atoms: C_14  and  C_15
REMARK    6  A    between atoms: C_17  and  C_18
REMARK                            x       y       z     vdW  Elec       q    Type
REMARK                         _______ _______ _______ _____ _____    ______ ____
ROOT
ATOM      1  N   UNL     1       3.562   3.488  18.938  0.00  0.00    +0.000 N 
ATOM      2  C   UNL     1       4.572   4.295  18.447  0.00  0.00    +0.000 A 
ATOM      3  N   UNL     1       5.590   4.566  19.277  0.00  0.00    +0.000 NA
ATOM      4  C   UNL     1       6.601   5.298  18.768  0.00  0.00    +0.000 A 
ATOM      5  C   UNL     1       7.734   5.657  19.684  0.00  0.00    +0.000 C 
ATOM      6  C   UNL     1       6.614   5.715  17.450  0.00  0.00    +0.000 A 
ATOM      7  C   UNL     1       5.531   5.351  16.670  0.00  0.00    +0.000 A 
ATOM      8  C   UNL     1       5.467   5.722  15.220  0.00  0.00    +0.000 C 
ATOM      9  N   UNL     1       4.494   4.638  17.157  0.00  0.00    +0.000 NA
ENDROOT
BRANCH   1  10
ATOM     10  S   UNL     1       2.324   4.119  19.794  0.00  0.00    +0.000 S 
ATOM     11  O   UNL     1       2.627   4.105  21.211  0.00  0.00    +0.000 OA
ATOM     12  O   UNL     1       1.072   3.551  19.330  0.00  0.00    +0.000 OA
BRANCH  10  17
ATOM     13  C   UNL     1       1.717   9.950  18.143  0.00  0.00    +0.000 C 
ATOM     14  C   UNL     1       1.930   8.516  18.537  0.00  0.00    +0.000 A 
ATOM     15  C   UNL     1       2.092   7.515  17.570  0.00  0.00    +0.000 A 
ATOM     16  C   UNL     1       2.268   6.181  17.953  0.00  0.00    +0.000 A 
ATOM     17  C   UNL     1       2.288   5.843  19.311  0.00  0.00    +0.000 A 
ATOM     18  C   UNL     1       2.116   6.831  20.283  0.00  0.00    +0.000 A 
ATOM     19  C   UNL     1       1.943   8.164  19.894  0.00  0.00    +0.000 A 
ENDBRANCH  10  17
ENDBRANCH   1  10
BRANCH   1  20
ATOM     20  C   UNL     1       3.680   2.190  18.757  0.00  0.00    +0.000 C 
ATOM     21  N   UNL     1       3.808   1.052  18.584  0.00  0.00    +0.000 NA
ENDBRANCH   1  20
TORSDOF 3
ENDMDL
MODEL 8
REMARK VINA RESULT:      -6.5      0.897      1.123
REMARK  Name = 
REMARK  6 active torsions:
REMARK  status: ('A' for Active; 'I' for Inactive)
REMARK    1  A    between atoms: C_1  and  C_2
REMARK    2  A    between atoms: C_5  and  S_6
REMARK    3  A    between atoms: S_6  and  N_9
REMARK    4  A    between atoms: N_9  and  C_10
REMARK    5  A    between atoms: C_14  and  C_15
REMARK    6  A    between atoms: C_17  and  C_18
REMARK                            x       y       z     vdW  Elec       q    Type
REMARK                         _______ _______ _______ _____ _____    ______ ____
ROOT
ATOM      1  N   UNL     1       6.683   5.257  16.069  0.00  0.00    +0.000 N 
ATOM      2  C   UNL     1       6.791   5.004  14.714  0.00  0.00    +0.000 A 
ATOM      3  N   UNL     1       7.668   5.748  14.025  0.00  0.00    +0.000 NA
ATOM      4  C   UNL     1       7.814   5.448  12.719  0.00  0.00    +0.000 A 
ATOM      5  C   UNL     1       8.754   6.292  11.908  0.00  0.00    +0.000 C 
ATOM      6  C   UNL     1       7.130   4.404  12.125  0.00  0.00    +0.000 A 
ATOM      7  C   UNL     1       6.277   3.677  12.934  0.00  0.00    +0.000 A 
ATOM      8  C   UNL     1       5.518   2.502  12.396  0.00  0.00    +0.000 C 
ATOM      9  N   UNL     1       6.092   3.966  14.239  0.00  0.00    +0.000 NA
ENDROOT
BRANCH   1  10
ATOM     10  S   UNL     1       5.695   6.429  16.628  0.00  0.00    +0.000 S 
ATOM     11  O   UNL     1       4.918   6.998  15.544  0.00  0.00    +0.000 OA
ATOM     12  O   UNL     1       6.435   7.312  17.510  0.00  0.00    +0.000 OA
BRANCH  10  17
ATOM     13  C   UNL     1       1.638   3.897  20.400  0.00  0.00    +0.000 C 
ATOM     14  C   UNL     1       2.657   4.462  19.452  0.00  0.00    +0.000 A 
ATOM     15  C   UNL     1       4.020   4.477  19.777  0.00  0.00    +0.000 A 
ATOM     16  C   UNL     1       4.954   5.026  18.892  0.00  0.00    +0.000 A 
ATOM     17  C   UNL     1       4.527   5.561  17.671  0.00  0.00    +0.000 A 
ATOM     18  C   UNL     1       3.169   5.562  17.342  0.00  0.00    +0.000 A 
ATOM     19  C   UNL     1       2.240   5.008  18.229  0.00  0.00    +0.000 A 
ENDBRANCH  10  17
ENDBRANCH   1  10
BRANCH   1  20
ATOM     20  C   UNL     1       7.464   4.574  16.879  0.00  0.00    +0.000 C 
ATOM     21  N   UNL     1       8.133   3.980  17.614  0.00  0.00    +0.000 NA
ENDBRANCH   1  20
TORSDOF 3
ENDMDL
MODEL 9
REMARK VINA RESULT:      -6.5      3.508      6.848
REMARK  Name = 
REMARK  6 active torsions:
REMARK  status: ('A' for Active; 'I' for Inactive)
REMARK    1  A    between atoms: C_1  and  C_2
REMARK    2  A    between atoms: C_5  and  S_6
REMARK    3  A    between atoms: S_6  and  N_9
REMARK    4  A    between atoms: N_9  and  C_10
REMARK    5  A    between atoms: C_14  and  C_15
REMARK    6  A    between atoms: C_17  and  C_18
REMARK                            x       y       z     vdW  Elec       q    Type
REMARK                         _______ _______ _______ _____ _____    ______ ____
ROOT
ATOM      1  N   UNL     1       2.804   5.192  18.846  0.00  0.00    +0.000 N 
ATOM      2  C   UNL     1       2.400   6.476  19.160  0.00  0.00    +0.000 A 
ATOM      3  N   UNL     1       2.512   7.402  18.196  0.00  0.00    +0.000 NA
ATOM      4  C   UNL     1       2.054   8.634  18.491  0.00  0.00    +0.000 A 
ATOM      5  C   UNL     1       2.207   9.705  17.450  0.00  0.00    +0.000 C 
ATOM      6  C   UNL     1       1.461   8.926  19.705  0.00  0.00    +0.000 A 
ATOM      7  C   UNL     1       1.363   7.890  20.616  0.00  0.00    +0.000 A 
ATOM      8  C   UNL     1       0.703   8.093  21.946  0.00  0.00    +0.000 C 
ATOM      9  N   UNL     1       1.832   6.651  20.359  0.00  0.00    +0.000 NA
ENDROOT
BRANCH   1  10
ATOM     10  S   UNL     1       4.366   4.743  18.992  0.00  0.00    +0.000 S 
ATOM     11  O   UNL     1       4.459   3.372  19.451  0.00  0.00    +0.000 OA
ATOM     12  O   UNL     1       5.107   5.778  19.689  0.00  0.00    +0.000 OA
BRANCH  10  17
ATOM     13  C   UNL     1       6.916   4.757  13.461  0.00  0.00    +0.000 C 
ATOM     14  C   UNL     1       6.231   4.767  14.797  0.00  0.00    +0.000 A 
ATOM     15  C   UNL     1       5.877   5.970  15.422  0.00  0.00    +0.000 A 
ATOM     16  C   UNL     1       5.258   5.963  16.677  0.00  0.00    +0.000 A 
ATOM     17  C   UNL     1       4.984   4.746  17.311  0.00  0.00    +0.000 A 
ATOM     18  C   UNL     1       5.342   3.540  16.702  0.00  0.00    +0.000 A 
ATOM     19  C   UNL     1       5.958   3.554  15.447  0.00  0.00    +0.000 A 
ENDBRANCH  10  17
ENDBRANCH   1  10
BRANCH   1  20
ATOM     20  C   UNL     1       1.898   4.374  18.352  0.00  0.00    +0.000 C 
ATOM     21  N   UNL     1       1.083   3.677  17.915  0.00  0.00    +0.000 NA
ENDBRANCH   1  20
TORSDOF 3
ENDMDL
