MODEL 1
REMARK VINA RESULT:      -6.8      0.000      0.000
REMARK  Name = 
REMARK  6 active torsions:
REMARK  status: ('A' for Active; 'I' for Inactive)
REMARK    1  A    between atoms: C_2  and  C_3
REMARK    2  A    between atoms: C_6  and  C_7
REMARK    3  A    between atoms: C_7  and  S_8
REMARK    4  A    between atoms: S_8  and  C_9
REMARK    5  A    between atoms: C_9  and  C_10
REMARK    6  A    between atoms: C_9  and  C_13
REMARK                            x       y       z     vdW  Elec       q    Type
REMARK                         _______ _______ _______ _____ _____    ______ ____
ROOT
ATOM      1  C   UNL     1       5.021   5.669  17.997  0.00  0.00    +0.000 C 
ENDROOT
BRANCH   1   2
ATOM      2  C   UNL     1       5.827   4.823  18.994  0.00  0.00    +0.000 C 
ATOM      3  N   UNL     1       5.511   3.509  19.141  0.00  0.00    +0.000 N 
ATOM      4  O   UNL     1       6.693   5.310  19.721  0.00  0.00    +0.000 OA
ATOM      5  H   UNL     1       4.609   3.147  18.858  0.00  0.00    +0.000 HD
ATOM      6  H   UNL     1       5.975   3.039  19.910  0.00  0.00    +0.000 HD
ENDBRANCH   1   2
BRANCH   1   7
ATOM      7  C   UNL     1       5.425   5.552  16.505  0.00  0.00    +0.000 C 
ATOM      8  C   UNL     1       6.951   5.476  16.311  0.00  0.00    +0.000 C 
ATOM      9  C   UNL     1       7.155   4.890  14.922  0.00  0.00    +0.000 C 
ATOM     10  C   UNL     1       5.913   4.056  14.633  0.00  0.00    +0.000 C 
ATOM     11  C   UNL     1       4.964   4.260  15.817  0.00  0.00    +0.000 C 
ENDBRANCH   1   7
BRANCH   1  12
ATOM     12  S   UNL     1       3.229   5.233  18.193  0.00  0.00    +0.000 S 
BRANCH  12  13
ATOM     13  C   UNL     1       2.791   6.160  19.709  0.00  0.00    +0.000 C 
BRANCH  13  17
ATOM     14  C   UNL     1       0.958  10.022  19.032  0.00  0.00    +0.000 A 
ATOM     15  C   UNL     1       1.607   9.359  17.985  0.00  0.00    +0.000 A 
ATOM     16  C   UNL     1       2.191   8.107  18.199  0.00  0.00    +0.000 A 
ATOM     17  C   UNL     1       2.149   7.505  19.465  0.00  0.00    +0.000 A 
ATOM     18  C   UNL     1       1.471   8.165  20.501  0.00  0.00    +0.000 A 
ATOM     19  C   UNL     1       0.884   9.416  20.289  0.00  0.00    +0.000 A 
BRANCH  14  21
ATOM     20  N   UNL     1      -0.085  12.363  18.641  0.00  0.00    +0.000 NA
ATOM     21  C   UNL     1       0.379  11.317  18.816  0.00  0.00    +0.000 C 
ENDBRANCH  14  21
ENDBRANCH  13  17
ENDBRANCH  12  13
ENDBRANCH   1  12
TORSDOF 6
ENDMDL
MODEL 2
REMARK VINA RESULT:      -6.8      3.180      5.799
REMARK  Name = 
REMARK  6 active torsions:
REMARK  status: ('A' for Active; 'I' for Inactive)
REMARK    1  A    between atoms: C_2  and  C_3
REMARK    2  A    between atoms: C_6  and  C_7
REMARK    3  A    between atoms: C_7  and  S_8
REMARK    4  A    between atoms: S_8  and  C_9
REMARK    5  A    between atoms: C_9  and  C_10
REMARK    6  A    between atoms: C_9  and  C_13
REMARK                            x       y       z     vdW  Elec       q    Type
REMARK                         _______ _______ _______ _____ _____    ______ ____
ROOT
ATOM      1  C   UNL     1       2.960   3.159  18.898  0.00  0.00    +0.000 C 
ENDROOT
BRANCH   1   2
ATOM      2  C   UNL     1       4.053   2.143  19.259  0.00  0.00    +0.000 C 
ATOM      3  N   UNL     1       4.015   0.910  18.686  0.00  0.00    +0.000 N 
ATOM      4  O   UNL     1       4.914   2.375  20.109  0.00  0.00    +0.000 OA
ATOM      5  H   UNL     1       3.164   0.543  18.279  0.00  0.00    +0.000 HD
ATOM      6  H   UNL     1       4.671   0.238  19.068  0.00  0.00    +0.000 HD
ENDBRANCH   1   2
BRANCH   1   7
ATOM      7  C   UNL     1       2.973   4.497  19.682  0.00  0.00    +0.000 C 
ATOM      8  C   UNL     1       2.759   5.719  18.770  0.00  0.00    +0.000 C 
ATOM      9  C   UNL     1       2.319   6.844  19.695  0.00  0.00    +0.000 C 
ATOM     10  C   UNL     1       1.661   6.168  20.893  0.00  0.00    +0.000 C 
ATOM     11  C   UNL     1       1.827   4.660  20.690  0.00  0.00    +0.000 C 
ENDBRANCH   1   7
BRANCH   1  12
ATOM     12  S   UNL     1       3.074   3.502  17.080  0.00  0.00    +0.000 S 
BRANCH  12  13
ATOM     13  C   UNL     1       4.877   3.368  16.795  0.00  0.00    +0.000 C 
BRANCH  13  17
ATOM     14  C   UNL     1       7.082   7.022  17.522  0.00  0.00    +0.000 A 
ATOM     15  C   UNL     1       7.416   5.850  18.211  0.00  0.00    +0.000 A 
ATOM     16  C   UNL     1       6.712   4.666  17.970  0.00  0.00    +0.000 A 
ATOM     17  C   UNL     1       5.653   4.638  17.050  0.00  0.00    +0.000 A 
ATOM     18  C   UNL     1       5.345   5.811  16.344  0.00  0.00    +0.000 A 
ATOM     19  C   UNL     1       6.050   6.995  16.581  0.00  0.00    +0.000 A 
BRANCH  14  21
ATOM     20  N   UNL     1       8.364   9.223  18.005  0.00  0.00    +0.000 NA
ATOM     21  C   UNL     1       7.791   8.240  17.788  0.00  0.00    +0.000 C 
ENDBRANCH  14  21
ENDBRANCH  13  17
ENDBRANCH  12  13
ENDBRANCH   1  12
TORSDOF 6
ENDMDL
MODEL 3
REMARK VINA RESULT:      -6.6      0.536      1.528
REMARK  Name = 
REMARK  6 active torsions:
REMARK  status: ('A' for Active; 'I' for Inactive)
REMARK    1  A    between atoms: C_2  and  C_3
REMARK    2  A    between atoms: C_6  and  C_7
REMARK    3  A    between atoms: C_7  and  S_8
REMARK    4  A    between atoms: S_8  and  C_9
REMARK    5  A    between atoms: C_9  and  C_10
REMARK    6  A    between atoms: C_9  and  C_13
REMARK                            x       y       z     vdW  Elec       q    Type
REMARK                         _______ _______ _______ _____ _____    ______ ____
ROOT
ATOM      1  C   UNL     1       5.366   5.153  17.735  0.00  0.00    +0.000 C 
ENDROOT
BRANCH   1   2
ATOM      2  C   UNL     1       5.841   4.573  19.075  0.00  0.00    +0.000 C 
ATOM      3  N   UNL     1       5.402   3.340  19.446  0.00  0.00    +0.000 N 
ATOM      4  O   UNL     1       6.537   5.216  19.862  0.00  0.00    +0.000 OA
ATOM      5  H   UNL     1       4.573   2.929  19.038  0.00  0.00    +0.000 HD
ATOM      6  H   UNL     1       5.630   3.071  20.397  0.00  0.00    +0.000 HD
ENDBRANCH   1   2
BRANCH   1   7
ATOM      7  C   UNL     1       5.911   4.468  16.455  0.00  0.00    +0.000 C 
ATOM      8  C   UNL     1       4.868   4.419  15.323  0.00  0.00    +0.000 C 
ATOM      9  C   UNL     1       5.664   4.189  14.047  0.00  0.00    +0.000 C 
ATOM     10  C   UNL     1       7.053   4.757  14.312  0.00  0.00    +0.000 C 
ATOM     11  C   UNL     1       7.068   5.211  15.774  0.00  0.00    +0.000 C 
ENDBRANCH   1   7
BRANCH   1  12
ATOM     12  S   UNL     1       3.513   5.119  17.720  0.00  0.00    +0.000 S 
BRANCH  12  13
ATOM     13  C   UNL     1       3.120   5.924  19.315  0.00  0.00    +0.000 C 
BRANCH  13  17
ATOM     14  C   UNL     1       1.097   9.734  18.949  0.00  0.00    +0.000 A 
ATOM     15  C   UNL     1       1.089   9.049  20.169  0.00  0.00    +0.000 A 
ATOM     16  C   UNL     1       1.751   7.823  20.292  0.00  0.00    +0.000 A 
ATOM     17  C   UNL     1       2.417   7.256  19.195  0.00  0.00    +0.000 A 
ATOM     18  C   UNL     1       2.443   7.965  17.985  0.00  0.00    +0.000 A 
ATOM     19  C   UNL     1       1.785   9.193  17.860  0.00  0.00    +0.000 A 
BRANCH  14  21
ATOM     20  N   UNL     1      -0.166  11.986  18.716  0.00  0.00    +0.000 NA
ATOM     21  C   UNL     1       0.399  10.980  18.819  0.00  0.00    +0.000 C 
ENDBRANCH  14  21
ENDBRANCH  13  17
ENDBRANCH  12  13
ENDBRANCH   1  12
TORSDOF 6
ENDMDL
MODEL 4
REMARK VINA RESULT:      -6.6      2.419      3.534
REMARK  Name = 
REMARK  6 active torsions:
REMARK  status: ('A' for Active; 'I' for Inactive)
REMARK    1  A    between atoms: C_2  and  C_3
REMARK    2  A    between atoms: C_6  and  C_7
REMARK    3  A    between atoms: C_7  and  S_8
REMARK    4  A    between atoms: S_8  and  C_9
REMARK    5  A    between atoms: C_9  and  C_10
REMARK    6  A    between atoms: C_9  and  C_13
REMARK                            x       y       z     vdW  Elec       q    Type
REMARK                         _______ _______ _______ _____ _____    ______ ____
ROOT
ATOM      1  C   UNL     1       4.350   4.739  16.821  0.00  0.00    +0.000 C 
ENDROOT
BRANCH   1   2
ATOM      2  C   UNL     1       5.665   4.225  16.219  0.00  0.00    +0.000 C 
ATOM      3  N   UNL     1       6.758   4.127  17.022  0.00  0.00    +0.000 N 
ATOM      4  O   UNL     1       5.788   3.977  15.019  0.00  0.00    +0.000 OA
ATOM      5  H   UNL     1       6.823   4.640  17.892  0.00  0.00    +0.000 HD
ATOM      6  H   UNL     1       7.627   3.922  16.542  0.00  0.00    +0.000 HD
ENDBRANCH   1   2
BRANCH   1   7
ATOM      7  C   UNL     1       3.530   3.723  17.659  0.00  0.00    +0.000 C 
ATOM      8  C   UNL     1       3.849   3.804  19.163  0.00  0.00    +0.000 C 
ATOM      9  C   UNL     1       2.673   3.141  19.864  0.00  0.00    +0.000 C 
ATOM     10  C   UNL     1       1.482   3.303  18.927  0.00  0.00    +0.000 C 
ATOM     11  C   UNL     1       2.015   3.964  17.652  0.00  0.00    +0.000 C 
ENDBRANCH   1   7
BRANCH   1  12
ATOM     12  S   UNL     1       4.735   6.230  17.854  0.00  0.00    +0.000 S 
BRANCH  12  13
ATOM     13  C   UNL     1       3.366   7.354  17.398  0.00  0.00    +0.000 C 
BRANCH  13  17
ATOM     14  C   UNL     1       0.902   8.616  20.726  0.00  0.00    +0.000 A 
ATOM     15  C   UNL     1       1.011   9.422  19.588  0.00  0.00    +0.000 A 
ATOM     16  C   UNL     1       1.798   9.011  18.507  0.00  0.00    +0.000 A 
ATOM     17  C   UNL     1       2.500   7.798  18.554  0.00  0.00    +0.000 A 
ATOM     18  C   UNL     1       2.361   6.984  19.688  0.00  0.00    +0.000 A 
ATOM     19  C   UNL     1       1.572   7.391  20.769  0.00  0.00    +0.000 A 
BRANCH  14  21
ATOM     20  N   UNL     1      -0.525   9.398  22.745  0.00  0.00    +0.000 NA
ATOM     21  C   UNL     1       0.113   9.050  21.842  0.00  0.00    +0.000 C 
ENDBRANCH  14  21
ENDBRANCH  13  17
ENDBRANCH  12  13
ENDBRANCH   1  12
TORSDOF 6
ENDMDL
MODEL 5
REMARK VINA RESULT:      -6.6      2.709      3.798
REMARK  Name = 
REMARK  6 active torsions:
REMARK  status: ('A' for Active; 'I' for Inactive)
REMARK    1  A    between atoms: C_2  and  C_3
REMARK    2  A    between atoms: C_6  and  C_7
REMARK    3  A    between atoms: C_7  and  S_8
REMARK    4  A    between atoms: S_8  and  C_9
REMARK    5  A    between atoms: C_9  and  C_10
REMARK    6  A    between atoms: C_9  and  C_13
REMARK                            x       y       z     vdW  Elec       q    Type
REMARK                         _______ _______ _______ _____ _____    ______ ____
ROOT
ATOM      1  C   UNL     1       6.329   4.732  16.114  0.00  0.00    +0.000 C 
ENDROOT
BRANCH   1   2
ATOM      2  C   UNL     1       6.758   4.555  14.651  0.00  0.00    +0.000 C 
ATOM      3  N   UNL     1       7.659   5.428  14.124  0.00  0.00    +0.000 N 
ATOM      4  O   UNL     1       6.257   3.705  13.914  0.00  0.00    +0.000 OA
ATOM      5  H   UNL     1       7.827   6.333  14.545  0.00  0.00    +0.000 HD
ATOM      6  H   UNL     1       7.795   5.352  13.122  0.00  0.00    +0.000 HD
ENDBRANCH   1   2
BRANCH   1   7
ATOM      7  C   UNL     1       7.409   5.261  17.093  0.00  0.00    +0.000 C 
ATOM      8  C   UNL     1       7.314   6.782  17.311  0.00  0.00    +0.000 C 
ATOM      9  C   UNL     1       8.069   7.055  18.603  0.00  0.00    +0.000 C 
ATOM     10  C   UNL     1       7.992   5.767  19.413  0.00  0.00    +0.000 C 
ATOM     11  C   UNL     1       7.284   4.736  18.529  0.00  0.00    +0.000 C 
ENDBRANCH   1   7
BRANCH   1  12
ATOM     12  S   UNL     1       4.854   5.854  16.148  0.00  0.00    +0.000 S 
BRANCH  12  13
ATOM     13  C   UNL     1       3.738   4.958  17.288  0.00  0.00    +0.000 C 
BRANCH  13  17
ATOM     14  C   UNL     1       1.779   7.457  20.230  0.00  0.00    +0.000 A 
ATOM     15  C   UNL     1       2.008   6.103  20.499  0.00  0.00    +0.000 A 
ATOM     16  C   UNL     1       2.650   5.296  19.554  0.00  0.00    +0.000 A 
ATOM     17  C   UNL     1       3.059   5.826  18.321  0.00  0.00    +0.000 A 
ATOM     18  C   UNL     1       2.849   7.191  18.073  0.00  0.00    +0.000 A 
ATOM     19  C   UNL     1       2.210   8.000  19.018  0.00  0.00    +0.000 A 
BRANCH  14  21
ATOM     20  N   UNL     1       0.551   8.936  21.969  0.00  0.00    +0.000 NA
ATOM     21  C   UNL     1       1.100   8.276  21.191  0.00  0.00    +0.000 C 
ENDBRANCH  14  21
ENDBRANCH  13  17
ENDBRANCH  12  13
ENDBRANCH   1  12
TORSDOF 6
ENDMDL
MODEL 6
REMARK VINA RESULT:      -6.6      3.044      5.714
REMARK  Name = 
REMARK  6 active torsions:
REMARK  status: ('A' for Active; 'I' for Inactive)
REMARK    1  A    between atoms: C_2  and  C_3
REMARK    2  A    between atoms: C_6  and  C_7
REMARK    3  A    between atoms: C_7  and  S_8
REMARK    4  A    between atoms: S_8  and  C_9
REMARK    5  A    between atoms: C_9  and  C_10
REMARK    6  A    between atoms: C_9  and  C_13
REMARK                            x       y       z     vdW  Elec       q    Type
REMARK                         _______ _______ _______ _____ _____    ______ ____
ROOT
ATOM      1  C   UNL     1       3.160   3.624  18.632  0.00  0.00    +0.000 C 
ENDROOT
BRANCH   1   2
ATOM      2  C   UNL     1       4.171   2.583  19.136  0.00  0.00    +0.000 C 
ATOM      3  N   UNL     1       4.084   1.308  18.671  0.00  0.00    +0.000 N 
ATOM      4  O   UNL     1       5.005   2.841  20.004  0.00  0.00    +0.000 OA
ATOM      5  H   UNL     1       3.232   0.955  18.255  0.00  0.00    +0.000 HD
ATOM      6  H   UNL     1       4.680   0.637  19.143  0.00  0.00    +0.000 HD
ENDBRANCH   1   2
BRANCH   1   7
ATOM      7  C   UNL     1       3.109   4.967  19.405  0.00  0.00    +0.000 C 
ATOM      8  C   UNL     1       2.748   6.157  18.497  0.00  0.00    +0.000 C 
ATOM      9  C   UNL     1       2.270   7.255  19.436  0.00  0.00    +0.000 C 
ATOM     10  C   UNL     1       1.734   6.543  20.672  0.00  0.00    +0.000 C 
ATOM     11  C   UNL     1       2.009   5.050  20.472  0.00  0.00    +0.000 C 
ENDBRANCH   1   7
BRANCH   1  12
ATOM     12  S   UNL     1       3.515   3.948  16.842  0.00  0.00    +0.000 S 
BRANCH  12  13
ATOM     13  C   UNL     1       5.339   3.817  16.801  0.00  0.00    +0.000 C 
BRANCH  13  17
ATOM     14  C   UNL     1       7.465   7.445  17.828  0.00  0.00    +0.000 A 
ATOM     15  C   UNL     1       6.420   7.482  16.898  0.00  0.00    +0.000 A 
ATOM     16  C   UNL     1       5.725   6.313  16.573  0.00  0.00    +0.000 A 
ATOM     17  C   UNL     1       6.073   5.087  17.159  0.00  0.00    +0.000 A 
ATOM     18  C   UNL     1       7.103   5.066  18.111  0.00  0.00    +0.000 A 
ATOM     19  C   UNL     1       7.797   6.235  18.441  0.00  0.00    +0.000 A 
BRANCH  14  21
ATOM     20  N   UNL     1       8.774   9.608  18.400  0.00  0.00    +0.000 NA
ATOM     21  C   UNL     1       8.190   8.641  18.144  0.00  0.00    +0.000 C 
ENDBRANCH  14  21
ENDBRANCH  13  17
ENDBRANCH  12  13
ENDBRANCH   1  12
TORSDOF 6
ENDMDL
MODEL 7
REMARK VINA RESULT:      -6.5      2.078      3.739
REMARK  Name = 
REMARK  6 active torsions:
REMARK  status: ('A' for Active; 'I' for Inactive)
REMARK    1  A    between atoms: C_2  and  C_3
REMARK    2  A    between atoms: C_6  and  C_7
REMARK    3  A    between atoms: C_7  and  S_8
REMARK    4  A    between atoms: S_8  and  C_9
REMARK    5  A    between atoms: C_9  and  C_10
REMARK    6  A    between atoms: C_9  and  C_13
REMARK                            x       y       z     vdW  Elec       q    Type
REMARK                         _______ _______ _______ _____ _____    ______ ____
ROOT
ATOM      1  C   UNL     1       4.059   3.947  18.718  0.00  0.00    +0.000 C 
ENDROOT
BRANCH   1   2
ATOM      2  C   UNL     1       5.466   4.537  18.895  0.00  0.00    +0.000 C 
ATOM      3  N   UNL     1       6.468   4.091  18.092  0.00  0.00    +0.000 N 
ATOM      4  O   UNL     1       5.736   5.339  19.791  0.00  0.00    +0.000 OA
ATOM      5  H   UNL     1       6.401   3.207  17.604  0.00  0.00    +0.000 HD
ATOM      6  H   UNL     1       7.397   4.407  18.349  0.00  0.00    +0.000 HD
ENDBRANCH   1   2
BRANCH   1   7
ATOM      7  C   UNL     1       3.177   3.868  19.990  0.00  0.00    +0.000 C 
ATOM      8  C   UNL     1       1.672   3.832  19.665  0.00  0.00    +0.000 C 
ATOM      9  C   UNL     1       1.000   3.278  20.912  0.00  0.00    +0.000 C 
ATOM     10  C   UNL     1       2.051   2.421  21.608  0.00  0.00    +0.000 C 
ATOM     11  C   UNL     1       3.346   2.580  20.807  0.00  0.00    +0.000 C 
ENDBRANCH   1   7
BRANCH   1  12
ATOM     12  S   UNL     1       3.184   4.933  17.413  0.00  0.00    +0.000 S 
BRANCH  12  13
ATOM     13  C   UNL     1       3.812   6.619  17.747  0.00  0.00    +0.000 C 
BRANCH  13  17
ATOM     14  C   UNL     1       0.952   9.296  19.588  0.00  0.00    +0.000 A 
ATOM     15  C   UNL     1       1.355   9.501  18.264  0.00  0.00    +0.000 A 
ATOM     16  C   UNL     1       2.271   8.631  17.664  0.00  0.00    +0.000 A 
ATOM     17  C   UNL     1       2.810   7.553  18.382  0.00  0.00    +0.000 A 
ATOM     18  C   UNL     1       2.377   7.340  19.699  0.00  0.00    +0.000 A 
ATOM     19  C   UNL     1       1.459   8.206  20.300  0.00  0.00    +0.000 A 
BRANCH  14  21
ATOM     20  N   UNL     1      -0.717  10.933  20.709  0.00  0.00    +0.000 NA
ATOM     21  C   UNL     1       0.030  10.202  20.208  0.00  0.00    +0.000 C 
ENDBRANCH  14  21
ENDBRANCH  13  17
ENDBRANCH  12  13
ENDBRANCH   1  12
TORSDOF 6
ENDMDL
MODEL 8
REMARK VINA RESULT:      -6.5      1.591      2.122
REMARK  Name = 
REMARK  6 active torsions:
REMARK  status: ('A' for Active; 'I' for Inactive)
REMARK    1  A    between atoms: C_2  and  C_3
REMARK    2  A    between atoms: C_6  and  C_7
REMARK    3  A    between atoms: C_7  and  S_8
REMARK    4  A    between atoms: S_8  and  C_9
REMARK    5  A    between atoms: C_9  and  C_10
REMARK    6  A    between atoms: C_9  and  C_13
REMARK                            x       y       z     vdW  Elec       q    Type
REMARK                         _______ _______ _______ _____ _____    ______ ____
ROOT
ATOM      1  C   UNL     1       4.407   3.936  18.578  0.00  0.00    +0.000 C 
ENDROOT
BRANCH   1   2
ATOM      2  C   UNL     1       4.105   2.521  19.091  0.00  0.00    +0.000 C 
ATOM      3  N   UNL     1       4.997   1.925  19.926  0.00  0.00    +0.000 N 
ATOM      4  O   UNL     1       3.128   1.876  18.709  0.00  0.00    +0.000 OA
ATOM      5  H   UNL     1       5.958   2.238  19.985  0.00  0.00    +0.000 HD
ATOM      6  H   UNL     1       4.820   0.944  20.116  0.00  0.00    +0.000 HD
ENDBRANCH   1   2
BRANCH   1   7
ATOM      7  C   UNL     1       5.196   4.035  17.246  0.00  0.00    +0.000 C 
ATOM      8  C   UNL     1       4.655   5.140  16.320  0.00  0.00    +0.000 C 
ATOM      9  C   UNL     1       5.779   5.432  15.337  0.00  0.00    +0.000 C 
ATOM     10  C   UNL     1       7.070   5.058  16.054  0.00  0.00    +0.000 C 
ATOM     11  C   UNL     1       6.664   4.456  17.402  0.00  0.00    +0.000 C 
ENDBRANCH   1   7
BRANCH   1  12
ATOM     12  S   UNL     1       2.798   4.843  18.417  0.00  0.00    +0.000 S 
BRANCH  12  13
ATOM     13  C   UNL     1       2.928   6.061  19.776  0.00  0.00    +0.000 C 
BRANCH  13  17
ATOM     14  C   UNL     1       0.905   9.813  19.017  0.00  0.00    +0.000 A 
ATOM     15  C   UNL     1       0.892   9.254  20.300  0.00  0.00    +0.000 A 
ATOM     16  C   UNL     1       1.554   8.048  20.550  0.00  0.00    +0.000 A 
ATOM     17  C   UNL     1       2.225   7.373  19.519  0.00  0.00    +0.000 A 
ATOM     18  C   UNL     1       2.256   7.956  18.243  0.00  0.00    +0.000 A 
ATOM     19  C   UNL     1       1.598   9.164  17.992  0.00  0.00    +0.000 A 
BRANCH  14  21
ATOM     20  N   UNL     1      -0.357  12.029  18.551  0.00  0.00    +0.000 NA
ATOM     21  C   UNL     1       0.207  11.038  18.758  0.00  0.00    +0.000 C 
ENDBRANCH  14  21
ENDBRANCH  13  17
ENDBRANCH  12  13
ENDBRANCH   1  12
TORSDOF 6
ENDMDL
MODEL 9
REMARK VINA RESULT:      -6.5      1.588      1.730
REMARK  Name = 
REMARK  6 active torsions:
REMARK  status: ('A' for Active; 'I' for Inactive)
REMARK    1  A    between atoms: C_2  and  C_3
REMARK    2  A    between atoms: C_6  and  C_7
REMARK    3  A    between atoms: C_7  and  S_8
REMARK    4  A    between atoms: S_8  and  C_9
REMARK    5  A    between atoms: C_9  and  C_10
REMARK    6  A    between atoms: C_9  and  C_13
REMARK                            x       y       z     vdW  Elec       q    Type
REMARK                         _______ _______ _______ _____ _____    ______ ____
ROOT
ATOM      1  C   UNL     1       3.910   4.127  18.422  0.00  0.00    +0.000 C 
ENDROOT
BRANCH   1   2
ATOM      2  C   UNL     1       4.016   2.640  18.788  0.00  0.00    +0.000 C 
ATOM      3  N   UNL     1       5.025   2.239  19.608  0.00  0.00    +0.000 N 
ATOM      4  O   UNL     1       3.273   1.787  18.303  0.00  0.00    +0.000 OA
ATOM      5  H   UNL     1       5.854   2.804  19.742  0.00  0.00    +0.000 HD
ATOM      6  H   UNL     1       5.131   1.235  19.698  0.00  0.00    +0.000 HD
ENDBRANCH   1   2
BRANCH   1   7
ATOM      7  C   UNL     1       4.195   4.498  16.944  0.00  0.00    +0.000 C 
ATOM      8  C   UNL     1       4.692   5.946  16.783  0.00  0.00    +0.000 C 
ATOM      9  C   UNL     1       5.369   5.995  15.421  0.00  0.00    +0.000 C 
ATOM     10  C   UNL     1       5.844   4.575  15.139  0.00  0.00    +0.000 C 
ATOM     11  C   UNL     1       5.340   3.707  16.296  0.00  0.00    +0.000 C 
ENDBRANCH   1   7
BRANCH   1  12
ATOM     12  S   UNL     1       2.216   4.714  18.895  0.00  0.00    +0.000 S 
BRANCH  12  13
ATOM     13  C   UNL     1       2.609   6.019  20.117  0.00  0.00    +0.000 C 
BRANCH  13  17
ATOM     14  C   UNL     1       1.068   9.951  19.163  0.00  0.00    +0.000 A 
ATOM     15  C   UNL     1       1.749   9.208  18.192  0.00  0.00    +0.000 A 
ATOM     16  C   UNL     1       2.238   7.933  18.495  0.00  0.00    +0.000 A 
ATOM     17  C   UNL     1       2.069   7.388  19.776  0.00  0.00    +0.000 A 
ATOM     18  C   UNL     1       1.361   8.129  20.733  0.00  0.00    +0.000 A 
ATOM     19  C   UNL     1       0.867   9.402  20.432  0.00  0.00    +0.000 A 
BRANCH  14  21
ATOM     20  N   UNL     1       0.201  12.330  18.610  0.00  0.00    +0.000 NA
ATOM     21  C   UNL     1       0.587  11.267  18.857  0.00  0.00    +0.000 C 
ENDBRANCH  14  21
ENDBRANCH  13  17
ENDBRANCH  12  13
ENDBRANCH   1  12
TORSDOF 6
ENDMDL
