MODEL 1
REMARK VINA RESULT:      -7.5      0.000      0.000
REMARK  Name = 
REMARK  12 active torsions:
REMARK  status: ('A' for Active; 'I' for Inactive)
REMARK    1  A    between atoms: C_1  and  C_2
REMARK    2  A    between atoms: C_2  and  C_3
REMARK    3  A    between atoms: C_3  and  C_4
REMARK    4  A    between atoms: C_4  and  C_5
REMARK    5  A    between atoms: C_4  and  N_14
REMARK    6  A    between atoms: N_7  and  C_8
REMARK    7  A    between atoms: C_8  and  C_9
REMARK    8  A    between atoms: N_14  and  C_28
REMARK    9  A    between atoms: C_15  and  C_17
REMARK   10  A    between atoms: C_17  and  N_18
REMARK   11  A    between atoms: N_18  and  S_19
REMARK   12  A    between atoms: S_19  and  C_22
REMARK                            x       y       z     vdW  Elec       q    Type
REMARK                         _______ _______ _______ _____ _____    ______ ____
ROOT
ATOM      1  N   UNL     1       5.389   5.493  16.747  0.00  0.00    +0.000 N 
ATOM      2  C   UNL     1       4.507   6.581  16.819  0.00  0.00    +0.000 C 
ATOM      3  O   UNL     1       4.319   7.280  15.823  0.00  0.00    +0.000 OA
ENDROOT
BRANCH   1   4
ATOM      4  C   UNL     1       5.798   5.123  15.406  0.00  0.00    +0.000 A 
ATOM      5  C   UNL     1       4.973   4.353  14.580  0.00  0.00    +0.000 A 
ATOM      6  C   UNL     1       5.457   3.879  13.350  0.00  0.00    +0.000 A 
ATOM      7  C   UNL     1       6.746   4.210  12.932  0.00  0.00    +0.000 A 
ATOM      8  F   UNL     1       7.195   3.750  11.755  0.00  0.00    +0.000 F 
ATOM      9  C   UNL     1       7.573   4.986  13.722  0.00  0.00    +0.000 A 
ATOM     10  C   UNL     1       7.102   5.429  14.960  0.00  0.00    +0.000 A 
ENDBRANCH   1   4
BRANCH   1  11
ATOM     11  C   UNL     1       5.908   4.627  17.874  0.00  0.00    +0.000 C 
BRANCH  11  12
ATOM     12  C   UNL     1       4.890   3.532  18.291  0.00  0.00    +0.000 C 
ATOM     13  O   UNL     1       4.002   3.153  17.528  0.00  0.00    +0.000 OA
ATOM     14  N   UNL     1       5.045   2.983  19.540  0.00  0.00    +0.000 N 
ATOM     15  H   UNL     1       5.646   3.458  20.199  0.00  0.00    +0.000 HD
BRANCH  14  16
ATOM     16  C   UNL     1       4.072   2.059  20.106  0.00  0.00    +0.000 C 
BRANCH  16  17
ATOM     17  C   UNL     1       2.830   2.739  20.705  0.00  0.00    +0.000 C 
ATOM     18  C   UNL     1       1.546   2.657  19.896  0.00  0.00    +0.000 C 
ATOM     19  C   UNL     1       0.774   3.848  20.403  0.00  0.00    +0.000 C 
ATOM     20  C   UNL     1       1.869   4.863  20.650  0.00  0.00    +0.000 C 
ATOM     21  O   UNL     1       3.080   4.142  20.925  0.00  0.00    +0.000 OA
ENDBRANCH  16  17
ENDBRANCH  14  16
ENDBRANCH  11  12
BRANCH  11  22
ATOM     22  C   UNL     1       6.407   5.397  19.122  0.00  0.00    +0.000 C 
BRANCH  22  24
ATOM     23  C   UNL     1       7.953   7.229  18.220  0.00  0.00    +0.000 C 
ATOM     24  C   UNL     1       7.816   6.004  19.096  0.00  0.00    +0.000 C 
ENDBRANCH  22  24
ENDBRANCH  11  22
ENDBRANCH   1  11
BRANCH   2  25
ATOM     25  C   UNL     1       3.818   6.936  18.120  0.00  0.00    +0.000 C 
BRANCH  25  26
ATOM     26  N   UNL     1       2.382   7.250  18.143  0.00  0.00    +0.000 NA
ATOM     27  H   UNL     1       1.824   6.743  18.830  0.00  0.00    +0.000 HD
BRANCH  26  28
ATOM     28  S   UNL     1       1.852   8.846  18.060  0.00  0.00    +0.000 S 
ATOM     29  O   UNL     1       3.066   9.634  17.975  0.00  0.00    +0.000 OA
ATOM     30  O   UNL     1       0.838   8.929  17.034  0.00  0.00    +0.000 OA
BRANCH  28  31
ATOM     31  C   UNL     1       1.170   9.138  19.666  0.00  0.00    +0.000 A 
ATOM     32  C   UNL     1       0.359  10.261  19.865  0.00  0.00    +0.000 A 
ATOM     33  C   UNL     1      -0.070  10.574  21.155  0.00  0.00    +0.000 A 
ATOM     34  C   UNL     1       0.319   9.778  22.233  0.00  0.00    +0.000 A 
ATOM     35  C   UNL     1       1.115   8.649  22.026  0.00  0.00    +0.000 A 
ATOM     36  C   UNL     1       1.516   8.308  20.736  0.00  0.00    +0.000 A 
ENDBRANCH  28  31
ENDBRANCH  26  28
ENDBRANCH  25  26
ENDBRANCH   2  25
TORSDOF 11
ENDMDL
MODEL 2
REMARK VINA RESULT:      -7.4      2.390      4.890
REMARK  Name = 
REMARK  12 active torsions:
REMARK  status: ('A' for Active; 'I' for Inactive)
REMARK    1  A    between atoms: C_1  and  C_2
REMARK    2  A    between atoms: C_2  and  C_3
REMARK    3  A    between atoms: C_3  and  C_4
REMARK    4  A    between atoms: C_4  and  C_5
REMARK    5  A    between atoms: C_4  and  N_14
REMARK    6  A    between atoms: N_7  and  C_8
REMARK    7  A    between atoms: C_8  and  C_9
REMARK    8  A    between atoms: N_14  and  C_28
REMARK    9  A    between atoms: C_15  and  C_17
REMARK   10  A    between atoms: C_17  and  N_18
REMARK   11  A    between atoms: N_18  and  S_19
REMARK   12  A    between atoms: S_19  and  C_22
REMARK                            x       y       z     vdW  Elec       q    Type
REMARK                         _______ _______ _______ _____ _____    ______ ____
ROOT
ATOM      1  N   UNL     1       4.347   5.634  17.670  0.00  0.00    +0.000 N 
ATOM      2  C   UNL     1       3.166   6.379  17.803  0.00  0.00    +0.000 C 
ATOM      3  O   UNL     1       2.088   5.796  17.918  0.00  0.00    +0.000 OA
ENDROOT
BRANCH   1   4
ATOM      4  C   UNL     1       4.216   4.219  17.959  0.00  0.00    +0.000 A 
ATOM      5  C   UNL     1       3.632   3.340  17.041  0.00  0.00    +0.000 A 
ATOM      6  C   UNL     1       3.378   2.009  17.409  0.00  0.00    +0.000 A 
ATOM      7  C   UNL     1       3.742   1.552  18.674  0.00  0.00    +0.000 A 
ATOM      8  F   UNL     1       3.493   0.278  19.012  0.00  0.00    +0.000 F 
ATOM      9  C   UNL     1       4.338   2.396  19.593  0.00  0.00    +0.000 A 
ATOM     10  C   UNL     1       4.561   3.729  19.237  0.00  0.00    +0.000 A 
ENDBRANCH   1   4
BRANCH   1  11
ATOM     11  C   UNL     1       5.737   6.128  17.333  0.00  0.00    +0.000 C 
BRANCH  11  12
ATOM     12  C   UNL     1       6.428   5.249  16.256  0.00  0.00    +0.000 C 
ATOM     13  O   UNL     1       7.171   4.318  16.564  0.00  0.00    +0.000 OA
ATOM     14  N   UNL     1       6.147   5.540  14.944  0.00  0.00    +0.000 N 
ATOM     15  H   UNL     1       5.705   6.423  14.734  0.00  0.00    +0.000 HD
BRANCH  14  16
ATOM     16  C   UNL     1       6.843   4.891  13.841  0.00  0.00    +0.000 C 
BRANCH  16  17
ATOM     17  C   UNL     1       6.123   3.655  13.279  0.00  0.00    +0.000 C 
ATOM     18  C   UNL     1       6.755   2.982  12.072  0.00  0.00    +0.000 C 
ATOM     19  C   UNL     1       5.578   2.274  11.450  0.00  0.00    +0.000 C 
ATOM     20  C   UNL     1       4.442   3.237  11.716  0.00  0.00    +0.000 C 
ATOM     21  O   UNL     1       4.773   3.989  12.894  0.00  0.00    +0.000 OA
ENDBRANCH  16  17
ENDBRANCH  14  16
ENDBRANCH  11  12
BRANCH  11  22
ATOM     22  C   UNL     1       6.679   6.328  18.547  0.00  0.00    +0.000 C 
BRANCH  22  24
ATOM     23  C   UNL     1       7.788   8.448  17.635  0.00  0.00    +0.000 C 
ATOM     24  C   UNL     1       7.972   7.128  18.350  0.00  0.00    +0.000 C 
ENDBRANCH  22  24
ENDBRANCH  11  22
ENDBRANCH   1  11
BRANCH   2  25
ATOM     25  C   UNL     1       3.195   7.893  17.759  0.00  0.00    +0.000 C 
BRANCH  25  26
ATOM     26  N   UNL     1       2.583   8.682  18.837  0.00  0.00    +0.000 NA
ATOM     27  H   UNL     1       3.229   9.107  19.503  0.00  0.00    +0.000 HD
BRANCH  26  28
ATOM     28  S   UNL     1       1.332   9.760  18.506  0.00  0.00    +0.000 S 
ATOM     29  O   UNL     1       1.993  11.023  18.247  0.00  0.00    +0.000 OA
ATOM     30  O   UNL     1       0.469   9.155  17.517  0.00  0.00    +0.000 OA
BRANCH  28  31
ATOM     31  C   UNL     1       0.509   9.928  20.063  0.00  0.00    +0.000 A 
ATOM     32  C   UNL     1      -0.268  11.068  20.300  0.00  0.00    +0.000 A 
ATOM     33  C   UNL     1      -0.807  11.274  21.570  0.00  0.00    +0.000 A 
ATOM     34  C   UNL     1      -0.559  10.357  22.592  0.00  0.00    +0.000 A 
ATOM     35  C   UNL     1       0.203   9.214  22.345  0.00  0.00    +0.000 A 
ATOM     36  C   UNL     1       0.714   8.981  21.070  0.00  0.00    +0.000 A 
ENDBRANCH  28  31
ENDBRANCH  26  28
ENDBRANCH  25  26
ENDBRANCH   2  25
TORSDOF 11
ENDMDL
MODEL 3
REMARK VINA RESULT:      -7.4      2.708      5.308
REMARK  Name = 
REMARK  12 active torsions:
REMARK  status: ('A' for Active; 'I' for Inactive)
REMARK    1  A    between atoms: C_1  and  C_2
REMARK    2  A    between atoms: C_2  and  C_3
REMARK    3  A    between atoms: C_3  and  C_4
REMARK    4  A    between atoms: C_4  and  C_5
REMARK    5  A    between atoms: C_4  and  N_14
REMARK    6  A    between atoms: N_7  and  C_8
REMARK    7  A    between atoms: C_8  and  C_9
REMARK    8  A    between atoms: N_14  and  C_28
REMARK    9  A    between atoms: C_15  and  C_17
REMARK   10  A    between atoms: C_17  and  N_18
REMARK   11  A    between atoms: N_18  and  S_19
REMARK   12  A    between atoms: S_19  and  C_22
REMARK                            x       y       z     vdW  Elec       q    Type
REMARK                         _______ _______ _______ _____ _____    ______ ____
ROOT
ATOM      1  N   UNL     1       3.855   6.069  17.751  0.00  0.00    +0.000 N 
ATOM      2  C   UNL     1       2.751   6.931  17.801  0.00  0.00    +0.000 C 
ATOM      3  O   UNL     1       1.616   6.464  17.895  0.00  0.00    +0.000 OA
ENDROOT
BRANCH   1   4
ATOM      4  C   UNL     1       3.572   4.689  18.095  0.00  0.00    +0.000 A 
ATOM      5  C   UNL     1       3.527   4.265  19.427  0.00  0.00    +0.000 A 
ATOM      6  C   UNL     1       3.405   2.899  19.725  0.00  0.00    +0.000 A 
ATOM      7  C   UNL     1       3.289   1.966  18.694  0.00  0.00    +0.000 A 
ATOM      8  F   UNL     1       3.173   0.664  18.993  0.00  0.00    +0.000 F 
ATOM      9  C   UNL     1       3.310   2.362  17.369  0.00  0.00    +0.000 A 
ATOM     10  C   UNL     1       3.464   3.719  17.074  0.00  0.00    +0.000 A 
ENDBRANCH   1   4
BRANCH   1  11
ATOM     11  C   UNL     1       5.300   6.406  17.451  0.00  0.00    +0.000 C 
BRANCH  11  12
ATOM     12  C   UNL     1       5.611   6.366  15.932  0.00  0.00    +0.000 C 
ATOM     13  O   UNL     1       5.008   7.080  15.131  0.00  0.00    +0.000 OA
ATOM     14  N   UNL     1       6.612   5.518  15.525  0.00  0.00    +0.000 N 
ATOM     15  H   UNL     1       6.933   4.813  16.173  0.00  0.00    +0.000 HD
BRANCH  14  16
ATOM     16  C   UNL     1       6.898   5.277  14.118  0.00  0.00    +0.000 C 
BRANCH  16  17
ATOM     17  C   UNL     1       6.326   3.958  13.574  0.00  0.00    +0.000 C 
ATOM     18  C   UNL     1       6.910   3.443  12.269  0.00  0.00    +0.000 C 
ATOM     19  C   UNL     1       5.798   2.571  11.744  0.00  0.00    +0.000 C 
ATOM     20  C   UNL     1       4.561   3.321  12.187  0.00  0.00    +0.000 C 
ATOM     21  O   UNL     1       4.904   4.076  13.361  0.00  0.00    +0.000 OA
ENDBRANCH  16  17
ENDBRANCH  14  16
ENDBRANCH  11  12
BRANCH  11  22
ATOM     22  C   UNL     1       6.347   5.577  18.236  0.00  0.00    +0.000 C 
BRANCH  22  24
ATOM     23  C   UNL     1       8.287   5.727  19.900  0.00  0.00    +0.000 C 
ATOM     24  C   UNL     1       7.676   6.241  18.616  0.00  0.00    +0.000 C 
ENDBRANCH  22  24
ENDBRANCH  11  22
ENDBRANCH   1  11
BRANCH   2  25
ATOM     25  C   UNL     1       2.933   8.431  17.693  0.00  0.00    +0.000 C 
BRANCH  25  26
ATOM     26  N   UNL     1       1.773   9.311  17.492  0.00  0.00    +0.000 NA
ATOM     27  H   UNL     1       0.987   8.907  16.982  0.00  0.00    +0.000 HD
BRANCH  26  28
ATOM     28  S   UNL     1       1.190  10.263  18.754  0.00  0.00    +0.000 S 
ATOM     29  O   UNL     1       1.177   9.382  19.904  0.00  0.00    +0.000 OA
ATOM     30  O   UNL     1       1.944  11.496  18.769  0.00  0.00    +0.000 OA
BRANCH  28  31
ATOM     31  C   UNL     1      -0.499  10.545  18.312  0.00  0.00    +0.000 A 
ATOM     32  C   UNL     1      -1.212  11.557  18.965  0.00  0.00    +0.000 A 
ATOM     33  C   UNL     1      -2.579  11.696  18.722  0.00  0.00    +0.000 A 
ATOM     34  C   UNL     1      -3.225  10.823  17.845  0.00  0.00    +0.000 A 
ATOM     35  C   UNL     1      -2.505   9.826  17.184  0.00  0.00    +0.000 A 
ATOM     36  C   UNL     1      -1.133   9.705  17.392  0.00  0.00    +0.000 A 
ENDBRANCH  28  31
ENDBRANCH  26  28
ENDBRANCH  25  26
ENDBRANCH   2  25
TORSDOF 11
ENDMDL
MODEL 4
REMARK VINA RESULT:      -7.3      2.859      5.253
REMARK  Name = 
REMARK  12 active torsions:
REMARK  status: ('A' for Active; 'I' for Inactive)
REMARK    1  A    between atoms: C_1  and  C_2
REMARK    2  A    between atoms: C_2  and  C_3
REMARK    3  A    between atoms: C_3  and  C_4
REMARK    4  A    between atoms: C_4  and  C_5
REMARK    5  A    between atoms: C_4  and  N_14
REMARK    6  A    between atoms: N_7  and  C_8
REMARK    7  A    between atoms: C_8  and  C_9
REMARK    8  A    between atoms: N_14  and  C_28
REMARK    9  A    between atoms: C_15  and  C_17
REMARK   10  A    between atoms: C_17  and  N_18
REMARK   11  A    between atoms: N_18  and  S_19
REMARK   12  A    between atoms: S_19  and  C_22
REMARK                            x       y       z     vdW  Elec       q    Type
REMARK                         _______ _______ _______ _____ _____    ______ ____
ROOT
ATOM      1  N   UNL     1       4.004   6.267  17.520  0.00  0.00    +0.000 N 
ATOM      2  C   UNL     1       2.860   7.028  17.802  0.00  0.00    +0.000 C 
ATOM      3  O   UNL     1       1.822   6.464  18.147  0.00  0.00    +0.000 OA
ENDROOT
BRANCH   1   4
ATOM      4  C   UNL     1       3.933   4.879  17.932  0.00  0.00    +0.000 A 
ATOM      5  C   UNL     1       4.485   4.450  19.143  0.00  0.00    +0.000 A 
ATOM      6  C   UNL     1       4.539   3.079  19.443  0.00  0.00    +0.000 A 
ATOM      7  C   UNL     1       4.006   2.147  18.553  0.00  0.00    +0.000 A 
ATOM      8  F   UNL     1       4.065   0.841  18.853  0.00  0.00    +0.000 F 
ATOM      9  C   UNL     1       3.437   2.548  17.359  0.00  0.00    +0.000 A 
ATOM     10  C   UNL     1       3.414   3.910  17.046  0.00  0.00    +0.000 A 
ENDBRANCH   1   4
BRANCH   1  11
ATOM     11  C   UNL     1       5.311   6.724  16.909  0.00  0.00    +0.000 C 
BRANCH  11  12
ATOM     12  C   UNL     1       6.063   5.568  16.197  0.00  0.00    +0.000 C 
ATOM     13  O   UNL     1       6.611   4.668  16.832  0.00  0.00    +0.000 OA
ATOM     14  N   UNL     1       6.062   5.580  14.824  0.00  0.00    +0.000 N 
ATOM     15  H   UNL     1       5.783   6.429  14.354  0.00  0.00    +0.000 HD
BRANCH  14  16
ATOM     16  C   UNL     1       6.853   4.641  14.041  0.00  0.00    +0.000 C 
BRANCH  16  17
ATOM     17  C   UNL     1       6.030   3.536  13.360  0.00  0.00    +0.000 C 
ATOM     18  C   UNL     1       6.625   2.909  12.109  0.00  0.00    +0.000 C 
ATOM     19  C   UNL     1       5.402   2.379  11.406  0.00  0.00    +0.000 C 
ATOM     20  C   UNL     1       4.359   3.424  11.736  0.00  0.00    +0.000 C 
ATOM     21  O   UNL     1       4.730   4.035  12.982  0.00  0.00    +0.000 OA
ENDBRANCH  16  17
ENDBRANCH  14  16
ENDBRANCH  11  12
BRANCH  11  22
ATOM     22  C   UNL     1       6.265   7.470  17.875  0.00  0.00    +0.000 C 
BRANCH  22  24
ATOM     23  C   UNL     1       8.317   8.980  18.136  0.00  0.00    +0.000 C 
ATOM     24  C   UNL     1       7.669   7.841  17.381  0.00  0.00    +0.000 C 
ENDBRANCH  22  24
ENDBRANCH  11  22
ENDBRANCH   1  11
BRANCH   2  25
ATOM     25  C   UNL     1       2.872   8.535  17.641  0.00  0.00    +0.000 C 
BRANCH  25  26
ATOM     26  N   UNL     1       1.614   9.280  17.498  0.00  0.00    +0.000 NA
ATOM     27  H   UNL     1       0.813   8.745  17.161  0.00  0.00    +0.000 HD
BRANCH  26  28
ATOM     28  S   UNL     1       1.108  10.347  18.699  0.00  0.00    +0.000 S 
ATOM     29  O   UNL     1       1.124   9.564  19.918  0.00  0.00    +0.000 OA
ATOM     30  O   UNL     1       1.890  11.557  18.581  0.00  0.00    +0.000 OA
BRANCH  28  31
ATOM     31  C   UNL     1      -0.592  10.637  18.304  0.00  0.00    +0.000 A 
ATOM     32  C   UNL     1      -1.293  11.622  19.008  0.00  0.00    +0.000 A 
ATOM     33  C   UNL     1      -2.666  11.764  18.801  0.00  0.00    +0.000 A 
ATOM     34  C   UNL     1      -3.328  10.919  17.908  0.00  0.00    +0.000 A 
ATOM     35  C   UNL     1      -2.620   9.949  17.197  0.00  0.00    +0.000 A 
ATOM     36  C   UNL     1      -1.243   9.826  17.370  0.00  0.00    +0.000 A 
ENDBRANCH  28  31
ENDBRANCH  26  28
ENDBRANCH  25  26
ENDBRANCH   2  25
TORSDOF 11
ENDMDL
MODEL 5
REMARK VINA RESULT:      -7.2      3.111      7.851
REMARK  Name = 
REMARK  12 active torsions:
REMARK  status: ('A' for Active; 'I' for Inactive)
REMARK    1  A    between atoms: C_1  and  C_2
REMARK    2  A    between atoms: C_2  and  C_3
REMARK    3  A    between atoms: C_3  and  C_4
REMARK    4  A    between atoms: C_4  and  C_5
REMARK    5  A    between atoms: C_4  and  N_14
REMARK    6  A    between atoms: N_7  and  C_8
REMARK    7  A    between atoms: C_8  and  C_9
REMARK    8  A    between atoms: N_14  and  C_28
REMARK    9  A    between atoms: C_15  and  C_17
REMARK   10  A    between atoms: C_17  and  N_18
REMARK   11  A    between atoms: N_18  and  S_19
REMARK   12  A    between atoms: S_19  and  C_22
REMARK                            x       y       z     vdW  Elec       q    Type
REMARK                         _______ _______ _______ _____ _____    ______ ____
ROOT
ATOM      1  N   UNL     1       4.010   5.587  18.933  0.00  0.00    +0.000 N 
ATOM      2  C   UNL     1       5.385   5.857  18.878  0.00  0.00    +0.000 C 
ATOM      3  O   UNL     1       6.129   5.413  19.754  0.00  0.00    +0.000 OA
ENDROOT
BRANCH   1   4
ATOM      4  C   UNL     1       3.623   4.563  19.885  0.00  0.00    +0.000 A 
ATOM      5  C   UNL     1       4.152   3.270  19.818  0.00  0.00    +0.000 A 
ATOM      6  C   UNL     1       3.644   2.261  20.652  0.00  0.00    +0.000 A 
ATOM      7  C   UNL     1       2.642   2.556  21.576  0.00  0.00    +0.000 A 
ATOM      8  F   UNL     1       2.167   1.582  22.366  0.00  0.00    +0.000 F 
ATOM      9  C   UNL     1       2.117   3.832  21.675  0.00  0.00    +0.000 A 
ATOM     10  C   UNL     1       2.600   4.827  20.821  0.00  0.00    +0.000 A 
ENDBRANCH   1   4
BRANCH   1  11
ATOM     11  C   UNL     1       2.902   6.175  18.087  0.00  0.00    +0.000 C 
BRANCH  11  12
ATOM     12  C   UNL     1       2.502   7.601  18.549  0.00  0.00    +0.000 C 
ATOM     13  O   UNL     1       2.333   7.870  19.738  0.00  0.00    +0.000 OA
ATOM     14  N   UNL     1       2.375   8.558  17.572  0.00  0.00    +0.000 N 
ATOM     15  H   UNL     1       2.321   8.254  16.610  0.00  0.00    +0.000 HD
BRANCH  14  16
ATOM     16  C   UNL     1       1.862   9.891  17.855  0.00  0.00    +0.000 C 
BRANCH  16  17
ATOM     17  C   UNL     1       0.418   9.914  18.379  0.00  0.00    +0.000 C 
ATOM     18  C   UNL     1      -0.676   9.540  17.391  0.00  0.00    +0.000 C 
ATOM     19  C   UNL     1      -1.885  10.219  17.984  0.00  0.00    +0.000 C 
ATOM     20  C   UNL     1      -1.295  11.488  18.559  0.00  0.00    +0.000 C 
ATOM     21  O   UNL     1       0.082  11.226  18.876  0.00  0.00    +0.000 OA
ENDBRANCH  16  17
ENDBRANCH  14  16
ENDBRANCH  11  12
BRANCH  11  22
ATOM     22  C   UNL     1       1.642   5.286  17.940  0.00  0.00    +0.000 C 
BRANCH  22  24
ATOM     23  C   UNL     1       1.400   2.738  18.037  0.00  0.00    +0.000 C 
ATOM     24  C   UNL     1       1.769   3.946  17.204  0.00  0.00    +0.000 C 
ENDBRANCH  22  24
ENDBRANCH  11  22
ENDBRANCH   1  11
BRANCH   2  25
ATOM     25  C   UNL     1       5.962   6.728  17.781  0.00  0.00    +0.000 C 
BRANCH  25  26
ATOM     26  N   UNL     1       6.060   6.225  16.404  0.00  0.00    +0.000 NA
ATOM     27  H   UNL     1       6.585   6.808  15.752  0.00  0.00    +0.000 HD
BRANCH  26  28
ATOM     28  S   UNL     1       6.402   4.603  16.106  0.00  0.00    +0.000 S 
ATOM     29  O   UNL     1       7.715   4.391  16.681  0.00  0.00    +0.000 OA
ATOM     30  O   UNL     1       5.266   3.820  16.535  0.00  0.00    +0.000 OA
BRANCH  28  31
ATOM     31  C   UNL     1       6.603   4.540  14.349  0.00  0.00    +0.000 A 
ATOM     32  C   UNL     1       5.842   3.626  13.612  0.00  0.00    +0.000 A 
ATOM     33  C   UNL     1       6.091   3.474  12.247  0.00  0.00    +0.000 A 
ATOM     34  C   UNL     1       7.099   4.219  11.634  0.00  0.00    +0.000 A 
ATOM     35  C   UNL     1       7.843   5.141  12.371  0.00  0.00    +0.000 A 
ATOM     36  C   UNL     1       7.576   5.327  13.726  0.00  0.00    +0.000 A 
ENDBRANCH  28  31
ENDBRANCH  26  28
ENDBRANCH  25  26
ENDBRANCH   2  25
TORSDOF 11
ENDMDL
MODEL 6
REMARK VINA RESULT:      -7.2      0.999      1.478
REMARK  Name = 
REMARK  12 active torsions:
REMARK  status: ('A' for Active; 'I' for Inactive)
REMARK    1  A    between atoms: C_1  and  C_2
REMARK    2  A    between atoms: C_2  and  C_3
REMARK    3  A    between atoms: C_3  and  C_4
REMARK    4  A    between atoms: C_4  and  C_5
REMARK    5  A    between atoms: C_4  and  N_14
REMARK    6  A    between atoms: N_7  and  C_8
REMARK    7  A    between atoms: C_8  and  C_9
REMARK    8  A    between atoms: N_14  and  C_28
REMARK    9  A    between atoms: C_15  and  C_17
REMARK   10  A    between atoms: C_17  and  N_18
REMARK   11  A    between atoms: N_18  and  S_19
REMARK   12  A    between atoms: S_19  and  C_22
REMARK                            x       y       z     vdW  Elec       q    Type
REMARK                         _______ _______ _______ _____ _____    ______ ____
ROOT
ATOM      1  N   UNL     1       5.836   5.933  16.569  0.00  0.00    +0.000 N 
ATOM      2  C   UNL     1       4.736   6.801  16.623  0.00  0.00    +0.000 C 
ATOM      3  O   UNL     1       4.184   7.151  15.580  0.00  0.00    +0.000 OA
ENDROOT
BRANCH   1   4
ATOM      4  C   UNL     1       6.056   5.301  15.283  0.00  0.00    +0.000 A 
ATOM      5  C   UNL     1       5.181   4.328  14.791  0.00  0.00    +0.000 A 
ATOM      6  C   UNL     1       5.501   3.623  13.620  0.00  0.00    +0.000 A 
ATOM      7  C   UNL     1       6.673   3.921  12.924  0.00  0.00    +0.000 A 
ATOM      8  F   UNL     1       6.967   3.240  11.807  0.00  0.00    +0.000 F 
ATOM      9  C   UNL     1       7.545   4.892  13.379  0.00  0.00    +0.000 A 
ATOM     10  C   UNL     1       7.240   5.570  14.563  0.00  0.00    +0.000 A 
ENDBRANCH   1   4
BRANCH   1  11
ATOM     11  C   UNL     1       6.770   5.528  17.690  0.00  0.00    +0.000 C 
BRANCH  11  12
ATOM     12  C   UNL     1       6.030   4.777  18.828  0.00  0.00    +0.000 C 
ATOM     13  O   UNL     1       6.079   5.166  19.995  0.00  0.00    +0.000 OA
ATOM     14  N   UNL     1       5.293   3.675  18.470  0.00  0.00    +0.000 N 
ATOM     15  H   UNL     1       5.444   3.277  17.554  0.00  0.00    +0.000 HD
BRANCH  14  16
ATOM     16  C   UNL     1       4.678   2.800  19.458  0.00  0.00    +0.000 C 
BRANCH  16  17
ATOM     17  C   UNL     1       3.142   2.850  19.477  0.00  0.00    +0.000 C 
ATOM     18  C   UNL     1       2.494   4.174  19.105  0.00  0.00    +0.000 C 
ATOM     19  C   UNL     1       1.149   4.071  19.780  0.00  0.00    +0.000 C 
ATOM     20  C   UNL     1       1.480   3.313  21.047  0.00  0.00    +0.000 C 
ATOM     21  O   UNL     1       2.641   2.509  20.786  0.00  0.00    +0.000 OA
ENDBRANCH  16  17
ENDBRANCH  14  16
ENDBRANCH  11  12
BRANCH  11  22
ATOM     22  C   UNL     1       7.634   6.672  18.274  0.00  0.00    +0.000 C 
BRANCH  22  24
ATOM     23  C   UNL     1       8.402   9.115  18.216  0.00  0.00    +0.000 C 
ATOM     24  C   UNL     1       7.820   7.950  17.446  0.00  0.00    +0.000 C 
ENDBRANCH  22  24
ENDBRANCH  11  22
ENDBRANCH   1  11
BRANCH   2  25
ATOM     25  C   UNL     1       4.247   7.353  17.946  0.00  0.00    +0.000 C 
BRANCH  25  26
ATOM     26  N   UNL     1       2.811   7.375  18.261  0.00  0.00    +0.000 NA
ATOM     27  H   UNL     1       2.538   6.934  19.139  0.00  0.00    +0.000 HD
BRANCH  26  28
ATOM     28  S   UNL     1       1.906   8.777  18.034  0.00  0.00    +0.000 S 
ATOM     29  O   UNL     1       2.875   9.784  17.655  0.00  0.00    +0.000 OA
ATOM     30  O   UNL     1       0.791   8.455  17.172  0.00  0.00    +0.000 OA
BRANCH  28  31
ATOM     31  C   UNL     1       1.362   9.185  19.667  0.00  0.00    +0.000 A 
ATOM     32  C   UNL     1       1.543   8.253  20.695  0.00  0.00    +0.000 A 
ATOM     33  C   UNL     1       0.996   8.508  21.953  0.00  0.00    +0.000 A 
ATOM     34  C   UNL     1       0.265   9.676  22.173  0.00  0.00    +0.000 A 
ATOM     35  C   UNL     1       0.101  10.609  21.148  0.00  0.00    +0.000 A 
ATOM     36  C   UNL     1       0.677  10.380  19.900  0.00  0.00    +0.000 A 
ENDBRANCH  28  31
ENDBRANCH  26  28
ENDBRANCH  25  26
ENDBRANCH   2  25
TORSDOF 11
ENDMDL
MODEL 7
REMARK VINA RESULT:      -7.2      2.817      5.336
REMARK  Name = 
REMARK  12 active torsions:
REMARK  status: ('A' for Active; 'I' for Inactive)
REMARK    1  A    between atoms: C_1  and  C_2
REMARK    2  A    between atoms: C_2  and  C_3
REMARK    3  A    between atoms: C_3  and  C_4
REMARK    4  A    between atoms: C_4  and  C_5
REMARK    5  A    between atoms: C_4  and  N_14
REMARK    6  A    between atoms: N_7  and  C_8
REMARK    7  A    between atoms: C_8  and  C_9
REMARK    8  A    between atoms: N_14  and  C_28
REMARK    9  A    between atoms: C_15  and  C_17
REMARK   10  A    between atoms: C_17  and  N_18
REMARK   11  A    between atoms: N_18  and  S_19
REMARK   12  A    between atoms: S_19  and  C_22
REMARK                            x       y       z     vdW  Elec       q    Type
REMARK                         _______ _______ _______ _____ _____    ______ ____
ROOT
ATOM      1  N   UNL     1       4.024   5.945  17.550  0.00  0.00    +0.000 N 
ATOM      2  C   UNL     1       2.915   6.762  17.815  0.00  0.00    +0.000 C 
ATOM      3  O   UNL     1       1.845   6.250  18.143  0.00  0.00    +0.000 OA
ENDROOT
BRANCH   1   4
ATOM      4  C   UNL     1       3.878   4.562  17.958  0.00  0.00    +0.000 A 
ATOM      5  C   UNL     1       4.432   4.093  19.154  0.00  0.00    +0.000 A 
ATOM      6  C   UNL     1       4.410   2.720  19.447  0.00  0.00    +0.000 A 
ATOM      7  C   UNL     1       3.799   1.828  18.567  0.00  0.00    +0.000 A 
ATOM      8  F   UNL     1       3.784   0.519  18.860  0.00  0.00    +0.000 F 
ATOM      9  C   UNL     1       3.226   2.269  17.388  0.00  0.00    +0.000 A 
ATOM     10  C   UNL     1       3.278   3.631  17.082  0.00  0.00    +0.000 A 
ENDBRANCH   1   4
BRANCH   1  11
ATOM     11  C   UNL     1       5.361   6.337  16.960  0.00  0.00    +0.000 C 
BRANCH  11  12
ATOM     12  C   UNL     1       6.076   5.142  16.277  0.00  0.00    +0.000 C 
ATOM     13  O   UNL     1       6.836   4.402  16.901  0.00  0.00    +0.000 OA
ATOM     14  N   UNL     1       5.796   4.927  14.949  0.00  0.00    +0.000 N 
ATOM     15  H   UNL     1       5.337   5.664  14.433  0.00  0.00    +0.000 HD
BRANCH  14  16
ATOM     16  C   UNL     1       6.511   3.936  14.158  0.00  0.00    +0.000 C 
BRANCH  16  17
ATOM     17  C   UNL     1       5.994   3.784  12.718  0.00  0.00    +0.000 C 
ATOM     18  C   UNL     1       4.487   3.703  12.536  0.00  0.00    +0.000 C 
ATOM     19  C   UNL     1       4.365   2.985  11.216  0.00  0.00    +0.000 C 
ATOM     20  C   UNL     1       5.531   2.023  11.261  0.00  0.00    +0.000 C 
ATOM     21  O   UNL     1       6.539   2.596  12.109  0.00  0.00    +0.000 OA
ENDBRANCH  16  17
ENDBRANCH  14  16
ENDBRANCH  11  12
BRANCH  11  22
ATOM     22  C   UNL     1       6.328   7.053  17.936  0.00  0.00    +0.000 C 
BRANCH  22  24
ATOM     23  C   UNL     1       8.402   8.493  18.367  0.00  0.00    +0.000 C 
ATOM     24  C   UNL     1       7.389   7.998  17.358  0.00  0.00    +0.000 C 
ENDBRANCH  22  24
ENDBRANCH  11  22
ENDBRANCH   1  11
BRANCH   2  25
ATOM     25  C   UNL     1       3.004   8.266  17.657  0.00  0.00    +0.000 C 
BRANCH  25  26
ATOM     26  N   UNL     1       1.788   9.071  17.476  0.00  0.00    +0.000 NA
ATOM     27  H   UNL     1       0.992   8.591  17.055  0.00  0.00    +0.000 HD
BRANCH  26  28
ATOM     28  S   UNL     1       1.242  10.087  18.704  0.00  0.00    +0.000 S 
ATOM     29  O   UNL     1       1.289   9.275  19.902  0.00  0.00    +0.000 OA
ATOM     30  O   UNL     1       1.977  11.329  18.616  0.00  0.00    +0.000 OA
BRANCH  28  31
ATOM     31  C   UNL     1      -0.468  10.322  18.315  0.00  0.00    +0.000 A 
ATOM     32  C   UNL     1      -1.029   9.594  17.260  0.00  0.00    +0.000 A 
ATOM     33  C   UNL     1      -2.337   9.872  16.859  0.00  0.00    +0.000 A 
ATOM     34  C   UNL     1      -3.066  10.874  17.499  0.00  0.00    +0.000 A 
ATOM     35  C   UNL     1      -2.506  11.585  18.562  0.00  0.00    +0.000 A 
ATOM     36  C   UNL     1      -1.215  11.288  18.994  0.00  0.00    +0.000 A 
ENDBRANCH  28  31
ENDBRANCH  26  28
ENDBRANCH  25  26
ENDBRANCH   2  25
TORSDOF 11
ENDMDL
MODEL 8
REMARK VINA RESULT:      -7.1      2.298      4.991
REMARK  Name = 
REMARK  12 active torsions:
REMARK  status: ('A' for Active; 'I' for Inactive)
REMARK    1  A    between atoms: C_1  and  C_2
REMARK    2  A    between atoms: C_2  and  C_3
REMARK    3  A    between atoms: C_3  and  C_4
REMARK    4  A    between atoms: C_4  and  C_5
REMARK    5  A    between atoms: C_4  and  N_14
REMARK    6  A    between atoms: N_7  and  C_8
REMARK    7  A    between atoms: C_8  and  C_9
REMARK    8  A    between atoms: N_14  and  C_28
REMARK    9  A    between atoms: C_15  and  C_17
REMARK   10  A    between atoms: C_17  and  N_18
REMARK   11  A    between atoms: N_18  and  S_19
REMARK   12  A    between atoms: S_19  and  C_22
REMARK                            x       y       z     vdW  Elec       q    Type
REMARK                         _______ _______ _______ _____ _____    ______ ____
ROOT
ATOM      1  N   UNL     1       3.943   5.703  17.828  0.00  0.00    +0.000 N 
ATOM      2  C   UNL     1       2.767   6.451  17.981  0.00  0.00    +0.000 C 
ATOM      3  O   UNL     1       1.690   5.871  18.126  0.00  0.00    +0.000 OA
ENDROOT
BRANCH   1   4
ATOM      4  C   UNL     1       3.816   4.291  18.133  0.00  0.00    +0.000 A 
ATOM      5  C   UNL     1       4.073   3.798  19.416  0.00  0.00    +0.000 A 
ATOM      6  C   UNL     1       4.094   2.413  19.644  0.00  0.00    +0.000 A 
ATOM      7  C   UNL     1       3.819   1.529  18.601  0.00  0.00    +0.000 A 
ATOM      8  F   UNL     1       3.843   0.208  18.833  0.00  0.00    +0.000 F 
ATOM      9  C   UNL     1       3.543   1.992  17.328  0.00  0.00    +0.000 A 
ATOM     10  C   UNL     1       3.555   3.370  17.096  0.00  0.00    +0.000 A 
ENDBRANCH   1   4
BRANCH   1  11
ATOM     11  C   UNL     1       5.326   6.191  17.455  0.00  0.00    +0.000 C 
BRANCH  11  12
ATOM     12  C   UNL     1       5.535   6.246  15.918  0.00  0.00    +0.000 C 
ATOM     13  O   UNL     1       5.017   7.123  15.228  0.00  0.00    +0.000 OA
ATOM     14  N   UNL     1       6.351   5.288  15.368  0.00  0.00    +0.000 N 
ATOM     15  H   UNL     1       6.585   4.481  15.928  0.00  0.00    +0.000 HD
BRANCH  14  16
ATOM     16  C   UNL     1       6.509   5.139  13.928  0.00  0.00    +0.000 C 
BRANCH  16  17
ATOM     17  C   UNL     1       6.019   3.791  13.375  0.00  0.00    +0.000 C 
ATOM     18  C   UNL     1       6.822   3.185  12.236  0.00  0.00    +0.000 C 
ATOM     19  C   UNL     1       5.807   2.287  11.574  0.00  0.00    +0.000 C 
ATOM     20  C   UNL     1       4.525   3.075  11.733  0.00  0.00    +0.000 C 
ATOM     21  O   UNL     1       4.663   3.904  12.898  0.00  0.00    +0.000 OA
ENDBRANCH  16  17
ENDBRANCH  14  16
ENDBRANCH  11  12
BRANCH  11  22
ATOM     22  C   UNL     1       6.497   5.434  18.129  0.00  0.00    +0.000 C 
BRANCH  22  24
ATOM     23  C   UNL     1       8.336   5.692  19.892  0.00  0.00    +0.000 C 
ATOM     24  C   UNL     1       7.700   6.239  18.633  0.00  0.00    +0.000 C 
ENDBRANCH  22  24
ENDBRANCH  11  22
ENDBRANCH   1  11
BRANCH   2  25
ATOM     25  C   UNL     1       2.796   7.964  17.923  0.00  0.00    +0.000 C 
BRANCH  25  26
ATOM     26  N   UNL     1       2.274   8.765  19.039  0.00  0.00    +0.000 NA
ATOM     27  H   UNL     1       2.967   9.119  19.699  0.00  0.00    +0.000 HD
BRANCH  26  28
ATOM     28  S   UNL     1       1.101   9.944  18.772  0.00  0.00    +0.000 S 
ATOM     29  O   UNL     1       1.849  11.169  18.573  0.00  0.00    +0.000 OA
ATOM     30  O   UNL     1       0.194   9.452  17.760  0.00  0.00    +0.000 OA
BRANCH  28  31
ATOM     31  C   UNL     1       0.298  10.090  20.342  0.00  0.00    +0.000 A 
ATOM     32  C   UNL     1      -0.085  11.358  20.793  0.00  0.00    +0.000 A 
ATOM     33  C   UNL     1      -0.592  11.499  22.085  0.00  0.00    +0.000 A 
ATOM     34  C   UNL     1      -0.702  10.384  22.918  0.00  0.00    +0.000 A 
ATOM     35  C   UNL     1      -0.333   9.120  22.457  0.00  0.00    +0.000 A 
ATOM     36  C   UNL     1       0.139   8.964  21.155  0.00  0.00    +0.000 A 
ENDBRANCH  28  31
ENDBRANCH  26  28
ENDBRANCH  25  26
ENDBRANCH   2  25
TORSDOF 11
ENDMDL
MODEL 9
REMARK VINA RESULT:      -7.1      2.801      5.461
REMARK  Name = 
REMARK  12 active torsions:
REMARK  status: ('A' for Active; 'I' for Inactive)
REMARK    1  A    between atoms: C_1  and  C_2
REMARK    2  A    between atoms: C_2  and  C_3
REMARK    3  A    between atoms: C_3  and  C_4
REMARK    4  A    between atoms: C_4  and  C_5
REMARK    5  A    between atoms: C_4  and  N_14
REMARK    6  A    between atoms: N_7  and  C_8
REMARK    7  A    between atoms: C_8  and  C_9
REMARK    8  A    between atoms: N_14  and  C_28
REMARK    9  A    between atoms: C_15  and  C_17
REMARK   10  A    between atoms: C_17  and  N_18
REMARK   11  A    between atoms: N_18  and  S_19
REMARK   12  A    between atoms: S_19  and  C_22
REMARK                            x       y       z     vdW  Elec       q    Type
REMARK                         _______ _______ _______ _____ _____    ______ ____
ROOT
ATOM      1  N   UNL     1       3.853   6.162  17.786  0.00  0.00    +0.000 N 
ATOM      2  C   UNL     1       2.809   7.097  17.834  0.00  0.00    +0.000 C 
ATOM      3  O   UNL     1       1.646   6.706  17.933  0.00  0.00    +0.000 OA
ENDROOT
BRANCH   1   4
ATOM      4  C   UNL     1       3.480   4.806  18.137  0.00  0.00    +0.000 A 
ATOM      5  C   UNL     1       3.177   3.857  17.156  0.00  0.00    +0.000 A 
ATOM      6  C   UNL     1       2.669   2.601  17.527  0.00  0.00    +0.000 A 
ATOM      7  C   UNL     1       2.505   2.285  18.875  0.00  0.00    +0.000 A 
ATOM      8  F   UNL     1       2.019   1.082  19.216  0.00  0.00    +0.000 F 
ATOM      9  C   UNL     1       2.816   3.199  19.865  0.00  0.00    +0.000 A 
ATOM     10  C   UNL     1       3.290   4.460  19.493  0.00  0.00    +0.000 A 
ENDBRANCH   1   4
BRANCH   1  11
ATOM     11  C   UNL     1       5.317   6.402  17.481  0.00  0.00    +0.000 C 
BRANCH  11  12
ATOM     12  C   UNL     1       5.616   6.359  15.960  0.00  0.00    +0.000 C 
ATOM     13  O   UNL     1       5.002   7.066  15.161  0.00  0.00    +0.000 OA
ATOM     14  N   UNL     1       6.619   5.517  15.548  0.00  0.00    +0.000 N 
ATOM     15  H   UNL     1       6.951   4.816  16.195  0.00  0.00    +0.000 HD
BRANCH  14  16
ATOM     16  C   UNL     1       6.896   5.273  14.139  0.00  0.00    +0.000 C 
BRANCH  16  17
ATOM     17  C   UNL     1       6.320   3.954  13.601  0.00  0.00    +0.000 C 
ATOM     18  C   UNL     1       6.916   3.420  12.309  0.00  0.00    +0.000 C 
ATOM     19  C   UNL     1       5.803   2.552  11.779  0.00  0.00    +0.000 C 
ATOM     20  C   UNL     1       4.567   3.318  12.199  0.00  0.00    +0.000 C 
ATOM     21  O   UNL     1       4.901   4.081  13.369  0.00  0.00    +0.000 OA
ENDBRANCH  16  17
ENDBRANCH  14  16
ENDBRANCH  11  12
BRANCH  11  22
ATOM     22  C   UNL     1       6.307   5.491  18.249  0.00  0.00    +0.000 C 
BRANCH  22  24
ATOM     23  C   UNL     1       8.198   5.535  19.975  0.00  0.00    +0.000 C 
ATOM     24  C   UNL     1       7.666   6.068  18.663  0.00  0.00    +0.000 C 
ENDBRANCH  22  24
ENDBRANCH  11  22
ENDBRANCH   1  11
BRANCH   2  25
ATOM     25  C   UNL     1       3.090   8.581  17.718  0.00  0.00    +0.000 C 
BRANCH  25  26
ATOM     26  N   UNL     1       2.013   9.519  17.372  0.00  0.00    +0.000 NA
ATOM     27  H   UNL     1       1.492   9.309  16.521  0.00  0.00    +0.000 HD
BRANCH  26  28
ATOM     28  S   UNL     1       0.951  10.078  18.554  0.00  0.00    +0.000 S 
ATOM     29  O   UNL     1      -0.369   9.805  18.022  0.00  0.00    +0.000 OA
ATOM     30  O   UNL     1       1.368   9.531  19.825  0.00  0.00    +0.000 OA
BRANCH  28  31
ATOM     31  C   UNL     1       1.165  11.833  18.505  0.00  0.00    +0.000 A 
ATOM     32  C   UNL     1       2.453  12.355  18.343  0.00  0.00    +0.000 A 
ATOM     33  C   UNL     1       2.649  13.733  18.441  0.00  0.00    +0.000 A 
ATOM     34  C   UNL     1       1.569  14.575  18.709  0.00  0.00    +0.000 A 
ATOM     35  C   UNL     1       0.284  14.050  18.853  0.00  0.00    +0.000 A 
ATOM     36  C   UNL     1       0.073  12.679  18.719  0.00  0.00    +0.000 A 
ENDBRANCH  28  31
ENDBRANCH  26  28
ENDBRANCH  25  26
ENDBRANCH   2  25
TORSDOF 11
ENDMDL
