MODEL 1
REMARK VINA RESULT:      -7.4      0.000      0.000
REMARK  Name = 
REMARK  10 active torsions:
REMARK  status: ('A' for Active; 'I' for Inactive)
REMARK    1  A    between atoms: C_1  and  C_2
REMARK    2  A    between atoms: C_2  and  C_3
REMARK    3  A    between atoms: C_2  and  N_4
REMARK    4  A    between atoms: C_8  and  C_9
REMARK    5  A    between atoms: C_11  and  C_12
REMARK    6  A    between atoms: N_21  and  C_22
REMARK    7  A    between atoms: C_22  and  C_23
REMARK    8  A    between atoms: C_23  and  O_24
REMARK    9  A    between atoms: C_23  and  C_25
REMARK   10  A    between atoms: C_25  and  O_26
REMARK                            x       y       z     vdW  Elec       q    Type
REMARK                         _______ _______ _______ _____ _____    ______ ____
ROOT
ATOM      1  C   UNL     1       2.434   8.082  18.580  0.00  0.00    +0.000 A 
ATOM      2  C   UNL     1       2.081   6.966  19.301  0.00  0.00    +0.000 A 
ATOM      3  C   UNL     1       2.704   5.783  18.963  0.00  0.00    +0.000 A 
ATOM      4  N   UNL     1       3.656   5.744  17.999  0.00  0.00    +0.000 NA
ATOM      5  C   UNL     1       3.980   6.894  17.386  0.00  0.00    +0.000 A 
ATOM      6  N   UNL     1       4.955   6.930  16.409  0.00  0.00    +0.000 N 
ATOM      7  N   UNL     1       3.402   8.067  17.651  0.00  0.00    +0.000 NA
ATOM      8  H   UNL     1       5.671   7.598  16.684  0.00  0.00    +0.000 HD
ENDROOT
BRANCH   1  13
ATOM      9  N   UNL     1       0.884  13.002  18.393  0.00  0.00    +0.000 N 
ATOM     10  C   UNL     1       0.981  11.676  18.640  0.00  0.00    +0.000 A 
ATOM     11  N   UNL     1       0.172  10.970  19.394  0.00  0.00    +0.000 NA
ATOM     12  C   UNL     1       0.570   9.646  19.405  0.00  0.00    +0.000 A 
ATOM     13  C   UNL     1       1.723   9.352  18.701  0.00  0.00    +0.000 A 
ATOM     14  S   UNL     1       2.279  10.786  17.941  0.00  0.00    +0.000 S 
ATOM     15  H   UNL     1       1.691  13.425  17.949  0.00  0.00    +0.000 HD
BRANCH   9  17
ATOM     16  C   UNL     1       1.015  14.088  20.560  0.00  0.00    +0.000 C 
ATOM     17  C   UNL     1       0.152  13.860  19.318  0.00  0.00    +0.000 C 
ATOM     18  C   UNL     1      -0.178  15.200  18.664  0.00  0.00    +0.000 C 
ENDBRANCH   9  17
ENDBRANCH   1  13
BRANCH   3  19
ATOM     19  C   UNL     1       2.418   4.510  19.669  0.00  0.00    +0.000 A 
ATOM     20  C   UNL     1       2.347   4.509  21.080  0.00  0.00    +0.000 A 
ATOM     21  C   UNL     1       1.992   3.366  21.804  0.00  0.00    +0.000 A 
ATOM     22  C   UNL     1       1.689   2.184  21.138  0.00  0.00    +0.000 A 
ATOM     23  C   UNL     1       1.779   2.140  19.752  0.00  0.00    +0.000 A 
ATOM     24  C   UNL     1       2.163   3.278  19.026  0.00  0.00    +0.000 A 
ATOM     25 CL   UNL     1       2.352   3.040  17.318  0.00  0.00    +0.000 Cl
ENDBRANCH   3  19
BRANCH   6  26
ATOM     26  C   UNL     1       5.451   5.669  15.893  0.00  0.00    +0.000 C 
BRANCH  26  27
ATOM     27  C   UNL     1       6.927   5.501  16.294  0.00  0.00    +0.000 C 
BRANCH  27  28
ATOM     28  O   UNL     1       7.530   6.796  16.456  0.00  0.00    +0.000 OA
ATOM     29  H   UNL     1       7.626   6.964  17.410  0.00  0.00    +0.000 HD
ENDBRANCH  27  28
BRANCH  27  30
ATOM     30  C   UNL     1       7.049   4.679  17.585  0.00  0.00    +0.000 C 
BRANCH  30  31
ATOM     31  O   UNL     1       5.859   3.938  17.849  0.00  0.00    +0.000 OA
ATOM     32  H   UNL     1       5.101   4.465  17.540  0.00  0.00    +0.000 HD
ENDBRANCH  30  31
ENDBRANCH  27  30
ENDBRANCH  26  27
ENDBRANCH   6  26
TORSDOF 8
ENDMDL
MODEL 2
REMARK VINA RESULT:      -7.3      2.246      4.468
REMARK  Name = 
REMARK  10 active torsions:
REMARK  status: ('A' for Active; 'I' for Inactive)
REMARK    1  A    between atoms: C_1  and  C_2
REMARK    2  A    between atoms: C_2  and  C_3
REMARK    3  A    between atoms: C_2  and  N_4
REMARK    4  A    between atoms: C_8  and  C_9
REMARK    5  A    between atoms: C_11  and  C_12
REMARK    6  A    between atoms: N_21  and  C_22
REMARK    7  A    between atoms: C_22  and  C_23
REMARK    8  A    between atoms: C_23  and  O_24
REMARK    9  A    between atoms: C_23  and  C_25
REMARK   10  A    between atoms: C_25  and  O_26
REMARK                            x       y       z     vdW  Elec       q    Type
REMARK                         _______ _______ _______ _____ _____    ______ ____
ROOT
ATOM      1  C   UNL     1       2.272   7.553  19.040  0.00  0.00    +0.000 A 
ATOM      2  C   UNL     1       3.292   7.196  18.190  0.00  0.00    +0.000 A 
ATOM      3  C   UNL     1       3.807   5.924  18.334  0.00  0.00    +0.000 A 
ATOM      4  N   UNL     1       3.289   5.058  19.238  0.00  0.00    +0.000 NA
ATOM      5  C   UNL     1       2.255   5.473  19.987  0.00  0.00    +0.000 A 
ATOM      6  N   UNL     1       1.666   4.635  20.915  0.00  0.00    +0.000 N 
ATOM      7  N   UNL     1       1.724   6.694  19.913  0.00  0.00    +0.000 NA
ATOM      8  H   UNL     1       0.674   4.554  20.701  0.00  0.00    +0.000 HD
ENDROOT
BRANCH   1  13
ATOM      9  N   UNL     1       1.117  12.532  18.316  0.00  0.00    +0.000 N 
ATOM     10  C   UNL     1       1.224  11.278  18.814  0.00  0.00    +0.000 A 
ATOM     11  N   UNL     1       0.770  10.869  19.974  0.00  0.00    +0.000 NA
ATOM     12  C   UNL     1       1.047   9.524  20.142  0.00  0.00    +0.000 A 
ATOM     13  C   UNL     1       1.766   8.921  19.127  0.00  0.00    +0.000 A 
ATOM     14  S   UNL     1       2.036  10.075  17.888  0.00  0.00    +0.000 S 
ATOM     15  H   UNL     1       1.683  12.728  17.498  0.00  0.00    +0.000 HD
BRANCH   9  17
ATOM     16  C   UNL     1       2.211  14.453  19.320  0.00  0.00    +0.000 C 
ATOM     17  C   UNL     1       0.909  13.656  19.222  0.00  0.00    +0.000 C 
ATOM     18  C   UNL     1      -0.213  14.558  18.711  0.00  0.00    +0.000 C 
ENDBRANCH   9  17
ENDBRANCH   1  13
BRANCH   3  19
ATOM     19  C   UNL     1       4.903   5.414  17.474  0.00  0.00    +0.000 A 
ATOM     20  C   UNL     1       4.616   5.054  16.139  0.00  0.00    +0.000 A 
ATOM     21  C   UNL     1       5.617   4.653  15.247  0.00  0.00    +0.000 A 
ATOM     22  C   UNL     1       6.943   4.606  15.662  0.00  0.00    +0.000 A 
ATOM     23  C   UNL     1       7.258   4.923  16.979  0.00  0.00    +0.000 A 
ATOM     24  C   UNL     1       6.251   5.297  17.882  0.00  0.00    +0.000 A 
ATOM     25 CL   UNL     1       6.775   5.543  19.517  0.00  0.00    +0.000 Cl
ENDBRANCH   3  19
BRANCH   6  26
ATOM     26  C   UNL     1       2.335   3.388  21.229  0.00  0.00    +0.000 C 
BRANCH  26  27
ATOM     27  C   UNL     1       1.687   2.246  20.425  0.00  0.00    +0.000 C 
BRANCH  27  28
ATOM     28  O   UNL     1       0.389   2.659  19.968  0.00  0.00    +0.000 OA
ATOM     29  H   UNL     1       0.453   2.845  19.014  0.00  0.00    +0.000 HD
ENDBRANCH  27  28
BRANCH  27  30
ATOM     30  C   UNL     1       2.578   1.842  19.243  0.00  0.00    +0.000 C 
BRANCH  30  31
ATOM     31  O   UNL     1       2.149   2.456  18.029  0.00  0.00    +0.000 OA
ATOM     32  H   UNL     1       1.416   1.928  17.667  0.00  0.00    +0.000 HD
ENDBRANCH  30  31
ENDBRANCH  27  30
ENDBRANCH  26  27
ENDBRANCH   6  26
TORSDOF 8
ENDMDL
MODEL 3
REMARK VINA RESULT:      -7.2      2.221      4.584
REMARK  Name = 
REMARK  10 active torsions:
REMARK  status: ('A' for Active; 'I' for Inactive)
REMARK    1  A    between atoms: C_1  and  C_2
REMARK    2  A    between atoms: C_2  and  C_3
REMARK    3  A    between atoms: C_2  and  N_4
REMARK    4  A    between atoms: C_8  and  C_9
REMARK    5  A    between atoms: C_11  and  C_12
REMARK    6  A    between atoms: N_21  and  C_22
REMARK    7  A    between atoms: C_22  and  C_23
REMARK    8  A    between atoms: C_23  and  O_24
REMARK    9  A    between atoms: C_23  and  C_25
REMARK   10  A    between atoms: C_25  and  O_26
REMARK                            x       y       z     vdW  Elec       q    Type
REMARK                         _______ _______ _______ _____ _____    ______ ____
ROOT
ATOM      1  C   UNL     1       2.520   7.301  18.612  0.00  0.00    +0.000 A 
ATOM      2  C   UNL     1       3.494   7.033  17.679  0.00  0.00    +0.000 A 
ATOM      3  C   UNL     1       4.054   5.774  17.706  0.00  0.00    +0.000 A 
ATOM      4  N   UNL     1       3.623   4.834  18.581  0.00  0.00    +0.000 NA
ATOM      5  C   UNL     1       2.626   5.164  19.419  0.00  0.00    +0.000 A 
ATOM      6  N   UNL     1       2.124   4.249  20.323  0.00  0.00    +0.000 N 
ATOM      7  N   UNL     1       2.055   6.369  19.459  0.00  0.00    +0.000 NA
ATOM      8  H   UNL     1       1.123   4.148  20.167  0.00  0.00    +0.000 HD
ENDROOT
BRANCH   1  13
ATOM      9  N   UNL     1       0.136  11.534  20.357  0.00  0.00    +0.000 N 
ATOM     10  C   UNL     1       0.844  10.648  19.618  0.00  0.00    +0.000 A 
ATOM     11  N   UNL     1       1.345  10.865  18.426  0.00  0.00    +0.000 NA
ATOM     12  C   UNL     1       2.018   9.740  17.983  0.00  0.00    +0.000 A 
ATOM     13  C   UNL     1       1.979   8.641  18.821  0.00  0.00    +0.000 A 
ATOM     14  S   UNL     1       1.127   9.070  20.246  0.00  0.00    +0.000 S 
ATOM     15  H   UNL     1      -0.338  11.149  21.165  0.00  0.00    +0.000 HD
BRANCH   9  17
ATOM     16  C   UNL     1      -2.006  12.654  20.138  0.00  0.00    +0.000 C 
ATOM     17  C   UNL     1      -0.540  12.647  19.701  0.00  0.00    +0.000 C 
ATOM     18  C   UNL     1       0.119  13.973  20.075  0.00  0.00    +0.000 C 
ENDBRANCH   9  17
ENDBRANCH   1  13
BRANCH   3  19
ATOM     19  C   UNL     1       5.108   5.358  16.748  0.00  0.00    +0.000 A 
ATOM     20  C   UNL     1       4.754   4.544  15.649  0.00  0.00    +0.000 A 
ATOM     21  C   UNL     1       5.677   4.190  14.659  0.00  0.00    +0.000 A 
ATOM     22  C   UNL     1       6.988   4.647  14.732  0.00  0.00    +0.000 A 
ATOM     23  C   UNL     1       7.380   5.425  15.816  0.00  0.00    +0.000 A 
ATOM     24  C   UNL     1       6.462   5.756  16.824  0.00  0.00    +0.000 A 
ATOM     25 CL   UNL     1       7.123   6.624  18.173  0.00  0.00    +0.000 Cl
ENDBRANCH   3  19
BRANCH   6  26
ATOM     26  C   UNL     1       2.849   3.008  20.513  0.00  0.00    +0.000 C 
BRANCH  26  27
ATOM     27  C   UNL     1       2.311   1.950  19.532  0.00  0.00    +0.000 C 
BRANCH  27  28
ATOM     28  O   UNL     1       1.225   2.508  18.774  0.00  0.00    +0.000 OA
ATOM     29  H   UNL     1       1.588   2.843  17.934  0.00  0.00    +0.000 HD
ENDBRANCH  27  28
BRANCH  27  30
ATOM     30  C   UNL     1       3.428   1.456  18.602  0.00  0.00    +0.000 C 
BRANCH  30  31
ATOM     31  O   UNL     1       4.639   2.181  18.804  0.00  0.00    +0.000 OA
ATOM     32  H   UNL     1       4.419   3.013  19.261  0.00  0.00    +0.000 HD
ENDBRANCH  30  31
ENDBRANCH  27  30
ENDBRANCH  26  27
ENDBRANCH   6  26
TORSDOF 8
ENDMDL
MODEL 4
REMARK VINA RESULT:      -7.2      1.196      1.387
REMARK  Name = 
REMARK  10 active torsions:
REMARK  status: ('A' for Active; 'I' for Inactive)
REMARK    1  A    between atoms: C_1  and  C_2
REMARK    2  A    between atoms: C_2  and  C_3
REMARK    3  A    between atoms: C_2  and  N_4
REMARK    4  A    between atoms: C_8  and  C_9
REMARK    5  A    between atoms: C_11  and  C_12
REMARK    6  A    between atoms: N_21  and  C_22
REMARK    7  A    between atoms: C_22  and  C_23
REMARK    8  A    between atoms: C_23  and  O_24
REMARK    9  A    between atoms: C_23  and  C_25
REMARK   10  A    between atoms: C_25  and  O_26
REMARK                            x       y       z     vdW  Elec       q    Type
REMARK                         _______ _______ _______ _____ _____    ______ ____
ROOT
ATOM      1  C   UNL     1       2.340   8.111  18.751  0.00  0.00    +0.000 A 
ATOM      2  C   UNL     1       2.027   6.966  19.445  0.00  0.00    +0.000 A 
ATOM      3  C   UNL     1       2.643   5.802  19.036  0.00  0.00    +0.000 A 
ATOM      4  N   UNL     1       3.550   5.805  18.031  0.00  0.00    +0.000 NA
ATOM      5  C   UNL     1       3.839   6.979  17.446  0.00  0.00    +0.000 A 
ATOM      6  N   UNL     1       4.769   7.058  16.429  0.00  0.00    +0.000 N 
ATOM      7  N   UNL     1       3.265   8.137  17.779  0.00  0.00    +0.000 NA
ATOM      8  H   UNL     1       5.492   7.723  16.696  0.00  0.00    +0.000 HD
ENDROOT
BRANCH   1  13
ATOM      9  N   UNL     1      -0.673  11.964  20.399  0.00  0.00    +0.000 N 
ATOM     10  C   UNL     1       0.195  11.197  19.700  0.00  0.00    +0.000 A 
ATOM     11  N   UNL     1       0.762  11.516  18.561  0.00  0.00    +0.000 NA
ATOM     12  C   UNL     1       1.599  10.495  18.148  0.00  0.00    +0.000 A 
ATOM     13  C   UNL     1       1.626   9.369  18.949  0.00  0.00    +0.000 A 
ATOM     14  S   UNL     1       0.614   9.641  20.307  0.00  0.00    +0.000 S 
ATOM     15  H   UNL     1      -1.161  11.497  21.154  0.00  0.00    +0.000 HD
BRANCH   9  17
ATOM     16  C   UNL     1      -2.894  12.906  20.126  0.00  0.00    +0.000 C 
ATOM     17  C   UNL     1      -1.423  13.014  19.718  0.00  0.00    +0.000 C 
ATOM     18  C   UNL     1      -0.881  14.391  20.092  0.00  0.00    +0.000 C 
ENDBRANCH   9  17
ENDBRANCH   1  13
BRANCH   3  19
ATOM     19  C   UNL     1       2.397   4.502  19.708  0.00  0.00    +0.000 A 
ATOM     20  C   UNL     1       2.360   4.454  21.119  0.00  0.00    +0.000 A 
ATOM     21  C   UNL     1       2.044   3.282  21.815  0.00  0.00    +0.000 A 
ATOM     22  C   UNL     1       1.747   2.116  21.118  0.00  0.00    +0.000 A 
ATOM     23  C   UNL     1       1.805   2.118  19.729  0.00  0.00    +0.000 A 
ATOM     24  C   UNL     1       2.150   3.286  19.031  0.00  0.00    +0.000 A 
ATOM     25 CL   UNL     1       2.302   3.105  17.313  0.00  0.00    +0.000 Cl
ENDBRANCH   3  19
BRANCH   6  26
ATOM     26  C   UNL     1       5.251   5.821  15.846  0.00  0.00    +0.000 C 
BRANCH  26  27
ATOM     27  C   UNL     1       6.731   5.626  16.218  0.00  0.00    +0.000 C 
BRANCH  27  28
ATOM     28  O   UNL     1       7.273   6.869  16.694  0.00  0.00    +0.000 OA
ATOM     29  H   UNL     1       6.801   7.108  17.512  0.00  0.00    +0.000 HD
ENDBRANCH  27  28
BRANCH  27  30
ATOM     30  C   UNL     1       6.883   4.525  17.277  0.00  0.00    +0.000 C 
BRANCH  30  31
ATOM     31  O   UNL     1       8.244   4.126  17.427  0.00  0.00    +0.000 OA
ATOM     32  H   UNL     1       8.684   4.226  16.564  0.00  0.00    +0.000 HD
ENDBRANCH  30  31
ENDBRANCH  27  30
ENDBRANCH  26  27
ENDBRANCH   6  26
TORSDOF 8
ENDMDL
MODEL 5
REMARK VINA RESULT:      -7.2      1.908      4.238
REMARK  Name = 
REMARK  10 active torsions:
REMARK  status: ('A' for Active; 'I' for Inactive)
REMARK    1  A    between atoms: C_1  and  C_2
REMARK    2  A    between atoms: C_2  and  C_3
REMARK    3  A    between atoms: C_2  and  N_4
REMARK    4  A    between atoms: C_8  and  C_9
REMARK    5  A    between atoms: C_11  and  C_12
REMARK    6  A    between atoms: N_21  and  C_22
REMARK    7  A    between atoms: C_22  and  C_23
REMARK    8  A    between atoms: C_23  and  O_24
REMARK    9  A    between atoms: C_23  and  C_25
REMARK   10  A    between atoms: C_25  and  O_26
REMARK                            x       y       z     vdW  Elec       q    Type
REMARK                         _______ _______ _______ _____ _____    ______ ____
ROOT
ATOM      1  C   UNL     1       2.143   7.802  19.112  0.00  0.00    +0.000 A 
ATOM      2  C   UNL     1       3.108   7.429  18.207  0.00  0.00    +0.000 A 
ATOM      3  C   UNL     1       3.650   6.170  18.357  0.00  0.00    +0.000 A 
ATOM      4  N   UNL     1       3.208   5.328  19.322  0.00  0.00    +0.000 NA
ATOM      5  C   UNL     1       2.221   5.754  20.127  0.00  0.00    +0.000 A 
ATOM      6  N   UNL     1       1.709   4.941  21.119  0.00  0.00    +0.000 N 
ATOM      7  N   UNL     1       1.668   6.966  20.049  0.00  0.00    +0.000 NA
ATOM      8  H   UNL     1       0.707   4.840  20.977  0.00  0.00    +0.000 HD
ENDROOT
BRANCH   1  13
ATOM      9  N   UNL     1       0.966  12.773  18.369  0.00  0.00    +0.000 N 
ATOM     10  C   UNL     1       1.070  11.519  18.867  0.00  0.00    +0.000 A 
ATOM     11  N   UNL     1       0.589  11.103  20.014  0.00  0.00    +0.000 NA
ATOM     12  C   UNL     1       0.873   9.760  20.186  0.00  0.00    +0.000 A 
ATOM     13  C   UNL     1       1.623   9.165  19.189  0.00  0.00    +0.000 A 
ATOM     14  S   UNL     1       1.916  10.325  17.960  0.00  0.00    +0.000 S 
ATOM     15  H   UNL     1       1.552  12.975  17.567  0.00  0.00    +0.000 HD
BRANCH   9  17
ATOM     16  C   UNL     1       2.057  14.594  19.547  0.00  0.00    +0.000 C 
ATOM     17  C   UNL     1       0.725  13.893  19.272  0.00  0.00    +0.000 C 
ATOM     18  C   UNL     1      -0.262  14.880  18.653  0.00  0.00    +0.000 C 
ENDBRANCH   9  17
ENDBRANCH   1  13
BRANCH   3  19
ATOM     19  C   UNL     1       4.692   5.645  17.441  0.00  0.00    +0.000 A 
ATOM     20  C   UNL     1       5.911   6.346  17.314  0.00  0.00    +0.000 A 
ATOM     21  C   UNL     1       6.970   5.860  16.539  0.00  0.00    +0.000 A 
ATOM     22  C   UNL     1       6.845   4.649  15.869  0.00  0.00    +0.000 A 
ATOM     23  C   UNL     1       5.648   3.947  15.946  0.00  0.00    +0.000 A 
ATOM     24  C   UNL     1       4.575   4.447  16.699  0.00  0.00    +0.000 A 
ATOM     25 CL   UNL     1       3.107   3.528  16.602  0.00  0.00    +0.000 Cl
ENDBRANCH   3  19
BRANCH   6  26
ATOM     26  C   UNL     1       2.417   3.714  21.428  0.00  0.00    +0.000 C 
BRANCH  26  27
ATOM     27  C   UNL     1       1.664   2.523  20.809  0.00  0.00    +0.000 C 
BRANCH  27  28
ATOM     28  O   UNL     1       0.351   2.945  20.402  0.00  0.00    +0.000 OA
ATOM     29  H   UNL     1       0.256   2.753  19.452  0.00  0.00    +0.000 HD
ENDBRANCH  27  28
BRANCH  27  30
ATOM     30  C   UNL     1       2.444   1.948  19.618  0.00  0.00    +0.000 C 
BRANCH  30  31
ATOM     31  O   UNL     1       3.826   2.290  19.682  0.00  0.00    +0.000 OA
ATOM     32  H   UNL     1       4.043   2.816  18.891  0.00  0.00    +0.000 HD
ENDBRANCH  30  31
ENDBRANCH  27  30
ENDBRANCH  26  27
ENDBRANCH   6  26
TORSDOF 8
ENDMDL
MODEL 6
REMARK VINA RESULT:      -7.2      2.562      4.639
REMARK  Name = 
REMARK  10 active torsions:
REMARK  status: ('A' for Active; 'I' for Inactive)
REMARK    1  A    between atoms: C_1  and  C_2
REMARK    2  A    between atoms: C_2  and  C_3
REMARK    3  A    between atoms: C_2  and  N_4
REMARK    4  A    between atoms: C_8  and  C_9
REMARK    5  A    between atoms: C_11  and  C_12
REMARK    6  A    between atoms: N_21  and  C_22
REMARK    7  A    between atoms: C_22  and  C_23
REMARK    8  A    between atoms: C_23  and  O_24
REMARK    9  A    between atoms: C_23  and  C_25
REMARK   10  A    between atoms: C_25  and  O_26
REMARK                            x       y       z     vdW  Elec       q    Type
REMARK                         _______ _______ _______ _____ _____    ______ ____
ROOT
ATOM      1  C   UNL     1       2.194   7.688  19.100  0.00  0.00    +0.000 A 
ATOM      2  C   UNL     1       3.122   7.349  18.143  0.00  0.00    +0.000 A 
ATOM      3  C   UNL     1       3.754   6.132  18.292  0.00  0.00    +0.000 A 
ATOM      4  N   UNL     1       3.432   5.295  19.307  0.00  0.00    +0.000 NA
ATOM      5  C   UNL     1       2.472   5.683  20.163  0.00  0.00    +0.000 A 
ATOM      6  N   UNL     1       2.080   4.870  21.209  0.00  0.00    +0.000 N 
ATOM      7  N   UNL     1       1.837   6.853  20.088  0.00  0.00    +0.000 NA
ATOM      8  H   UNL     1       1.080   4.701  21.136  0.00  0.00    +0.000 HD
ENDROOT
BRANCH   1  13
ATOM      9  N   UNL     1      -0.337  11.982  20.442  0.00  0.00    +0.000 N 
ATOM     10  C   UNL     1       0.385  11.048  19.780  0.00  0.00    +0.000 A 
ATOM     11  N   UNL     1       0.823  11.142  18.547  0.00  0.00    +0.000 NA
ATOM     12  C   UNL     1       1.535  10.006  18.210  0.00  0.00    +0.000 A 
ATOM     13  C   UNL     1       1.592   9.017  19.173  0.00  0.00    +0.000 A 
ATOM     14  S   UNL     1       0.779   9.573  20.577  0.00  0.00    +0.000 S 
ATOM     15  H   UNL     1      -0.754  11.676  21.312  0.00  0.00    +0.000 HD
BRANCH   9  17
ATOM     16  C   UNL     1      -2.548  12.950  20.182  0.00  0.00    +0.000 C 
ATOM     17  C   UNL     1      -1.099  12.974  19.691  0.00  0.00    +0.000 C 
ATOM     18  C   UNL     1      -0.508  14.368  19.888  0.00  0.00    +0.000 C 
ENDBRANCH   9  17
ENDBRANCH   1  13
BRANCH   3  19
ATOM     19  C   UNL     1       4.767   5.646  17.323  0.00  0.00    +0.000 A 
ATOM     20  C   UNL     1       5.916   6.431  17.079  0.00  0.00    +0.000 A 
ATOM     21  C   UNL     1       6.953   5.991  16.249  0.00  0.00    +0.000 A 
ATOM     22  C   UNL     1       6.877   4.744  15.640  0.00  0.00    +0.000 A 
ATOM     23  C   UNL     1       5.747   3.958  15.832  0.00  0.00    +0.000 A 
ATOM     24  C   UNL     1       4.694   4.410  16.641  0.00  0.00    +0.000 A 
ATOM     25 CL   UNL     1       3.299   3.379  16.689  0.00  0.00    +0.000 Cl
ENDBRANCH   3  19
BRANCH   6  26
ATOM     26  C   UNL     1       2.885   3.701  21.504  0.00  0.00    +0.000 C 
BRANCH  26  27
ATOM     27  C   UNL     1       2.009   2.441  21.399  0.00  0.00    +0.000 C 
BRANCH  27  28
ATOM     28  O   UNL     1       0.922   2.534  22.334  0.00  0.00    +0.000 OA
ATOM     29  H   UNL     1       0.591   1.633  22.499  0.00  0.00    +0.000 HD
ENDBRANCH  27  28
BRANCH  27  30
ATOM     30  C   UNL     1       1.483   2.264  19.968  0.00  0.00    +0.000 C 
BRANCH  30  31
ATOM     31  O   UNL     1       0.242   2.940  19.777  0.00  0.00    +0.000 OA
ATOM     32  H   UNL     1      -0.158   3.088  20.653  0.00  0.00    +0.000 HD
ENDBRANCH  30  31
ENDBRANCH  27  30
ENDBRANCH  26  27
ENDBRANCH   6  26
TORSDOF 8
ENDMDL
MODEL 7
REMARK VINA RESULT:      -7.1      2.187      4.570
REMARK  Name = 
REMARK  10 active torsions:
REMARK  status: ('A' for Active; 'I' for Inactive)
REMARK    1  A    between atoms: C_1  and  C_2
REMARK    2  A    between atoms: C_2  and  C_3
REMARK    3  A    between atoms: C_2  and  N_4
REMARK    4  A    between atoms: C_8  and  C_9
REMARK    5  A    between atoms: C_11  and  C_12
REMARK    6  A    between atoms: N_21  and  C_22
REMARK    7  A    between atoms: C_22  and  C_23
REMARK    8  A    between atoms: C_23  and  O_24
REMARK    9  A    between atoms: C_23  and  C_25
REMARK   10  A    between atoms: C_25  and  O_26
REMARK                            x       y       z     vdW  Elec       q    Type
REMARK                         _______ _______ _______ _____ _____    ______ ____
ROOT
ATOM      1  C   UNL     1       2.357   7.285  18.499  0.00  0.00    +0.000 A 
ATOM      2  C   UNL     1       3.461   7.029  17.721  0.00  0.00    +0.000 A 
ATOM      3  C   UNL     1       3.907   5.725  17.683  0.00  0.00    +0.000 A 
ATOM      4  N   UNL     1       3.251   4.740  18.342  0.00  0.00    +0.000 NA
ATOM      5  C   UNL     1       2.146   5.071  19.031  0.00  0.00    +0.000 A 
ATOM      6  N   UNL     1       1.417   4.115  19.710  0.00  0.00    +0.000 N 
ATOM      7  N   UNL     1       1.673   6.315  19.126  0.00  0.00    +0.000 NA
ATOM      8  H   UNL     1       0.458   4.132  19.372  0.00  0.00    +0.000 HD
ENDROOT
BRANCH   1  13
ATOM      9  N   UNL     1       0.259  11.554  20.503  0.00  0.00    +0.000 N 
ATOM     10  C   UNL     1       0.892  10.666  19.702  0.00  0.00    +0.000 A 
ATOM     11  N   UNL     1       1.356  10.907  18.500  0.00  0.00    +0.000 NA
ATOM     12  C   UNL     1       1.953   9.770  17.986  0.00  0.00    +0.000 A 
ATOM     13  C   UNL     1       1.893   8.641  18.781  0.00  0.00    +0.000 A 
ATOM     14  S   UNL     1       1.119   9.052  20.256  0.00  0.00    +0.000 S 
ATOM     15  H   UNL     1      -0.201  11.161  21.315  0.00  0.00    +0.000 HD
BRANCH   9  17
ATOM     16  C   UNL     1      -1.892  12.467  19.844  0.00  0.00    +0.000 C 
ATOM     17  C   UNL     1      -0.386  12.725  19.920  0.00  0.00    +0.000 C 
ATOM     18  C   UNL     1      -0.115  13.967  20.766  0.00  0.00    +0.000 C 
ENDBRANCH   9  17
ENDBRANCH   1  13
BRANCH   3  19
ATOM     19  C   UNL     1       5.083   5.316  16.874  0.00  0.00    +0.000 A 
ATOM     20  C   UNL     1       4.910   5.047  15.499  0.00  0.00    +0.000 A 
ATOM     21  C   UNL     1       5.989   4.747  14.660  0.00  0.00    +0.000 A 
ATOM     22  C   UNL     1       7.281   4.712  15.171  0.00  0.00    +0.000 A 
ATOM     23  C   UNL     1       7.485   4.940  16.527  0.00  0.00    +0.000 A 
ATOM     24  C   UNL     1       6.401   5.214  17.375  0.00  0.00    +0.000 A 
ATOM     25 CL   UNL     1       6.792   5.354  19.059  0.00  0.00    +0.000 Cl
ENDBRANCH   3  19
BRANCH   6  26
ATOM     26  C   UNL     1       1.996   2.794  19.861  0.00  0.00    +0.000 C 
BRANCH  26  27
ATOM     27  C   UNL     1       3.130   2.852  20.900  0.00  0.00    +0.000 C 
BRANCH  27  28
ATOM     28  O   UNL     1       2.654   2.344  22.157  0.00  0.00    +0.000 OA
ATOM     29  H   UNL     1       2.949   1.420  22.238  0.00  0.00    +0.000 HD
ENDBRANCH  27  28
BRANCH  27  30
ATOM     30  C   UNL     1       4.349   2.054  20.417  0.00  0.00    +0.000 C 
BRANCH  30  31
ATOM     31  O   UNL     1       4.637   2.313  19.045  0.00  0.00    +0.000 OA
ATOM     32  H   UNL     1       5.466   1.854  18.818  0.00  0.00    +0.000 HD
ENDBRANCH  30  31
ENDBRANCH  27  30
ENDBRANCH  26  27
ENDBRANCH   6  26
TORSDOF 8
ENDMDL
MODEL 8
REMARK VINA RESULT:      -7.1      2.356      4.842
REMARK  Name = 
REMARK  10 active torsions:
REMARK  status: ('A' for Active; 'I' for Inactive)
REMARK    1  A    between atoms: C_1  and  C_2
REMARK    2  A    between atoms: C_2  and  C_3
REMARK    3  A    between atoms: C_2  and  N_4
REMARK    4  A    between atoms: C_8  and  C_9
REMARK    5  A    between atoms: C_11  and  C_12
REMARK    6  A    between atoms: N_21  and  C_22
REMARK    7  A    between atoms: C_22  and  C_23
REMARK    8  A    between atoms: C_23  and  O_24
REMARK    9  A    between atoms: C_23  and  C_25
REMARK   10  A    between atoms: C_25  and  O_26
REMARK                            x       y       z     vdW  Elec       q    Type
REMARK                         _______ _______ _______ _____ _____    ______ ____
ROOT
ATOM      1  C   UNL     1       2.535   6.891  18.263  0.00  0.00    +0.000 A 
ATOM      2  C   UNL     1       3.598   6.739  17.403  0.00  0.00    +0.000 A 
ATOM      3  C   UNL     1       4.071   5.457  17.218  0.00  0.00    +0.000 A 
ATOM      4  N   UNL     1       3.479   4.398  17.820  0.00  0.00    +0.000 NA
ATOM      5  C   UNL     1       2.409   4.633  18.598  0.00  0.00    +0.000 A 
ATOM      6  N   UNL     1       1.744   3.597  19.226  0.00  0.00    +0.000 N 
ATOM      7  N   UNL     1       1.913   5.848  18.835  0.00  0.00    +0.000 NA
ATOM      8  H   UNL     1       0.767   3.618  18.945  0.00  0.00    +0.000 HD
ENDROOT
BRANCH   1  13
ATOM      9  N   UNL     1       0.535  10.912  20.808  0.00  0.00    +0.000 N 
ATOM     10  C   UNL     1       1.098  10.110  19.874  0.00  0.00    +0.000 A 
ATOM     11  N   UNL     1       1.402  10.453  18.645  0.00  0.00    +0.000 NA
ATOM     12  C   UNL     1       1.975   9.383  17.984  0.00  0.00    +0.000 A 
ATOM     13  C   UNL     1       2.057   8.201  18.696  0.00  0.00    +0.000 A 
ATOM     14  S   UNL     1       1.455   8.475  20.279  0.00  0.00    +0.000 S 
ATOM     15  H   UNL     1       0.193  10.443  21.638  0.00  0.00    +0.000 HD
BRANCH   9  17
ATOM     16  C   UNL     1      -1.579  12.071  21.098  0.00  0.00    +0.000 C 
ATOM     17  C   UNL     1      -0.222  12.087  20.391  0.00  0.00    +0.000 C 
ATOM     18  C   UNL     1       0.532  13.366  20.747  0.00  0.00    +0.000 C 
ENDBRANCH   9  17
ENDBRANCH   1  13
BRANCH   3  19
ATOM     19  C   UNL     1       5.206   5.159  16.310  0.00  0.00    +0.000 A 
ATOM     20  C   UNL     1       4.960   4.448  15.115  0.00  0.00    +0.000 A 
ATOM     21  C   UNL     1       5.966   4.212  14.171  0.00  0.00    +0.000 A 
ATOM     22  C   UNL     1       7.254   4.688  14.390  0.00  0.00    +0.000 A 
ATOM     23  C   UNL     1       7.540   5.364  15.570  0.00  0.00    +0.000 A 
ATOM     24  C   UNL     1       6.538   5.576  16.531  0.00  0.00    +0.000 A 
ATOM     25 CL   UNL     1       7.069   6.324  18.004  0.00  0.00    +0.000 Cl
ENDBRANCH   3  19
BRANCH   6  26
ATOM     26  C   UNL     1       2.363   2.286  19.220  0.00  0.00    +0.000 C 
BRANCH  26  27
ATOM     27  C   UNL     1       3.244   2.133  20.472  0.00  0.00    +0.000 C 
BRANCH  27  28
ATOM     28  O   UNL     1       4.592   2.521  20.159  0.00  0.00    +0.000 OA
ATOM     29  H   UNL     1       4.565   3.420  19.785  0.00  0.00    +0.000 HD
ENDBRANCH  27  28
BRANCH  27  30
ATOM     30  C   UNL     1       2.690   2.974  21.631  0.00  0.00    +0.000 C 
BRANCH  30  31
ATOM     31  O   UNL     1       1.444   2.465  22.101  0.00  0.00    +0.000 OA
ATOM     32  H   UNL     1       1.490   1.492  22.082  0.00  0.00    +0.000 HD
ENDBRANCH  30  31
ENDBRANCH  27  30
ENDBRANCH  26  27
ENDBRANCH   6  26
TORSDOF 8
ENDMDL
MODEL 9
REMARK VINA RESULT:      -7.1      2.074      4.438
REMARK  Name = 
REMARK  10 active torsions:
REMARK  status: ('A' for Active; 'I' for Inactive)
REMARK    1  A    between atoms: C_1  and  C_2
REMARK    2  A    between atoms: C_2  and  C_3
REMARK    3  A    between atoms: C_2  and  N_4
REMARK    4  A    between atoms: C_8  and  C_9
REMARK    5  A    between atoms: C_11  and  C_12
REMARK    6  A    between atoms: N_21  and  C_22
REMARK    7  A    between atoms: C_22  and  C_23
REMARK    8  A    between atoms: C_23  and  O_24
REMARK    9  A    between atoms: C_23  and  C_25
REMARK   10  A    between atoms: C_25  and  O_26
REMARK                            x       y       z     vdW  Elec       q    Type
REMARK                         _______ _______ _______ _____ _____    ______ ____
ROOT
ATOM      1  C   UNL     1       2.288   7.197  18.618  0.00  0.00    +0.000 A 
ATOM      2  C   UNL     1       3.401   6.965  17.845  0.00  0.00    +0.000 A 
ATOM      3  C   UNL     1       3.870   5.670  17.799  0.00  0.00    +0.000 A 
ATOM      4  N   UNL     1       3.228   4.669  18.447  0.00  0.00    +0.000 NA
ATOM      5  C   UNL     1       2.114   4.976  19.132  0.00  0.00    +0.000 A 
ATOM      6  N   UNL     1       1.397   4.001  19.800  0.00  0.00    +0.000 N 
ATOM      7  N   UNL     1       1.618   6.210  19.234  0.00  0.00    +0.000 NA
ATOM      8  H   UNL     1       0.440   4.005  19.457  0.00  0.00    +0.000 HD
ENDROOT
BRANCH   1  13
ATOM      9  N   UNL     1       1.059  12.210  18.560  0.00  0.00    +0.000 N 
ATOM     10  C   UNL     1       1.225  10.913  18.909  0.00  0.00    +0.000 A 
ATOM     11  N   UNL     1       0.922  10.382  20.069  0.00  0.00    +0.000 NA
ATOM     12  C   UNL     1       1.215   9.030  20.062  0.00  0.00    +0.000 A 
ATOM     13  C   UNL     1       1.799   8.542  18.908  0.00  0.00    +0.000 A 
ATOM     14  S   UNL     1       1.912   9.820  17.770  0.00  0.00    +0.000 S 
ATOM     15  H   UNL     1       1.517  12.494  17.702  0.00  0.00    +0.000 HD
BRANCH   9  17
ATOM     16  C   UNL     1       2.376  13.759  19.887  0.00  0.00    +0.000 C 
ATOM     17  C   UNL     1       0.969  13.233  19.596  0.00  0.00    +0.000 C 
ATOM     18  C   UNL     1       0.071  14.381  19.141  0.00  0.00    +0.000 C 
ENDBRANCH   9  17
ENDBRANCH   1  13
BRANCH   3  19
ATOM     19  C   UNL     1       5.057   5.288  16.994  0.00  0.00    +0.000 A 
ATOM     20  C   UNL     1       4.893   5.007  15.620  0.00  0.00    +0.000 A 
ATOM     21  C   UNL     1       5.981   4.730  14.784  0.00  0.00    +0.000 A 
ATOM     22  C   UNL     1       7.273   4.733  15.297  0.00  0.00    +0.000 A 
ATOM     23  C   UNL     1       7.469   4.974  16.652  0.00  0.00    +0.000 A 
ATOM     24  C   UNL     1       6.377   5.223  17.497  0.00  0.00    +0.000 A 
ATOM     25 CL   UNL     1       6.762   5.383  19.181  0.00  0.00    +0.000 Cl
ENDBRANCH   3  19
BRANCH   6  26
ATOM     26  C   UNL     1       1.999   2.690  19.944  0.00  0.00    +0.000 C 
BRANCH  26  27
ATOM     27  C   UNL     1       3.143   2.765  20.971  0.00  0.00    +0.000 C 
BRANCH  27  28
ATOM     28  O   UNL     1       2.699   2.218  22.224  0.00  0.00    +0.000 OA
ATOM     29  H   UNL     1       1.725   2.240  22.231  0.00  0.00    +0.000 HD
ENDBRANCH  27  28
BRANCH  27  30
ATOM     30  C   UNL     1       4.381   2.017  20.459  0.00  0.00    +0.000 C 
BRANCH  30  31
ATOM     31  O   UNL     1       4.473   2.065  19.036  0.00  0.00    +0.000 OA
ATOM     32  H   UNL     1       3.731   2.602  18.705  0.00  0.00    +0.000 HD
ENDBRANCH  30  31
ENDBRANCH  27  30
ENDBRANCH  26  27
ENDBRANCH   6  26
TORSDOF 8
ENDMDL
