MODEL 1
REMARK VINA RESULT:      -8.8      0.000      0.000
REMARK  Name = 
REMARK  4 active torsions:
REMARK  status: ('A' for Active; 'I' for Inactive)
REMARK    1  A    between atoms: C_1  and  C_2
REMARK    2  A    between atoms: C_7  and  C_8
REMARK    3  A    between atoms: C_15  and  N_16
REMARK    4  A    between atoms: N_16  and  C_17
REMARK                            x       y       z     vdW  Elec       q    Type
REMARK                         _______ _______ _______ _____ _____    ______ ____
ROOT
ATOM      1  C   UNL     1       8.251   9.030  17.256  0.00  0.00    +0.000 C 
ATOM      2  C   UNL     1       7.623   7.797  17.826  0.00  0.00    +0.000 A 
ATOM      3  C   UNL     1       8.382   6.950  18.740  0.00  0.00    +0.000 A 
ATOM      4  C   UNL     1       7.842   5.842  19.290  0.00  0.00    +0.000 A 
ATOM      5  C   UNL     1       6.490   5.498  19.013  0.00  0.00    +0.000 A 
ATOM      6  N   UNL     1       5.769   4.460  19.375  0.00  0.00    +0.000 NA
ATOM      7  C   UNL     1       4.509   4.686  18.861  0.00  0.00    +0.000 A 
ATOM      8  C   UNL     1       4.433   5.944  18.270  0.00  0.00    +0.000 A 
ATOM      9  N   UNL     1       5.759   6.369  18.211  0.00  0.00    +0.000 N 
ATOM     10  C   UNL     1       6.345   7.464  17.569  0.00  0.00    +0.000 A 
ENDROOT
BRANCH   7  11
ATOM     11  C   UNL     1       3.425   3.726  19.044  0.00  0.00    +0.000 A 
ATOM     12  C   UNL     1       2.937   3.022  17.932  0.00  0.00    +0.000 A 
ATOM     13  C   UNL     1       1.888   2.107  18.069  0.00  0.00    +0.000 A 
ATOM     14  C   UNL     1       1.317   1.886  19.321  0.00  0.00    +0.000 A 
ATOM     15  C   UNL     1       1.785   2.595  20.424  0.00  0.00    +0.000 A 
ATOM     16 CL   UNL     1       1.072   2.335  21.969  0.00  0.00    +0.000 Cl
ATOM     17  C   UNL     1       2.824   3.518  20.292  0.00  0.00    +0.000 A 
ENDBRANCH   7  11
BRANCH   8  18
ATOM     18  N   UNL     1       3.373   6.672  17.798  0.00  0.00    +0.000 N 
ATOM     19  H   UNL     1       2.830   6.271  17.034  0.00  0.00    +0.000 HD
BRANCH  18  20
ATOM     20  C   UNL     1       2.514   7.485  18.586  0.00  0.00    +0.000 A 
ATOM     21  C   UNL     1       2.156   7.151  19.914  0.00  0.00    +0.000 A 
ATOM     22  C   UNL     1       1.426   8.033  20.716  0.00  0.00    +0.000 A 
ATOM     23  C   UNL     1       1.037   9.226  20.153  0.00  0.00    +0.000 A 
ATOM     24  C   UNL     1       1.324   9.537  18.845  0.00  0.00    +0.000 A 
ATOM     25  C   UNL     1       2.045   8.685  18.032  0.00  0.00    +0.000 A 
ATOM     26  O   UNL     1       0.852  10.763  18.491  0.00  0.00    +0.000 OA
ATOM     27  C   UNL     1       0.367  11.237  19.764  0.00  0.00    +0.000 C 
ATOM     28  O   UNL     1       0.364  10.222  20.788  0.00  0.00    +0.000 OA
ENDBRANCH  18  20
ENDBRANCH   8  18
TORSDOF 3
ENDMDL
MODEL 2
REMARK VINA RESULT:      -8.8      0.631      1.344
REMARK  Name = 
REMARK  4 active torsions:
REMARK  status: ('A' for Active; 'I' for Inactive)
REMARK    1  A    between atoms: C_1  and  C_2
REMARK    2  A    between atoms: C_7  and  C_8
REMARK    3  A    between atoms: C_15  and  N_16
REMARK    4  A    between atoms: N_16  and  C_17
REMARK                            x       y       z     vdW  Elec       q    Type
REMARK                         _______ _______ _______ _____ _____    ______ ____
ROOT
ATOM      1  C   UNL     1       8.268   8.723  17.178  0.00  0.00    +0.000 C 
ATOM      2  C   UNL     1       7.576   7.556  17.808  0.00  0.00    +0.000 A 
ATOM      3  C   UNL     1       8.276   6.737  18.792  0.00  0.00    +0.000 A 
ATOM      4  C   UNL     1       7.677   5.690  19.396  0.00  0.00    +0.000 A 
ATOM      5  C   UNL     1       6.317   5.386  19.108  0.00  0.00    +0.000 A 
ATOM      6  N   UNL     1       5.545   4.404  19.515  0.00  0.00    +0.000 NA
ATOM      7  C   UNL     1       4.307   4.650  18.957  0.00  0.00    +0.000 A 
ATOM      8  C   UNL     1       4.299   5.870  18.286  0.00  0.00    +0.000 A 
ATOM      9  N   UNL     1       5.643   6.235  18.234  0.00  0.00    +0.000 N 
ATOM     10  C   UNL     1       6.290   7.261  17.541  0.00  0.00    +0.000 A 
ENDROOT
BRANCH   7  11
ATOM     11  C   UNL     1       3.179   3.749  19.172  0.00  0.00    +0.000 A 
ATOM     12  C   UNL     1       2.530   3.184  18.063  0.00  0.00    +0.000 A 
ATOM     13  C   UNL     1       1.436   2.330  18.233  0.00  0.00    +0.000 A 
ATOM     14  C   UNL     1       0.979   2.033  19.515  0.00  0.00    +0.000 A 
ATOM     15  C   UNL     1       1.606   2.605  20.618  0.00  0.00    +0.000 A 
ATOM     16 CL   UNL     1       1.034   2.251  22.203  0.00  0.00    +0.000 Cl
ATOM     17  C   UNL     1       2.692   3.467  20.454  0.00  0.00    +0.000 A 
ENDBRANCH   7  11
BRANCH   8  18
ATOM     18  N   UNL     1       3.282   6.610  17.744  0.00  0.00    +0.000 N 
ATOM     19  H   UNL     1       2.649   6.138  17.098  0.00  0.00    +0.000 HD
BRANCH  18  20
ATOM     20  C   UNL     1       2.564   7.639  18.410  0.00  0.00    +0.000 A 
ATOM     21  C   UNL     1       2.126   8.813  17.750  0.00  0.00    +0.000 A 
ATOM     22  C   UNL     1       1.302   9.744  18.388  0.00  0.00    +0.000 A 
ATOM     23  C   UNL     1       0.959   9.495  19.696  0.00  0.00    +0.000 A 
ATOM     24  C   UNL     1       1.428   8.391  20.369  0.00  0.00    +0.000 A 
ATOM     25  C   UNL     1       2.241   7.455  19.763  0.00  0.00    +0.000 A 
ATOM     26  O   UNL     1       0.966   8.334  21.648  0.00  0.00    +0.000 OA
ATOM     27  C   UNL     1       0.048   9.446  21.648  0.00  0.00    +0.000 C 
ATOM     28  O   UNL     1       0.135  10.259  20.461  0.00  0.00    +0.000 OA
ENDBRANCH  18  20
ENDBRANCH   8  18
TORSDOF 3
ENDMDL
MODEL 3
REMARK VINA RESULT:      -8.7      4.363      6.467
REMARK  Name = 
REMARK  4 active torsions:
REMARK  status: ('A' for Active; 'I' for Inactive)
REMARK    1  A    between atoms: C_1  and  C_2
REMARK    2  A    between atoms: C_7  and  C_8
REMARK    3  A    between atoms: C_15  and  N_16
REMARK    4  A    between atoms: N_16  and  C_17
REMARK                            x       y       z     vdW  Elec       q    Type
REMARK                         _______ _______ _______ _____ _____    ______ ____
ROOT
ATOM      1  C   UNL     1       4.123   2.782  11.144  0.00  0.00    +0.000 C 
ATOM      2  C   UNL     1       5.133   3.400  12.059  0.00  0.00    +0.000 A 
ATOM      3  C   UNL     1       6.477   3.692  11.570  0.00  0.00    +0.000 A 
ATOM      4  C   UNL     1       7.406   4.267  12.360  0.00  0.00    +0.000 A 
ATOM      5  C   UNL     1       7.076   4.640  13.693  0.00  0.00    +0.000 A 
ATOM      6  N   UNL     1       7.809   5.152  14.656  0.00  0.00    +0.000 NA
ATOM      7  C   UNL     1       6.943   5.359  15.711  0.00  0.00    +0.000 A 
ATOM      8  C   UNL     1       5.632   5.070  15.341  0.00  0.00    +0.000 A 
ATOM      9  N   UNL     1       5.763   4.434  14.108  0.00  0.00    +0.000 N 
ATOM     10  C   UNL     1       4.828   3.754  13.321  0.00  0.00    +0.000 A 
ENDROOT
BRANCH   7  11
ATOM     11  C   UNL     1       7.405   5.905  16.983  0.00  0.00    +0.000 A 
ATOM     12  C   UNL     1       7.503   5.060  18.099  0.00  0.00    +0.000 A 
ATOM     13  C   UNL     1       7.926   5.555  19.336  0.00  0.00    +0.000 A 
ATOM     14  C   UNL     1       8.256   6.902  19.470  0.00  0.00    +0.000 A 
ATOM     15  C   UNL     1       8.143   7.750  18.372  0.00  0.00    +0.000 A 
ATOM     16 CL   UNL     1       8.535   9.418  18.538  0.00  0.00    +0.000 Cl
ATOM     17  C   UNL     1       7.710   7.263  17.136  0.00  0.00    +0.000 A 
ENDBRANCH   7  11
BRANCH   8  18
ATOM     18  N   UNL     1       4.435   5.288  15.968  0.00  0.00    +0.000 N 
ATOM     19  H   UNL     1       3.633   5.524  15.383  0.00  0.00    +0.000 HD
BRANCH  18  20
ATOM     20  C   UNL     1       3.967   4.599  17.119  0.00  0.00    +0.000 A 
ATOM     21  C   UNL     1       4.303   3.250  17.388  0.00  0.00    +0.000 A 
ATOM     22  C   UNL     1       3.949   2.638  18.593  0.00  0.00    +0.000 A 
ATOM     23  C   UNL     1       3.231   3.385  19.497  0.00  0.00    +0.000 A 
ATOM     24  C   UNL     1       2.843   4.675  19.222  0.00  0.00    +0.000 A 
ATOM     25  C   UNL     1       3.181   5.305  18.042  0.00  0.00    +0.000 A 
ATOM     26  O   UNL     1       2.146   5.233  20.249  0.00  0.00    +0.000 OA
ATOM     27  C   UNL     1       2.266   4.196  21.245  0.00  0.00    +0.000 C 
ATOM     28  O   UNL     1       2.838   2.976  20.732  0.00  0.00    +0.000 OA
ENDBRANCH  18  20
ENDBRANCH   8  18
TORSDOF 3
ENDMDL
MODEL 4
REMARK VINA RESULT:      -8.6      4.526      6.611
REMARK  Name = 
REMARK  4 active torsions:
REMARK  status: ('A' for Active; 'I' for Inactive)
REMARK    1  A    between atoms: C_1  and  C_2
REMARK    2  A    between atoms: C_7  and  C_8
REMARK    3  A    between atoms: C_15  and  N_16
REMARK    4  A    between atoms: N_16  and  C_17
REMARK                            x       y       z     vdW  Elec       q    Type
REMARK                         _______ _______ _______ _____ _____    ______ ____
ROOT
ATOM      1  C   UNL     1       4.075   2.721  11.103  0.00  0.00    +0.000 C 
ATOM      2  C   UNL     1       5.096   3.344  12.002  0.00  0.00    +0.000 A 
ATOM      3  C   UNL     1       6.445   3.598  11.507  0.00  0.00    +0.000 A 
ATOM      4  C   UNL     1       7.385   4.177  12.281  0.00  0.00    +0.000 A 
ATOM      5  C   UNL     1       7.061   4.593  13.603  0.00  0.00    +0.000 A 
ATOM      6  N   UNL     1       7.803   5.117  14.552  0.00  0.00    +0.000 NA
ATOM      7  C   UNL     1       6.941   5.369  15.601  0.00  0.00    +0.000 A 
ATOM      8  C   UNL     1       5.625   5.095  15.237  0.00  0.00    +0.000 A 
ATOM      9  N   UNL     1       5.744   4.423  14.022  0.00  0.00    +0.000 N 
ATOM     10  C   UNL     1       4.797   3.739  13.253  0.00  0.00    +0.000 A 
ENDROOT
BRANCH   7  11
ATOM     11  C   UNL     1       7.412   5.942  16.857  0.00  0.00    +0.000 A 
ATOM     12  C   UNL     1       7.562   5.110  17.977  0.00  0.00    +0.000 A 
ATOM     13  C   UNL     1       7.996   5.630  19.201  0.00  0.00    +0.000 A 
ATOM     14  C   UNL     1       8.285   6.988  19.317  0.00  0.00    +0.000 A 
ATOM     15  C   UNL     1       8.120   7.822  18.214  0.00  0.00    +0.000 A 
ATOM     16 CL   UNL     1       8.461   9.503  18.357  0.00  0.00    +0.000 Cl
ATOM     17  C   UNL     1       7.676   7.311  16.992  0.00  0.00    +0.000 A 
ENDBRANCH   7  11
BRANCH   8  18
ATOM     18  N   UNL     1       4.431   5.353  15.857  0.00  0.00    +0.000 N 
ATOM     19  H   UNL     1       3.585   5.300  15.289  0.00  0.00    +0.000 HD
BRANCH  18  20
ATOM     20  C   UNL     1       4.102   5.002  17.194  0.00  0.00    +0.000 A 
ATOM     21  C   UNL     1       4.031   5.958  18.236  0.00  0.00    +0.000 A 
ATOM     22  C   UNL     1       3.569   5.613  19.510  0.00  0.00    +0.000 A 
ATOM     23  C   UNL     1       3.219   4.301  19.723  0.00  0.00    +0.000 A 
ATOM     24  C   UNL     1       3.343   3.350  18.738  0.00  0.00    +0.000 A 
ATOM     25  C   UNL     1       3.794   3.663  17.472  0.00  0.00    +0.000 A 
ATOM     26  O   UNL     1       2.939   2.119  19.157  0.00  0.00    +0.000 OA
ATOM     27  C   UNL     1       2.419   2.442  20.463  0.00  0.00    +0.000 C 
ATOM     28  O   UNL     1       2.710   3.792  20.876  0.00  0.00    +0.000 OA
ENDBRANCH  18  20
ENDBRANCH   8  18
TORSDOF 3
ENDMDL
MODEL 5
REMARK VINA RESULT:      -8.2      4.503      6.727
REMARK  Name = 
REMARK  4 active torsions:
REMARK  status: ('A' for Active; 'I' for Inactive)
REMARK    1  A    between atoms: C_1  and  C_2
REMARK    2  A    between atoms: C_7  and  C_8
REMARK    3  A    between atoms: C_15  and  N_16
REMARK    4  A    between atoms: N_16  and  C_17
REMARK                            x       y       z     vdW  Elec       q    Type
REMARK                         _______ _______ _______ _____ _____    ______ ____
ROOT
ATOM      1  C   UNL     1       4.087   2.807  11.270  0.00  0.00    +0.000 C 
ATOM      2  C   UNL     1       5.102   3.461  12.154  0.00  0.00    +0.000 A 
ATOM      3  C   UNL     1       6.404   3.837  11.615  0.00  0.00    +0.000 A 
ATOM      4  C   UNL     1       7.336   4.446  12.377  0.00  0.00    +0.000 A 
ATOM      5  C   UNL     1       7.045   4.773  13.731  0.00  0.00    +0.000 A 
ATOM      6  N   UNL     1       7.791   5.304  14.673  0.00  0.00    +0.000 NA
ATOM      7  C   UNL     1       6.963   5.442  15.769  0.00  0.00    +0.000 A 
ATOM      8  C   UNL     1       5.655   5.089  15.449  0.00  0.00    +0.000 A 
ATOM      9  N   UNL     1       5.765   4.486  14.197  0.00  0.00    +0.000 N 
ATOM     10  C   UNL     1       4.834   3.772  13.436  0.00  0.00    +0.000 A 
ENDROOT
BRANCH   7  11
ATOM     11  C   UNL     1       7.451   5.987  17.031  0.00  0.00    +0.000 A 
ATOM     12  C   UNL     1       7.598   5.134  18.136  0.00  0.00    +0.000 A 
ATOM     13  C   UNL     1       8.047   5.628  19.366  0.00  0.00    +0.000 A 
ATOM     14  C   UNL     1       8.354   6.980  19.502  0.00  0.00    +0.000 A 
ATOM     15  C   UNL     1       8.193   7.834  18.415  0.00  0.00    +0.000 A 
ATOM     16 CL   UNL     1       8.557   9.508  18.584  0.00  0.00    +0.000 Cl
ATOM     17  C   UNL     1       7.734   7.349  17.188  0.00  0.00    +0.000 A 
ENDBRANCH   7  11
BRANCH   8  18
ATOM     18  N   UNL     1       4.476   5.228  16.132  0.00  0.00    +0.000 N 
ATOM     19  H   UNL     1       3.688   5.636  15.631  0.00  0.00    +0.000 HD
BRANCH  18  20
ATOM     20  C   UNL     1       3.974   4.324  17.106  0.00  0.00    +0.000 A 
ATOM     21  C   UNL     1       4.767   3.836  18.173  0.00  0.00    +0.000 A 
ATOM     22  C   UNL     1       4.215   3.061  19.196  0.00  0.00    +0.000 A 
ATOM     23  C   UNL     1       2.876   2.759  19.110  0.00  0.00    +0.000 A 
ATOM     24  C   UNL     1       2.108   3.173  18.047  0.00  0.00    +0.000 A 
ATOM     25  C   UNL     1       2.627   3.941  17.025  0.00  0.00    +0.000 A 
ATOM     26  O   UNL     1       0.813   2.770  18.160  0.00  0.00    +0.000 OA
ATOM     27  C   UNL     1       0.832   2.183  19.477  0.00  0.00    +0.000 C 
ATOM     28  O   UNL     1       2.159   2.059  20.028  0.00  0.00    +0.000 OA
ENDBRANCH  18  20
ENDBRANCH   8  18
TORSDOF 3
ENDMDL
MODEL 6
REMARK VINA RESULT:      -8.1      3.536      6.839
REMARK  Name = 
REMARK  4 active torsions:
REMARK  status: ('A' for Active; 'I' for Inactive)
REMARK    1  A    between atoms: C_1  and  C_2
REMARK    2  A    between atoms: C_7  and  C_8
REMARK    3  A    between atoms: C_15  and  N_16
REMARK    4  A    between atoms: N_16  and  C_17
REMARK                            x       y       z     vdW  Elec       q    Type
REMARK                         _______ _______ _______ _____ _____    ______ ____
ROOT
ATOM      1  C   UNL     1       3.505   1.531  18.186  0.00  0.00    +0.000 C 
ATOM      2  C   UNL     1       2.907   2.652  18.976  0.00  0.00    +0.000 A 
ATOM      3  C   UNL     1       2.283   2.382  20.267  0.00  0.00    +0.000 A 
ATOM      4  C   UNL     1       1.752   3.371  21.016  0.00  0.00    +0.000 A 
ATOM      5  C   UNL     1       1.828   4.720  20.571  0.00  0.00    +0.000 A 
ATOM      6  N   UNL     1       1.345   5.829  21.084  0.00  0.00    +0.000 NA
ATOM      7  C   UNL     1       1.778   6.842  20.251  0.00  0.00    +0.000 A 
ATOM      8  C   UNL     1       2.637   6.346  19.273  0.00  0.00    +0.000 A 
ATOM      9  N   UNL     1       2.506   4.963  19.380  0.00  0.00    +0.000 N 
ATOM     10  C   UNL     1       2.973   3.931  18.561  0.00  0.00    +0.000 A 
ENDROOT
BRANCH   7  11
ATOM     11  C   UNL     1       1.419   8.235  20.493  0.00  0.00    +0.000 A 
ATOM     12  C   UNL     1       1.178   8.664  21.807  0.00  0.00    +0.000 A 
ATOM     13  C   UNL     1       0.815   9.989  22.072  0.00  0.00    +0.000 A 
ATOM     14  C   UNL     1       0.690  10.898  21.024  0.00  0.00    +0.000 A 
ATOM     15  C   UNL     1       0.910  10.474  19.716  0.00  0.00    +0.000 A 
ATOM     16 CL   UNL     1       0.741  11.592  18.418  0.00  0.00    +0.000 Cl
ATOM     17  C   UNL     1       1.261   9.150  19.445  0.00  0.00    +0.000 A 
ENDBRANCH   7  11
BRANCH   8  18
ATOM     18  N   UNL     1       3.440   6.973  18.359  0.00  0.00    +0.000 N 
ATOM     19  H   UNL     1       3.540   7.985  18.436  0.00  0.00    +0.000 HD
BRANCH  18  20
ATOM     20  C   UNL     1       4.637   6.441  17.809  0.00  0.00    +0.000 A 
ATOM     21  C   UNL     1       5.668   5.895  18.612  0.00  0.00    +0.000 A 
ATOM     22  C   UNL     1       6.770   5.251  18.044  0.00  0.00    +0.000 A 
ATOM     23  C   UNL     1       6.836   5.197  16.672  0.00  0.00    +0.000 A 
ATOM     24  C   UNL     1       5.874   5.778  15.879  0.00  0.00    +0.000 A 
ATOM     25  C   UNL     1       4.774   6.418  16.413  0.00  0.00    +0.000 A 
ATOM     26  O   UNL     1       6.127   5.606  14.553  0.00  0.00    +0.000 OA
ATOM     27  C   UNL     1       7.275   4.735  14.613  0.00  0.00    +0.000 C 
ATOM     28  O   UNL     1       7.803   4.578  15.946  0.00  0.00    +0.000 OA
ENDBRANCH  18  20
ENDBRANCH   8  18
TORSDOF 3
ENDMDL
MODEL 7
REMARK VINA RESULT:      -8.0      4.231      6.103
REMARK  Name = 
REMARK  4 active torsions:
REMARK  status: ('A' for Active; 'I' for Inactive)
REMARK    1  A    between atoms: C_1  and  C_2
REMARK    2  A    between atoms: C_7  and  C_8
REMARK    3  A    between atoms: C_15  and  N_16
REMARK    4  A    between atoms: N_16  and  C_17
REMARK                            x       y       z     vdW  Elec       q    Type
REMARK                         _______ _______ _______ _____ _____    ______ ____
ROOT
ATOM      1  C   UNL     1       4.797   2.285  11.109  0.00  0.00    +0.000 C 
ATOM      2  C   UNL     1       5.632   3.149  12.000  0.00  0.00    +0.000 A 
ATOM      3  C   UNL     1       6.707   3.958  11.433  0.00  0.00    +0.000 A 
ATOM      4  C   UNL     1       7.466   4.764  12.203  0.00  0.00    +0.000 A 
ATOM      5  C   UNL     1       7.203   4.871  13.597  0.00  0.00    +0.000 A 
ATOM      6  N   UNL     1       7.826   5.531  14.548  0.00  0.00    +0.000 NA
ATOM      7  C   UNL     1       7.090   5.312  15.695  0.00  0.00    +0.000 A 
ATOM      8  C   UNL     1       5.931   4.593  15.411  0.00  0.00    +0.000 A 
ATOM      9  N   UNL     1       6.116   4.160  14.100  0.00  0.00    +0.000 N 
ATOM     10  C   UNL     1       5.390   3.255  13.320  0.00  0.00    +0.000 A 
ENDROOT
BRANCH   7  11
ATOM     11  C   UNL     1       7.490   5.878  16.979  0.00  0.00    +0.000 A 
ATOM     12  C   UNL     1       7.530   5.049  18.112  0.00  0.00    +0.000 A 
ATOM     13  C   UNL     1       7.892   5.563  19.361  0.00  0.00    +0.000 A 
ATOM     14  C   UNL     1       8.220   6.911  19.490  0.00  0.00    +0.000 A 
ATOM     15  C   UNL     1       8.164   7.742  18.374  0.00  0.00    +0.000 A 
ATOM     16 CL   UNL     1       8.554   9.411  18.533  0.00  0.00    +0.000 Cl
ATOM     17  C   UNL     1       7.792   7.237  17.126  0.00  0.00    +0.000 A 
ENDBRANCH   7  11
BRANCH   8  18
ATOM     18  N   UNL     1       4.828   4.300  16.167  0.00  0.00    +0.000 N 
ATOM     19  H   UNL     1       4.716   3.335  16.479  0.00  0.00    +0.000 HD
BRANCH  18  20
ATOM     20  C   UNL     1       4.234   5.159  17.130  0.00  0.00    +0.000 A 
ATOM     21  C   UNL     1       4.092   6.553  16.922  0.00  0.00    +0.000 A 
ATOM     22  C   UNL     1       3.380   7.354  17.819  0.00  0.00    +0.000 A 
ATOM     23  C   UNL     1       2.850   6.744  18.931  0.00  0.00    +0.000 A 
ATOM     24  C   UNL     1       3.034   5.403  19.178  0.00  0.00    +0.000 A 
ATOM     25  C   UNL     1       3.731   4.589  18.308  0.00  0.00    +0.000 A 
ATOM     26  O   UNL     1       2.426   5.003  20.328  0.00  0.00    +0.000 OA
ATOM     27  C   UNL     1       1.727   6.211  20.692  0.00  0.00    +0.000 C 
ATOM     28  O   UNL     1       2.094   7.348  19.885  0.00  0.00    +0.000 OA
ENDBRANCH  18  20
ENDBRANCH   8  18
TORSDOF 3
ENDMDL
MODEL 8
REMARK VINA RESULT:      -7.9      3.424      6.728
REMARK  Name = 
REMARK  4 active torsions:
REMARK  status: ('A' for Active; 'I' for Inactive)
REMARK    1  A    between atoms: C_1  and  C_2
REMARK    2  A    between atoms: C_7  and  C_8
REMARK    3  A    between atoms: C_15  and  N_16
REMARK    4  A    between atoms: N_16  and  C_17
REMARK                            x       y       z     vdW  Elec       q    Type
REMARK                         _______ _______ _______ _____ _____    ______ ____
ROOT
ATOM      1  C   UNL     1       3.607   1.460  18.566  0.00  0.00    +0.000 C 
ATOM      2  C   UNL     1       2.987   2.636  19.252  0.00  0.00    +0.000 A 
ATOM      3  C   UNL     1       2.419   2.485  20.588  0.00  0.00    +0.000 A 
ATOM      4  C   UNL     1       1.871   3.527  21.245  0.00  0.00    +0.000 A 
ATOM      5  C   UNL     1       1.872   4.821  20.655  0.00  0.00    +0.000 A 
ATOM      6  N   UNL     1       1.359   5.960  21.063  0.00  0.00    +0.000 NA
ATOM      7  C   UNL     1       1.719   6.892  20.110  0.00  0.00    +0.000 A 
ATOM      8  C   UNL     1       2.566   6.327  19.160  0.00  0.00    +0.000 A 
ATOM      9  N   UNL     1       2.499   4.960  19.419  0.00  0.00    +0.000 N 
ATOM     10  C   UNL     1       2.984   3.863  18.700  0.00  0.00    +0.000 A 
ENDROOT
BRANCH   7  11
ATOM     11  C   UNL     1       1.307   8.288  20.213  0.00  0.00    +0.000 A 
ATOM     12  C   UNL     1       1.557   9.158  19.140  0.00  0.00    +0.000 A 
ATOM     13  C   UNL     1       1.190  10.506  19.212  0.00  0.00    +0.000 A 
ATOM     14  C   UNL     1       0.569  10.997  20.359  0.00  0.00    +0.000 A 
ATOM     15  C   UNL     1       0.336  10.144  21.433  0.00  0.00    +0.000 A 
ATOM     16 CL   UNL     1      -0.417  10.751  22.857  0.00  0.00    +0.000 Cl
ATOM     17  C   UNL     1       0.710   8.799  21.372  0.00  0.00    +0.000 A 
ENDBRANCH   7  11
BRANCH   8  18
ATOM     18  N   UNL     1       3.310   6.882  18.153  0.00  0.00    +0.000 N 
ATOM     19  H   UNL     1       3.327   7.899  18.086  0.00  0.00    +0.000 HD
BRANCH  18  20
ATOM     20  C   UNL     1       4.544   6.376  17.663  0.00  0.00    +0.000 A 
ATOM     21  C   UNL     1       5.555   5.874  18.518  0.00  0.00    +0.000 A 
ATOM     22  C   UNL     1       6.698   5.253  18.008  0.00  0.00    +0.000 A 
ATOM     23  C   UNL     1       6.823   5.178  16.641  0.00  0.00    +0.000 A 
ATOM     24  C   UNL     1       5.879   5.717  15.798  0.00  0.00    +0.000 A 
ATOM     25  C   UNL     1       4.740   6.334  16.275  0.00  0.00    +0.000 A 
ATOM     26  O   UNL     1       6.193   5.531  14.487  0.00  0.00    +0.000 OA
ATOM     27  C   UNL     1       7.361   4.694  14.611  0.00  0.00    +0.000 C 
ATOM     28  O   UNL     1       7.837   4.575  15.967  0.00  0.00    +0.000 OA
ENDBRANCH  18  20
ENDBRANCH   8  18
TORSDOF 3
ENDMDL
MODEL 9
REMARK VINA RESULT:      -7.7      3.703      6.778
REMARK  Name = 
REMARK  4 active torsions:
REMARK  status: ('A' for Active; 'I' for Inactive)
REMARK    1  A    between atoms: C_1  and  C_2
REMARK    2  A    between atoms: C_7  and  C_8
REMARK    3  A    between atoms: C_15  and  N_16
REMARK    4  A    between atoms: N_16  and  C_17
REMARK                            x       y       z     vdW  Elec       q    Type
REMARK                         _______ _______ _______ _____ _____    ______ ____
ROOT
ATOM      1  C   UNL     1       4.851   0.898  20.448  0.00  0.00    +0.000 C 
ATOM      2  C   UNL     1       3.998   2.124  20.533  0.00  0.00    +0.000 A 
ATOM      3  C   UNL     1       2.945   2.211  21.540  0.00  0.00    +0.000 A 
ATOM      4  C   UNL     1       2.170   3.308  21.660  0.00  0.00    +0.000 A 
ATOM      5  C   UNL     1       2.395   4.433  20.818  0.00  0.00    +0.000 A 
ATOM      6  N   UNL     1       1.750   5.573  20.706  0.00  0.00    +0.000 NA
ATOM      7  C   UNL     1       2.452   6.305  19.769  0.00  0.00    +0.000 A 
ATOM      8  C   UNL     1       3.613   5.638  19.387  0.00  0.00    +0.000 A 
ATOM      9  N   UNL     1       3.462   4.362  19.926  0.00  0.00    +0.000 N 
ATOM     10  C   UNL     1       4.203   3.191  19.740  0.00  0.00    +0.000 A 
ENDROOT
BRANCH   7  11
ATOM     11  C   UNL     1       2.020   7.637  19.361  0.00  0.00    +0.000 A 
ATOM     12  C   UNL     1       2.292   8.077  18.056  0.00  0.00    +0.000 A 
ATOM     13  C   UNL     1       1.907   9.355  17.637  0.00  0.00    +0.000 A 
ATOM     14  C   UNL     1       1.244  10.206  18.520  0.00  0.00    +0.000 A 
ATOM     15  C   UNL     1       0.988   9.782  19.821  0.00  0.00    +0.000 A 
ATOM     16 CL   UNL     1       0.184  10.836  20.919  0.00  0.00    +0.000 Cl
ATOM     17  C   UNL     1       1.380   8.511  20.248  0.00  0.00    +0.000 A 
ENDBRANCH   7  11
BRANCH   8  18
ATOM     18  N   UNL     1       4.692   6.032  18.642  0.00  0.00    +0.000 N 
ATOM     19  H   UNL     1       5.510   6.375  19.145  0.00  0.00    +0.000 HD
BRANCH  18  20
ATOM     20  C   UNL     1       5.125   5.429  17.431  0.00  0.00    +0.000 A 
ATOM     21  C   UNL     1       4.355   4.458  16.746  0.00  0.00    +0.000 A 
ATOM     22  C   UNL     1       4.734   3.983  15.487  0.00  0.00    +0.000 A 
ATOM     23  C   UNL     1       5.904   4.469  14.952  0.00  0.00    +0.000 A 
ATOM     24  C   UNL     1       6.694   5.365  15.634  0.00  0.00    +0.000 A 
ATOM     25  C   UNL     1       6.342   5.852  16.877  0.00  0.00    +0.000 A 
ATOM     26  O   UNL     1       7.801   5.718  14.926  0.00  0.00    +0.000 OA
ATOM     27  C   UNL     1       7.538   5.052  13.673  0.00  0.00    +0.000 C 
ATOM     28  O   UNL     1       6.407   4.159  13.729  0.00  0.00    +0.000 OA
ENDBRANCH  18  20
ENDBRANCH   8  18
TORSDOF 3
ENDMDL
