MODEL 1
REMARK VINA RESULT:      -7.8      0.000      0.000
REMARK  Name = 
REMARK  11 active torsions:
REMARK  status: ('A' for Active; 'I' for Inactive)
REMARK    1  A    between atoms: C_1  and  N_2
REMARK    2  A    between atoms: N_2  and  C_3
REMARK    3  A    between atoms: N_2  and  C_25
REMARK    4  A    between atoms: C_3  and  C_4
REMARK    5  A    between atoms: C_4  and  N_5
REMARK    6  A    between atoms: C_6  and  C_8
REMARK    7  A    between atoms: C_8  and  C_9
REMARK    8  A    between atoms: C_9  and  N_10
REMARK    9  A    between atoms: C_11  and  C_13
REMARK   10  A    between atoms: C_13  and  N_14
REMARK   11  A    between atoms: C_25  and  C_26
REMARK                            x       y       z     vdW  Elec       q    Type
REMARK                         _______ _______ _______ _____ _____    ______ ____
ROOT
ATOM      1  C   UNL     1       8.133   8.366  17.900  0.00  0.00    +0.000 C 
ENDROOT
BRANCH   1   2
ATOM      2  N   UNL     1       7.077   7.804  17.073  0.00  0.00    +0.000 N 
ATOM      3  C   UNL     1       6.891   6.438  16.972  0.00  0.00    +0.000 C 
ATOM      4  O   UNL     1       7.631   5.603  17.485  0.00  0.00    +0.000 OA
ATOM      5  H   UNL     1       6.648   8.384  16.359  0.00  0.00    +0.000 HD
BRANCH   3   6
ATOM      6  C   UNL     1       5.713   6.024  16.099  0.00  0.00    +0.000 C 
BRANCH   6   7
ATOM      7  N   UNL     1       4.623   5.543  16.938  0.00  0.00    +0.000 N 
ATOM      8  C   UNL     1       3.908   6.447  17.702  0.00  0.00    +0.000 A 
ATOM      9  C   UNL     1       2.885   6.074  18.478  0.00  0.00    +0.000 A 
ATOM     10  C   UNL     1       2.490   4.669  18.514  0.00  0.00    +0.000 A 
ATOM     11  C   UNL     1       1.368   4.256  19.236  0.00  0.00    +0.000 A 
ATOM     12  C   UNL     1       1.000   2.908  19.256  0.00  0.00    +0.000 A 
ATOM     13  C   UNL     1       1.762   1.963  18.563  0.00  0.00    +0.000 A 
ATOM     14  C   UNL     1       2.887   2.363  17.842  0.00  0.00    +0.000 A 
ATOM     15  C   UNL     1       3.242   3.717  17.810  0.00  0.00    +0.000 A 
ATOM     16  C   UNL     1       4.405   4.164  16.998  0.00  0.00    +0.000 A 
ATOM     17  O   UNL     1       5.111   3.345  16.412  0.00  0.00    +0.000 OA
ENDBRANCH   6   7
ENDBRANCH   3   6
ENDBRANCH   1   2
BRANCH   1  18
ATOM     18  C   UNL     1       8.113   9.894  17.920  0.00  0.00    +0.000 C 
BRANCH  18  20
ATOM     19  N   UNL     1      10.142  11.234  18.022  0.00  0.00    +0.000 N 
ATOM     20  C   UNL     1       9.245  10.466  18.744  0.00  0.00    +0.000 C 
ATOM     21  O   UNL     1       9.374  10.249  19.943  0.00  0.00    +0.000 OA
ATOM     22  H   UNL     1      10.284  10.991  17.050  0.00  0.00    +0.000 HD
BRANCH  19  23
ATOM     23  C   UNL     1      11.223  11.886  18.742  0.00  0.00    +0.000 C 
BRANCH  23  24
ATOM     24  C   UNL     1      10.920  13.349  19.123  0.00  0.00    +0.000 C 
BRANCH  24  26
ATOM     25  C   UNL     1      11.588  14.410  17.039  0.00  0.00    +0.000 C 
ATOM     26  N   UNL     1      10.481  14.179  17.980  0.00  0.00    +0.000 NA
BRANCH  26  27
ATOM     27  C   UNL     1       9.920  15.462  18.455  0.00  0.00    +0.000 C 
BRANCH  27  28
ATOM     28  C   UNL     1       8.428  15.385  18.726  0.00  0.00    +0.000 A 
ATOM     29  C   UNL     1       7.937  15.523  20.033  0.00  0.00    +0.000 A 
ATOM     30  C   UNL     1       6.581  15.333  20.305  0.00  0.00    +0.000 A 
ATOM     31  C   UNL     1       5.701  15.008  19.273  0.00  0.00    +0.000 A 
ATOM     32  C   UNL     1       6.172  14.899  17.966  0.00  0.00    +0.000 A 
ATOM     33  C   UNL     1       7.527  15.093  17.691  0.00  0.00    +0.000 A 
ENDBRANCH  27  28
ENDBRANCH  26  27
ENDBRANCH  24  26
ENDBRANCH  23  24
ENDBRANCH  19  23
ENDBRANCH  18  20
ENDBRANCH   1  18
TORSDOF 10
ENDMDL
MODEL 2
REMARK VINA RESULT:      -7.7      2.052      2.481
REMARK  Name = 
REMARK  11 active torsions:
REMARK  status: ('A' for Active; 'I' for Inactive)
REMARK    1  A    between atoms: C_1  and  N_2
REMARK    2  A    between atoms: N_2  and  C_3
REMARK    3  A    between atoms: N_2  and  C_25
REMARK    4  A    between atoms: C_3  and  C_4
REMARK    5  A    between atoms: C_4  and  N_5
REMARK    6  A    between atoms: C_6  and  C_8
REMARK    7  A    between atoms: C_8  and  C_9
REMARK    8  A    between atoms: C_9  and  N_10
REMARK    9  A    between atoms: C_11  and  C_13
REMARK   10  A    between atoms: C_13  and  N_14
REMARK   11  A    between atoms: C_25  and  C_26
REMARK                            x       y       z     vdW  Elec       q    Type
REMARK                         _______ _______ _______ _____ _____    ______ ____
ROOT
ATOM      1  C   UNL     1       8.562   8.876  18.270  0.00  0.00    +0.000 C 
ENDROOT
BRANCH   1   2
ATOM      2  N   UNL     1       7.719   8.200  17.296  0.00  0.00    +0.000 N 
ATOM      3  C   UNL     1       7.281   6.904  17.500  0.00  0.00    +0.000 C 
ATOM      4  O   UNL     1       7.626   6.202  18.447  0.00  0.00    +0.000 OA
ATOM      5  H   UNL     1       7.671   8.561  16.349  0.00  0.00    +0.000 HD
BRANCH   3   6
ATOM      6  C   UNL     1       6.373   6.365  16.402  0.00  0.00    +0.000 C 
BRANCH   6   7
ATOM      7  N   UNL     1       5.146   5.843  16.989  0.00  0.00    +0.000 N 
ATOM      8  C   UNL     1       4.245   6.720  17.562  0.00  0.00    +0.000 A 
ATOM      9  C   UNL     1       3.092   6.309  18.100  0.00  0.00    +0.000 A 
ATOM     10  C   UNL     1       2.757   4.888  18.073  0.00  0.00    +0.000 A 
ATOM     11  C   UNL     1       1.521   4.432  18.538  0.00  0.00    +0.000 A 
ATOM     12  C   UNL     1       1.214   3.069  18.501  0.00  0.00    +0.000 A 
ATOM     13  C   UNL     1       2.149   2.153  18.009  0.00  0.00    +0.000 A 
ATOM     14  C   UNL     1       3.387   2.597  17.546  0.00  0.00    +0.000 A 
ATOM     15  C   UNL     1       3.684   3.965  17.569  0.00  0.00    +0.000 A 
ATOM     16  C   UNL     1       4.978   4.457  17.024  0.00  0.00    +0.000 A 
ATOM     17  O   UNL     1       5.829   3.665  16.622  0.00  0.00    +0.000 OA
ENDBRANCH   6   7
ENDBRANCH   3   6
ENDBRANCH   1   2
BRANCH   1  18
ATOM     18  C   UNL     1       8.426  10.397  18.207  0.00  0.00    +0.000 C 
BRANCH  18  20
ATOM     19  N   UNL     1      10.011  11.371  19.777  0.00  0.00    +0.000 N 
ATOM     20  C   UNL     1       9.746  11.095  18.446  0.00  0.00    +0.000 C 
ATOM     21  O   UNL     1      10.508  11.413  17.539  0.00  0.00    +0.000 OA
ATOM     22  H   UNL     1       9.219  11.547  20.380  0.00  0.00    +0.000 HD
BRANCH  19  23
ATOM     23  C   UNL     1      11.290  11.974  20.111  0.00  0.00    +0.000 C 
BRANCH  23  24
ATOM     24  C   UNL     1      11.244  13.511  20.216  0.00  0.00    +0.000 C 
BRANCH  24  26
ATOM     25  C   UNL     1       9.635  15.189  19.502  0.00  0.00    +0.000 C 
ATOM     26  N   UNL     1       9.879  14.051  20.401  0.00  0.00    +0.000 NA
BRANCH  26  27
ATOM     27  C   UNL     1       9.660  14.439  21.811  0.00  0.00    +0.000 C 
BRANCH  27  28
ATOM     28  C   UNL     1       8.523  13.670  22.461  0.00  0.00    +0.000 A 
ATOM     29  C   UNL     1       8.766  12.433  23.077  0.00  0.00    +0.000 A 
ATOM     30  C   UNL     1       7.709  11.665  23.568  0.00  0.00    +0.000 A 
ATOM     31  C   UNL     1       6.399  12.128  23.455  0.00  0.00    +0.000 A 
ATOM     32  C   UNL     1       6.147  13.370  22.873  0.00  0.00    +0.000 A 
ATOM     33  C   UNL     1       7.204  14.140  22.384  0.00  0.00    +0.000 A 
ENDBRANCH  27  28
ENDBRANCH  26  27
ENDBRANCH  24  26
ENDBRANCH  23  24
ENDBRANCH  19  23
ENDBRANCH  18  20
ENDBRANCH   1  18
TORSDOF 10
ENDMDL
MODEL 3
REMARK VINA RESULT:      -7.5      5.317      8.687
REMARK  Name = 
REMARK  11 active torsions:
REMARK  status: ('A' for Active; 'I' for Inactive)
REMARK    1  A    between atoms: C_1  and  N_2
REMARK    2  A    between atoms: N_2  and  C_3
REMARK    3  A    between atoms: N_2  and  C_25
REMARK    4  A    between atoms: C_3  and  C_4
REMARK    5  A    between atoms: C_4  and  N_5
REMARK    6  A    between atoms: C_6  and  C_8
REMARK    7  A    between atoms: C_8  and  C_9
REMARK    8  A    between atoms: C_9  and  N_10
REMARK    9  A    between atoms: C_11  and  C_13
REMARK   10  A    between atoms: C_13  and  N_14
REMARK   11  A    between atoms: C_25  and  C_26
REMARK                            x       y       z     vdW  Elec       q    Type
REMARK                         _______ _______ _______ _____ _____    ______ ____
ROOT
ATOM      1  C   UNL     1       1.196   3.338  20.050  0.00  0.00    +0.000 C 
ENDROOT
BRANCH   1   2
ATOM      2  N   UNL     1       1.990   4.557  20.063  0.00  0.00    +0.000 N 
ATOM      3  C   UNL     1       2.017   5.410  18.976  0.00  0.00    +0.000 C 
ATOM      4  O   UNL     1       1.462   5.178  17.905  0.00  0.00    +0.000 OA
ATOM      5  H   UNL     1       2.733   4.654  20.747  0.00  0.00    +0.000 HD
BRANCH   3   6
ATOM      6  C   UNL     1       2.864   6.660  19.175  0.00  0.00    +0.000 C 
BRANCH   6   7
ATOM      7  N   UNL     1       2.022   7.760  19.627  0.00  0.00    +0.000 N 
ATOM      8  C   UNL     1       1.482   7.720  20.899  0.00  0.00    +0.000 A 
ATOM      9  C   UNL     1       0.717   8.705  21.381  0.00  0.00    +0.000 A 
ATOM     10  C   UNL     1       0.450   9.875  20.549  0.00  0.00    +0.000 A 
ATOM     11  C   UNL     1      -0.264  10.966  21.052  0.00  0.00    +0.000 A 
ATOM     12  C   UNL     1      -0.507  12.080  20.245  0.00  0.00    +0.000 A 
ATOM     13  C   UNL     1      -0.048  12.103  18.924  0.00  0.00    +0.000 A 
ATOM     14  C   UNL     1       0.662  11.018  18.411  0.00  0.00    +0.000 A 
ATOM     15  C   UNL     1       0.918   9.910  19.228  0.00  0.00    +0.000 A 
ATOM     16  C   UNL     1       1.725   8.772  18.711  0.00  0.00    +0.000 A 
ATOM     17  O   UNL     1       2.105   8.755  17.542  0.00  0.00    +0.000 OA
ENDBRANCH   6   7
ENDBRANCH   3   6
ENDBRANCH   1   2
BRANCH   1  18
ATOM     18  C   UNL     1       2.015   2.108  19.661  0.00  0.00    +0.000 C 
BRANCH  18  20
ATOM     19  N   UNL     1       3.300   2.540  17.638  0.00  0.00    +0.000 N 
ATOM     20  C   UNL     1       3.334   2.484  19.022  0.00  0.00    +0.000 C 
ATOM     21  O   UNL     1       4.353   2.696  19.668  0.00  0.00    +0.000 OA
ATOM     22  H   UNL     1       2.656   1.920  17.165  0.00  0.00    +0.000 HD
BRANCH  19  23
ATOM     23  C   UNL     1       4.500   2.965  16.939  0.00  0.00    +0.000 C 
BRANCH  23  24
ATOM     24  C   UNL     1       4.416   4.397  16.377  0.00  0.00    +0.000 C 
BRANCH  24  26
ATOM     25  C   UNL     1       5.185   4.032  14.098  0.00  0.00    +0.000 C 
ATOM     26  N   UNL     1       5.464   4.703  15.378  0.00  0.00    +0.000 NA
BRANCH  26  27
ATOM     27  C   UNL     1       6.797   4.323  15.889  0.00  0.00    +0.000 C 
BRANCH  27  28
ATOM     28  C   UNL     1       7.327   5.299  16.926  0.00  0.00    +0.000 A 
ATOM     29  C   UNL     1       7.714   4.843  18.195  0.00  0.00    +0.000 A 
ATOM     30  C   UNL     1       8.086   5.748  19.191  0.00  0.00    +0.000 A 
ATOM     31  C   UNL     1       8.081   7.117  18.926  0.00  0.00    +0.000 A 
ATOM     32  C   UNL     1       7.729   7.580  17.660  0.00  0.00    +0.000 A 
ATOM     33  C   UNL     1       7.360   6.676  16.662  0.00  0.00    +0.000 A 
ENDBRANCH  27  28
ENDBRANCH  26  27
ENDBRANCH  24  26
ENDBRANCH  23  24
ENDBRANCH  19  23
ENDBRANCH  18  20
ENDBRANCH   1  18
TORSDOF 10
ENDMDL
MODEL 4
REMARK VINA RESULT:      -7.3      6.893     10.873
REMARK  Name = 
REMARK  11 active torsions:
REMARK  status: ('A' for Active; 'I' for Inactive)
REMARK    1  A    between atoms: C_1  and  N_2
REMARK    2  A    between atoms: N_2  and  C_3
REMARK    3  A    between atoms: N_2  and  C_25
REMARK    4  A    between atoms: C_3  and  C_4
REMARK    5  A    between atoms: C_4  and  N_5
REMARK    6  A    between atoms: C_6  and  C_8
REMARK    7  A    between atoms: C_8  and  C_9
REMARK    8  A    between atoms: C_9  and  N_10
REMARK    9  A    between atoms: C_11  and  C_13
REMARK   10  A    between atoms: C_13  and  N_14
REMARK   11  A    between atoms: C_25  and  C_26
REMARK                            x       y       z     vdW  Elec       q    Type
REMARK                         _______ _______ _______ _____ _____    ______ ____
ROOT
ATOM      1  C   UNL     1       1.346   9.276  22.155  0.00  0.00    +0.000 C 
ENDROOT
BRANCH   1   2
ATOM      2  N   UNL     1       0.750  10.524  21.706  0.00  0.00    +0.000 N 
ATOM      3  C   UNL     1      -0.390  11.033  22.300  0.00  0.00    +0.000 C 
ATOM      4  O   UNL     1      -1.030  10.450  23.171  0.00  0.00    +0.000 OA
ATOM      5  H   UNL     1       0.998  10.889  20.792  0.00  0.00    +0.000 HD
BRANCH   3   6
ATOM      6  C   UNL     1      -0.853  12.370  21.736  0.00  0.00    +0.000 C 
BRANCH   6   7
ATOM      7  N   UNL     1      -1.751  12.146  20.610  0.00  0.00    +0.000 N 
ATOM      8  C   UNL     1      -1.257  11.568  19.456  0.00  0.00    +0.000 A 
ATOM      9  C   UNL     1      -2.031  11.318  18.395  0.00  0.00    +0.000 A 
ATOM     10  C   UNL     1      -3.453  11.647  18.453  0.00  0.00    +0.000 A 
ATOM     11  C   UNL     1      -4.311  11.313  17.403  0.00  0.00    +0.000 A 
ATOM     12  C   UNL     1      -5.670  11.631  17.477  0.00  0.00    +0.000 A 
ATOM     13  C   UNL     1      -6.175  12.298  18.598  0.00  0.00    +0.000 A 
ATOM     14  C   UNL     1      -5.325  12.640  19.650  0.00  0.00    +0.000 A 
ATOM     15  C   UNL     1      -3.968  12.304  19.580  0.00  0.00    +0.000 A 
ATOM     16  C   UNL     1      -3.064  12.611  20.721  0.00  0.00    +0.000 A 
ATOM     17  O   UNL     1      -3.479  13.230  21.699  0.00  0.00    +0.000 OA
ENDBRANCH   6   7
ENDBRANCH   3   6
ENDBRANCH   1   2
BRANCH   1  18
ATOM     18  C   UNL     1       1.047   8.111  21.212  0.00  0.00    +0.000 C 
BRANCH  18  20
ATOM     19  N   UNL     1       2.303   7.252  19.312  0.00  0.00    +0.000 N 
ATOM     20  C   UNL     1       1.617   8.338  19.830  0.00  0.00    +0.000 C 
ATOM     21  O   UNL     1       1.507   9.400  19.228  0.00  0.00    +0.000 OA
ATOM     22  H   UNL     1       2.771   6.643  19.969  0.00  0.00    +0.000 HD
BRANCH  19  23
ATOM     23  C   UNL     1       2.823   7.351  17.959  0.00  0.00    +0.000 C 
BRANCH  23  24
ATOM     24  C   UNL     1       4.237   6.760  17.793  0.00  0.00    +0.000 C 
BRANCH  24  26
ATOM     25  C   UNL     1       5.970   5.462  18.901  0.00  0.00    +0.000 C 
ATOM     26  N   UNL     1       4.521   5.637  18.713  0.00  0.00    +0.000 NA
BRANCH  26  27
ATOM     27  C   UNL     1       3.903   4.389  18.216  0.00  0.00    +0.000 C 
BRANCH  27  28
ATOM     28  C   UNL     1       2.973   3.751  19.233  0.00  0.00    +0.000 A 
ATOM     29  C   UNL     1       1.582   3.875  19.098  0.00  0.00    +0.000 A 
ATOM     30  C   UNL     1       0.727   3.396  20.092  0.00  0.00    +0.000 A 
ATOM     31  C   UNL     1       1.253   2.782  21.228  0.00  0.00    +0.000 A 
ATOM     32  C   UNL     1       2.632   2.625  21.359  0.00  0.00    +0.000 A 
ATOM     33  C   UNL     1       3.488   3.100  20.364  0.00  0.00    +0.000 A 
ENDBRANCH  27  28
ENDBRANCH  26  27
ENDBRANCH  24  26
ENDBRANCH  23  24
ENDBRANCH  19  23
ENDBRANCH  18  20
ENDBRANCH   1  18
TORSDOF 10
ENDMDL
MODEL 5
REMARK VINA RESULT:      -7.2      6.901     11.103
REMARK  Name = 
REMARK  11 active torsions:
REMARK  status: ('A' for Active; 'I' for Inactive)
REMARK    1  A    between atoms: C_1  and  N_2
REMARK    2  A    between atoms: N_2  and  C_3
REMARK    3  A    between atoms: N_2  and  C_25
REMARK    4  A    between atoms: C_3  and  C_4
REMARK    5  A    between atoms: C_4  and  N_5
REMARK    6  A    between atoms: C_6  and  C_8
REMARK    7  A    between atoms: C_8  and  C_9
REMARK    8  A    between atoms: C_9  and  N_10
REMARK    9  A    between atoms: C_11  and  C_13
REMARK   10  A    between atoms: C_13  and  N_14
REMARK   11  A    between atoms: C_25  and  C_26
REMARK                            x       y       z     vdW  Elec       q    Type
REMARK                         _______ _______ _______ _____ _____    ______ ____
ROOT
ATOM      1  C   UNL     1       1.318   9.427  18.070  0.00  0.00    +0.000 C 
ENDROOT
BRANCH   1   2
ATOM      2  N   UNL     1       0.715  10.723  18.336  0.00  0.00    +0.000 N 
ATOM      3  C   UNL     1      -0.651  10.861  18.504  0.00  0.00    +0.000 C 
ATOM      4  O   UNL     1      -1.458   9.947  18.361  0.00  0.00    +0.000 OA
ATOM      5  H   UNL     1       1.243  11.565  18.132  0.00  0.00    +0.000 HD
BRANCH   3   6
ATOM      6  C   UNL     1      -1.108  12.280  18.819  0.00  0.00    +0.000 C 
BRANCH   6   7
ATOM      7  N   UNL     1      -1.721  12.319  20.139  0.00  0.00    +0.000 N 
ATOM      8  C   UNL     1      -0.933  12.120  21.257  0.00  0.00    +0.000 A 
ATOM      9  C   UNL     1      -1.430  12.163  22.498  0.00  0.00    +0.000 A 
ATOM     10  C   UNL     1      -2.850  12.444  22.691  0.00  0.00    +0.000 A 
ATOM     11  C   UNL     1      -3.386  12.591  23.972  0.00  0.00    +0.000 A 
ATOM     12  C   UNL     1      -4.745  12.865  24.139  0.00  0.00    +0.000 A 
ATOM     13  C   UNL     1      -5.580  12.980  23.023  0.00  0.00    +0.000 A 
ATOM     14  C   UNL     1      -5.056  12.831  21.739  0.00  0.00    +0.000 A 
ATOM     15  C   UNL     1      -3.690  12.574  21.575  0.00  0.00    +0.000 A 
ATOM     16  C   UNL     1      -3.108  12.471  20.210  0.00  0.00    +0.000 A 
ATOM     17  O   UNL     1      -3.831  12.531  19.216  0.00  0.00    +0.000 OA
ENDBRANCH   6   7
ENDBRANCH   3   6
ENDBRANCH   1   2
BRANCH   1  18
ATOM     18  C   UNL     1       1.432   8.564  19.326  0.00  0.00    +0.000 C 
BRANCH  18  20
ATOM     19  N   UNL     1       3.178   7.516  17.992  0.00  0.00    +0.000 N 
ATOM     20  C   UNL     1       2.424   7.436  19.152  0.00  0.00    +0.000 C 
ATOM     21  O   UNL     1       2.538   6.515  19.952  0.00  0.00    +0.000 OA
ATOM     22  H   UNL     1       2.746   7.951  17.188  0.00  0.00    +0.000 HD
BRANCH  19  23
ATOM     23  C   UNL     1       4.209   6.517  17.774  0.00  0.00    +0.000 C 
BRANCH  23  24
ATOM     24  C   UNL     1       3.673   5.179  17.226  0.00  0.00    +0.000 C 
BRANCH  24  26
ATOM     25  C   UNL     1       5.584   3.894  16.446  0.00  0.00    +0.000 C 
ATOM     26  N   UNL     1       4.563   4.029  17.496  0.00  0.00    +0.000 NA
BRANCH  26  27
ATOM     27  C   UNL     1       3.777   2.783  17.628  0.00  0.00    +0.000 C 
BRANCH  27  28
ATOM     28  C   UNL     1       2.908   2.768  18.873  0.00  0.00    +0.000 A 
ATOM     29  C   UNL     1       1.516   2.900  18.767  0.00  0.00    +0.000 A 
ATOM     30  C   UNL     1       0.724   3.008  19.912  0.00  0.00    +0.000 A 
ATOM     31  C   UNL     1       1.315   2.978  21.174  0.00  0.00    +0.000 A 
ATOM     32  C   UNL     1       2.694   2.816  21.293  0.00  0.00    +0.000 A 
ATOM     33  C   UNL     1       3.487   2.704  20.149  0.00  0.00    +0.000 A 
ENDBRANCH  27  28
ENDBRANCH  26  27
ENDBRANCH  24  26
ENDBRANCH  23  24
ENDBRANCH  19  23
ENDBRANCH  18  20
ENDBRANCH   1  18
TORSDOF 10
ENDMDL
MODEL 6
REMARK VINA RESULT:      -7.2      6.142      8.526
REMARK  Name = 
REMARK  11 active torsions:
REMARK  status: ('A' for Active; 'I' for Inactive)
REMARK    1  A    between atoms: C_1  and  N_2
REMARK    2  A    between atoms: N_2  and  C_3
REMARK    3  A    between atoms: N_2  and  C_25
REMARK    4  A    between atoms: C_3  and  C_4
REMARK    5  A    between atoms: C_4  and  N_5
REMARK    6  A    between atoms: C_6  and  C_8
REMARK    7  A    between atoms: C_8  and  C_9
REMARK    8  A    between atoms: C_9  and  N_10
REMARK    9  A    between atoms: C_11  and  C_13
REMARK   10  A    between atoms: C_13  and  N_14
REMARK   11  A    between atoms: C_25  and  C_26
REMARK                            x       y       z     vdW  Elec       q    Type
REMARK                         _______ _______ _______ _____ _____    ______ ____
ROOT
ATOM      1  C   UNL     1       1.755   7.686  20.226  0.00  0.00    +0.000 C 
ENDROOT
BRANCH   1   2
ATOM      2  N   UNL     1       2.682   6.565  20.217  0.00  0.00    +0.000 N 
ATOM      3  C   UNL     1       2.243   5.267  20.397  0.00  0.00    +0.000 C 
ATOM      4  O   UNL     1       1.083   4.962  20.659  0.00  0.00    +0.000 OA
ATOM      5  H   UNL     1       3.672   6.742  20.353  0.00  0.00    +0.000 HD
BRANCH   3   6
ATOM      6  C   UNL     1       3.341   4.213  20.316  0.00  0.00    +0.000 C 
BRANCH   6   7
ATOM      7  N   UNL     1       3.884   4.169  18.965  0.00  0.00    +0.000 N 
ATOM      8  C   UNL     1       3.074   3.758  17.924  0.00  0.00    +0.000 A 
ATOM      9  C   UNL     1       3.505   3.714  16.658  0.00  0.00    +0.000 A 
ATOM     10  C   UNL     1       4.872   4.128  16.354  0.00  0.00    +0.000 A 
ATOM     11  C   UNL     1       5.327   4.187  15.034  0.00  0.00    +0.000 A 
ATOM     12  C   UNL     1       6.636   4.590  14.759  0.00  0.00    +0.000 A 
ATOM     13  C   UNL     1       7.502   4.924  15.805  0.00  0.00    +0.000 A 
ATOM     14  C   UNL     1       7.059   4.865  17.126  0.00  0.00    +0.000 A 
ATOM     15  C   UNL     1       5.741   4.477  17.397  0.00  0.00    +0.000 A 
ATOM     16  C   UNL     1       5.239   4.466  18.797  0.00  0.00    +0.000 A 
ATOM     17  O   UNL     1       5.994   4.718  19.734  0.00  0.00    +0.000 OA
ENDBRANCH   6   7
ENDBRANCH   3   6
ENDBRANCH   1   2
BRANCH   1  18
ATOM     18  C   UNL     1       1.871   8.553  18.973  0.00  0.00    +0.000 C 
BRANCH  18  20
ATOM     19  N   UNL     1       0.983  10.461  20.197  0.00  0.00    +0.000 N 
ATOM     20  C   UNL     1       0.934   9.740  19.015  0.00  0.00    +0.000 C 
ATOM     21  O   UNL     1       0.177  10.026  18.095  0.00  0.00    +0.000 OA
ATOM     22  H   UNL     1       1.209   9.953  21.041  0.00  0.00    +0.000 HD
BRANCH  19  23
ATOM     23  C   UNL     1       0.171  11.662  20.301  0.00  0.00    +0.000 C 
BRANCH  23  24
ATOM     24  C   UNL     1      -1.204  11.426  20.957  0.00  0.00    +0.000 C 
BRANCH  24  26
ATOM     25  C   UNL     1      -0.864  10.368  23.120  0.00  0.00    +0.000 C 
ATOM     26  N   UNL     1      -1.201  11.620  22.424  0.00  0.00    +0.000 NA
BRANCH  26  27
ATOM     27  C   UNL     1      -2.506  12.141  22.882  0.00  0.00    +0.000 C 
BRANCH  27  28
ATOM     28  C   UNL     1      -2.379  13.444  23.651  0.00  0.00    +0.000 A 
ATOM     29  C   UNL     1      -3.485  13.979  24.328  0.00  0.00    +0.000 A 
ATOM     30  C   UNL     1      -3.408  15.234  24.933  0.00  0.00    +0.000 A 
ATOM     31  C   UNL     1      -2.222  15.965  24.875  0.00  0.00    +0.000 A 
ATOM     32  C   UNL     1      -1.106  15.431  24.234  0.00  0.00    +0.000 A 
ATOM     33  C   UNL     1      -1.181  14.174  23.630  0.00  0.00    +0.000 A 
ENDBRANCH  27  28
ENDBRANCH  26  27
ENDBRANCH  24  26
ENDBRANCH  23  24
ENDBRANCH  19  23
ENDBRANCH  18  20
ENDBRANCH   1  18
TORSDOF 10
ENDMDL
MODEL 7
REMARK VINA RESULT:      -7.2      1.443      2.356
REMARK  Name = 
REMARK  11 active torsions:
REMARK  status: ('A' for Active; 'I' for Inactive)
REMARK    1  A    between atoms: C_1  and  N_2
REMARK    2  A    between atoms: N_2  and  C_3
REMARK    3  A    between atoms: N_2  and  C_25
REMARK    4  A    between atoms: C_3  and  C_4
REMARK    5  A    between atoms: C_4  and  N_5
REMARK    6  A    between atoms: C_6  and  C_8
REMARK    7  A    between atoms: C_8  and  C_9
REMARK    8  A    between atoms: C_9  and  N_10
REMARK    9  A    between atoms: C_11  and  C_13
REMARK   10  A    between atoms: C_13  and  N_14
REMARK   11  A    between atoms: C_25  and  C_26
REMARK                            x       y       z     vdW  Elec       q    Type
REMARK                         _______ _______ _______ _____ _____    ______ ____
ROOT
ATOM      1  C   UNL     1       7.864   7.975  17.961  0.00  0.00    +0.000 C 
ENDROOT
BRANCH   1   2
ATOM      2  N   UNL     1       6.710   7.494  17.218  0.00  0.00    +0.000 N 
ATOM      3  C   UNL     1       6.658   6.204  16.724  0.00  0.00    +0.000 C 
ATOM      4  O   UNL     1       7.588   5.404  16.789  0.00  0.00    +0.000 OA
ATOM      5  H   UNL     1       6.061   8.167  16.823  0.00  0.00    +0.000 HD
BRANCH   3   6
ATOM      6  C   UNL     1       5.360   5.853  16.008  0.00  0.00    +0.000 C 
BRANCH   6   7
ATOM      7  N   UNL     1       4.497   5.090  16.900  0.00  0.00    +0.000 N 
ATOM      8  C   UNL     1       4.439   3.715  16.772  0.00  0.00    +0.000 A 
ATOM      9  C   UNL     1       3.683   2.954  17.570  0.00  0.00    +0.000 A 
ATOM     10  C   UNL     1       2.899   3.586  18.627  0.00  0.00    +0.000 A 
ATOM     11  C   UNL     1       2.173   2.818  19.540  0.00  0.00    +0.000 A 
ATOM     12  C   UNL     1       1.431   3.438  20.549  0.00  0.00    +0.000 A 
ATOM     13  C   UNL     1       1.402   4.833  20.641  0.00  0.00    +0.000 A 
ATOM     14  C   UNL     1       2.119   5.610  19.732  0.00  0.00    +0.000 A 
ATOM     15  C   UNL     1       2.875   4.984  18.733  0.00  0.00    +0.000 A 
ATOM     16  C   UNL     1       3.692   5.800  17.794  0.00  0.00    +0.000 A 
ATOM     17  O   UNL     1       3.650   7.028  17.833  0.00  0.00    +0.000 OA
ENDBRANCH   6   7
ENDBRANCH   3   6
ENDBRANCH   1   2
BRANCH   1  18
ATOM     18  C   UNL     1       8.413   9.289  17.406  0.00  0.00    +0.000 C 
BRANCH  18  20
ATOM     19  N   UNL     1       9.103  11.507  18.133  0.00  0.00    +0.000 N 
ATOM     20  C   UNL     1       8.966  10.178  18.497  0.00  0.00    +0.000 C 
ATOM     21  O   UNL     1       9.290   9.758  19.602  0.00  0.00    +0.000 OA
ATOM     22  H   UNL     1       9.297  11.703  17.160  0.00  0.00    +0.000 HD
BRANCH  19  23
ATOM     23  C   UNL     1       9.557  12.452  19.139  0.00  0.00    +0.000 C 
BRANCH  23  24
ATOM     24  C   UNL     1       9.702  13.894  18.616  0.00  0.00    +0.000 C 
BRANCH  24  26
ATOM     25  C   UNL     1       7.891  14.307  20.186  0.00  0.00    +0.000 C 
ATOM     26  N   UNL     1       8.556  14.766  18.956  0.00  0.00    +0.000 NA
BRANCH  26  27
ATOM     27  C   UNL     1       7.597  14.826  17.832  0.00  0.00    +0.000 C 
BRANCH  27  28
ATOM     28  C   UNL     1       6.234  15.345  18.253  0.00  0.00    +0.000 A 
ATOM     29  C   UNL     1       5.075  14.609  17.965  0.00  0.00    +0.000 A 
ATOM     30  C   UNL     1       3.812  15.136  18.240  0.00  0.00    +0.000 A 
ATOM     31  C   UNL     1       3.695  16.402  18.813  0.00  0.00    +0.000 A 
ATOM     32  C   UNL     1       4.839  17.130  19.134  0.00  0.00    +0.000 A 
ATOM     33  C   UNL     1       6.103  16.603  18.862  0.00  0.00    +0.000 A 
ENDBRANCH  27  28
ENDBRANCH  26  27
ENDBRANCH  24  26
ENDBRANCH  23  24
ENDBRANCH  19  23
ENDBRANCH  18  20
ENDBRANCH   1  18
TORSDOF 10
ENDMDL
MODEL 8
REMARK VINA RESULT:      -7.2      6.266      8.756
REMARK  Name = 
REMARK  11 active torsions:
REMARK  status: ('A' for Active; 'I' for Inactive)
REMARK    1  A    between atoms: C_1  and  N_2
REMARK    2  A    between atoms: N_2  and  C_3
REMARK    3  A    between atoms: N_2  and  C_25
REMARK    4  A    between atoms: C_3  and  C_4
REMARK    5  A    between atoms: C_4  and  N_5
REMARK    6  A    between atoms: C_6  and  C_8
REMARK    7  A    between atoms: C_8  and  C_9
REMARK    8  A    between atoms: C_9  and  N_10
REMARK    9  A    between atoms: C_11  and  C_13
REMARK   10  A    between atoms: C_13  and  N_14
REMARK   11  A    between atoms: C_25  and  C_26
REMARK                            x       y       z     vdW  Elec       q    Type
REMARK                         _______ _______ _______ _____ _____    ______ ____
ROOT
ATOM      1  C   UNL     1       1.937   7.871  19.920  0.00  0.00    +0.000 C 
ENDROOT
BRANCH   1   2
ATOM      2  N   UNL     1       2.777   6.686  19.974  0.00  0.00    +0.000 N 
ATOM      3  C   UNL     1       2.261   5.453  20.327  0.00  0.00    +0.000 C 
ATOM      4  O   UNL     1       1.105   5.271  20.700  0.00  0.00    +0.000 OA
ATOM      5  H   UNL     1       3.785   6.796  20.021  0.00  0.00    +0.000 HD
BRANCH   3   6
ATOM      6  C   UNL     1       3.270   4.312  20.289  0.00  0.00    +0.000 C 
BRANCH   6   7
ATOM      7  N   UNL     1       3.852   4.211  18.957  0.00  0.00    +0.000 N 
ATOM      8  C   UNL     1       3.085   3.713  17.921  0.00  0.00    +0.000 A 
ATOM      9  C   UNL     1       3.552   3.612  16.672  0.00  0.00    +0.000 A 
ATOM     10  C   UNL     1       4.912   4.057  16.379  0.00  0.00    +0.000 A 
ATOM     11  C   UNL     1       5.401   4.058  15.070  0.00  0.00    +0.000 A 
ATOM     12  C   UNL     1       6.702   4.491  14.806  0.00  0.00    +0.000 A 
ATOM     13  C   UNL     1       7.527   4.914  15.852  0.00  0.00    +0.000 A 
ATOM     14  C   UNL     1       7.050   4.914  17.163  0.00  0.00    +0.000 A 
ATOM     15  C   UNL     1       5.739   4.495  17.422  0.00  0.00    +0.000 A 
ATOM     16  C   UNL     1       5.200   4.546  18.808  0.00  0.00    +0.000 A 
ATOM     17  O   UNL     1       5.920   4.878  19.747  0.00  0.00    +0.000 OA
ENDBRANCH   6   7
ENDBRANCH   3   6
ENDBRANCH   1   2
BRANCH   1  18
ATOM     18  C   UNL     1       1.943   8.533  18.543  0.00  0.00    +0.000 C 
BRANCH  18  20
ATOM     19  N   UNL     1       0.389  10.204  19.392  0.00  0.00    +0.000 N 
ATOM     20  C   UNL     1       1.508   9.980  18.607  0.00  0.00    +0.000 C 
ATOM     21  O   UNL     1       2.080  10.878  17.998  0.00  0.00    +0.000 OA
ATOM     22  H   UNL     1      -0.292   9.459  19.452  0.00  0.00    +0.000 HD
BRANCH  19  23
ATOM     23  C   UNL     1      -0.059  11.574  19.573  0.00  0.00    +0.000 C 
BRANCH  23  24
ATOM     24  C   UNL     1      -1.257  11.959  18.683  0.00  0.00    +0.000 C 
BRANCH  24  26
ATOM     25  C   UNL     1      -3.663  11.686  18.453  0.00  0.00    +0.000 C 
ATOM     26  N   UNL     1      -2.555  11.925  19.392  0.00  0.00    +0.000 NA
BRANCH  26  27
ATOM     27  C   UNL     1      -2.769  13.178  20.147  0.00  0.00    +0.000 C 
BRANCH  27  28
ATOM     28  C   UNL     1      -3.310  12.935  21.544  0.00  0.00    +0.000 A 
ATOM     29  C   UNL     1      -4.511  13.534  21.953  0.00  0.00    +0.000 A 
ATOM     30  C   UNL     1      -4.951  13.413  23.272  0.00  0.00    +0.000 A 
ATOM     31  C   UNL     1      -4.200  12.686  24.195  0.00  0.00    +0.000 A 
ATOM     32  C   UNL     1      -3.021  12.060  23.793  0.00  0.00    +0.000 A 
ATOM     33  C   UNL     1      -2.581  12.177  22.473  0.00  0.00    +0.000 A 
ENDBRANCH  27  28
ENDBRANCH  26  27
ENDBRANCH  24  26
ENDBRANCH  23  24
ENDBRANCH  19  23
ENDBRANCH  18  20
ENDBRANCH   1  18
TORSDOF 10
ENDMDL
MODEL 9
REMARK VINA RESULT:      -7.2      6.855     10.988
REMARK  Name = 
REMARK  11 active torsions:
REMARK  status: ('A' for Active; 'I' for Inactive)
REMARK    1  A    between atoms: C_1  and  N_2
REMARK    2  A    between atoms: N_2  and  C_3
REMARK    3  A    between atoms: N_2  and  C_25
REMARK    4  A    between atoms: C_3  and  C_4
REMARK    5  A    between atoms: C_4  and  N_5
REMARK    6  A    between atoms: C_6  and  C_8
REMARK    7  A    between atoms: C_8  and  C_9
REMARK    8  A    between atoms: C_9  and  N_10
REMARK    9  A    between atoms: C_11  and  C_13
REMARK   10  A    between atoms: C_13  and  N_14
REMARK   11  A    between atoms: C_25  and  C_26
REMARK                            x       y       z     vdW  Elec       q    Type
REMARK                         _______ _______ _______ _____ _____    ______ ____
ROOT
ATOM      1  C   UNL     1       1.340   9.964  19.030  0.00  0.00    +0.000 C 
ENDROOT
BRANCH   1   2
ATOM      2  N   UNL     1       0.430  11.041  18.674  0.00  0.00    +0.000 N 
ATOM      3  C   UNL     1      -0.106  11.878  19.636  0.00  0.00    +0.000 C 
ATOM      4  O   UNL     1       0.064  11.736  20.844  0.00  0.00    +0.000 OA
ATOM      5  H   UNL     1      -0.030  11.021  17.770  0.00  0.00    +0.000 HD
BRANCH   3   6
ATOM      6  C   UNL     1      -1.004  12.978  19.085  0.00  0.00    +0.000 C 
BRANCH   6   7
ATOM      7  N   UNL     1      -2.391  12.705  19.438  0.00  0.00    +0.000 N 
ATOM      8  C   UNL     1      -2.894  13.188  20.631  0.00  0.00    +0.000 A 
ATOM      9  C   UNL     1      -4.162  12.989  21.005  0.00  0.00    +0.000 A 
ATOM     10  C   UNL     1      -5.060  12.250  20.122  0.00  0.00    +0.000 A 
ATOM     11  C   UNL     1      -6.414  12.104  20.433  0.00  0.00    +0.000 A 
ATOM     12  C   UNL     1      -7.261  11.398  19.575  0.00  0.00    +0.000 A 
ATOM     13  C   UNL     1      -6.754  10.822  18.406  0.00  0.00    +0.000 A 
ATOM     14  C   UNL     1      -5.403  10.958  18.088  0.00  0.00    +0.000 A 
ATOM     15  C   UNL     1      -4.561  11.681  18.941  0.00  0.00    +0.000 A 
ATOM     16  C   UNL     1      -3.131  11.882  18.584  0.00  0.00    +0.000 A 
ATOM     17  O   UNL     1      -2.656  11.352  17.581  0.00  0.00    +0.000 OA
ENDBRANCH   6   7
ENDBRANCH   3   6
ENDBRANCH   1   2
BRANCH   1  18
ATOM     18  C   UNL     1       1.731   9.105  17.828  0.00  0.00    +0.000 C 
BRANCH  18  20
ATOM     19  N   UNL     1       3.501   7.493  17.388  0.00  0.00    +0.000 N 
ATOM     20  C   UNL     1       2.472   7.854  18.242  0.00  0.00    +0.000 C 
ATOM     21  O   UNL     1       2.175   7.198  19.234  0.00  0.00    +0.000 OA
ATOM     22  H   UNL     1       3.397   7.730  16.410  0.00  0.00    +0.000 HD
BRANCH  19  23
ATOM     23  C   UNL     1       4.318   6.345  17.743  0.00  0.00    +0.000 C 
BRANCH  23  24
ATOM     24  C   UNL     1       3.825   5.019  17.132  0.00  0.00    +0.000 C 
BRANCH  24  26
ATOM     25  C   UNL     1       5.656   3.610  16.372  0.00  0.00    +0.000 C 
ATOM     26  N   UNL     1       4.689   3.862  17.452  0.00  0.00    +0.000 NA
BRANCH  26  27
ATOM     27  C   UNL     1       3.871   2.659  17.715  0.00  0.00    +0.000 C 
BRANCH  27  28
ATOM     28  C   UNL     1       2.966   2.819  18.924  0.00  0.00    +0.000 A 
ATOM     29  C   UNL     1       3.501   2.778  20.220  0.00  0.00    +0.000 A 
ATOM     30  C   UNL     1       2.661   2.803  21.335  0.00  0.00    +0.000 A 
ATOM     31  C   UNL     1       1.279   2.876  21.166  0.00  0.00    +0.000 A 
ATOM     32  C   UNL     1       0.737   2.949  19.884  0.00  0.00    +0.000 A 
ATOM     33  C   UNL     1       1.575   2.927  18.768  0.00  0.00    +0.000 A 
ENDBRANCH  27  28
ENDBRANCH  26  27
ENDBRANCH  24  26
ENDBRANCH  23  24
ENDBRANCH  19  23
ENDBRANCH  18  20
ENDBRANCH   1  18
TORSDOF 10
ENDMDL
