MODEL 1
REMARK VINA RESULT:      -8.0      0.000      0.000
REMARK  Name = 
REMARK  0 active torsions:
REMARK  status: ('A' for Active; 'I' for Inactive)
REMARK                            x       y       z     vdW  Elec       q    Type
REMARK                         _______ _______ _______ _____ _____    ______ ____
ROOT
ATOM      1  C   UNL     1       7.215   4.860  14.607  0.00  0.00    +0.000 A 
ATOM      2  C   UNL     1       6.090   4.177  14.143  0.00  0.00    +0.000 A 
ATOM      3  C   UNL     1       5.041   3.880  15.015  0.00  0.00    +0.000 A 
ATOM      4  C   UNL     1       5.114   4.267  16.357  0.00  0.00    +0.000 A 
ATOM      5  C   UNL     1       6.254   4.960  16.828  0.00  0.00    +0.000 A 
ATOM      6  C   UNL     1       7.299   5.253  15.946  0.00  0.00    +0.000 A 
ATOM      7  C   UNL     1       6.326   5.364  18.249  0.00  0.00    +0.000 A 
ATOM      8  C   UNL     1       5.309   5.069  19.079  0.00  0.00    +0.000 A 
ATOM      9  N   UNL     1       4.173   4.384  18.629  0.00  0.00    +0.000 N 
ATOM     10  C   UNL     1       3.044   4.001  19.343  0.00  0.00    +0.000 A 
ATOM     11  C   UNL     1       2.696   4.174  20.696  0.00  0.00    +0.000 A 
ATOM     12  C   UNL     1       1.467   3.669  21.132  0.00  0.00    +0.000 A 
ATOM     13  C   UNL     1       0.608   3.013  20.256  0.00  0.00    +0.000 A 
ATOM     14  C   UNL     1       0.959   2.846  18.913  0.00  0.00    +0.000 A 
ATOM     15  C   UNL     1       2.190   3.345  18.450  0.00  0.00    +0.000 A 
ATOM     16  C   UNL     1       2.823   3.335  17.182  0.00  0.00    +0.000 A 
ATOM     17  C   UNL     1       4.038   3.974  17.308  0.00  0.00    +0.000 A 
ENDROOT
TORSDOF 0
ENDMDL
MODEL 2
REMARK VINA RESULT:      -7.4      1.188      1.192
REMARK  Name = 
REMARK  0 active torsions:
REMARK  status: ('A' for Active; 'I' for Inactive)
REMARK                            x       y       z     vdW  Elec       q    Type
REMARK                         _______ _______ _______ _____ _____    ______ ____
ROOT
ATOM      1  C   UNL     1       6.825   5.155  14.228  0.00  0.00    +0.000 A 
ATOM      2  C   UNL     1       6.490   3.809  14.372  0.00  0.00    +0.000 A 
ATOM      3  C   UNL     1       5.587   3.413  15.360  0.00  0.00    +0.000 A 
ATOM      4  C   UNL     1       5.015   4.366  16.210  0.00  0.00    +0.000 A 
ATOM      5  C   UNL     1       5.354   5.731  16.064  0.00  0.00    +0.000 A 
ATOM      6  C   UNL     1       6.259   6.117  15.070  0.00  0.00    +0.000 A 
ATOM      7  C   UNL     1       4.748   6.734  16.966  0.00  0.00    +0.000 A 
ATOM      8  C   UNL     1       3.881   6.338  17.917  0.00  0.00    +0.000 A 
ATOM      9  N   UNL     1       3.534   4.990  18.075  0.00  0.00    +0.000 N 
ATOM     10  C   UNL     1       2.666   4.414  18.994  0.00  0.00    +0.000 A 
ATOM     11  C   UNL     1       1.889   4.980  20.021  0.00  0.00    +0.000 A 
ATOM     12  C   UNL     1       1.098   4.128  20.799  0.00  0.00    +0.000 A 
ATOM     13  C   UNL     1       1.077   2.757  20.566  0.00  0.00    +0.000 A 
ATOM     14  C   UNL     1       1.850   2.200  19.544  0.00  0.00    +0.000 A 
ATOM     15  C   UNL     1       2.655   3.037  18.747  0.00  0.00    +0.000 A 
ATOM     16  C   UNL     1       3.532   2.788  17.662  0.00  0.00    +0.000 A 
ATOM     17  C   UNL     1       4.064   3.995  17.262  0.00  0.00    +0.000 A 
ENDROOT
TORSDOF 0
ENDMDL
MODEL 3
REMARK VINA RESULT:      -7.2      3.380      3.812
REMARK  Name = 
REMARK  0 active torsions:
REMARK  status: ('A' for Active; 'I' for Inactive)
REMARK                            x       y       z     vdW  Elec       q    Type
REMARK                         _______ _______ _______ _____ _____    ______ ____
ROOT
ATOM      1  C   UNL     1       6.143   4.377  15.889  0.00  0.00    +0.000 A 
ATOM      2  C   UNL     1       5.764   5.587  15.307  0.00  0.00    +0.000 A 
ATOM      3  C   UNL     1       4.877   6.436  15.970  0.00  0.00    +0.000 A 
ATOM      4  C   UNL     1       4.365   6.076  17.221  0.00  0.00    +0.000 A 
ATOM      5  C   UNL     1       4.748   4.850  17.812  0.00  0.00    +0.000 A 
ATOM      6  C   UNL     1       5.639   4.007  17.139  0.00  0.00    +0.000 A 
ATOM      7  C   UNL     1       4.202   4.474  19.134  0.00  0.00    +0.000 A 
ATOM      8  C   UNL     1       3.345   5.301  19.761  0.00  0.00    +0.000 A 
ATOM      9  N   UNL     1       2.954   6.519  19.190  0.00  0.00    +0.000 N 
ATOM     10  C   UNL     1       2.088   7.481  19.694  0.00  0.00    +0.000 A 
ATOM     11  C   UNL     1       1.353   7.535  20.893  0.00  0.00    +0.000 A 
ATOM     12  C   UNL     1       0.550   8.656  21.126  0.00  0.00    +0.000 A 
ATOM     13  C   UNL     1       0.475   9.692  20.201  0.00  0.00    +0.000 A 
ATOM     14  C   UNL     1       1.208   9.633  19.012  0.00  0.00    +0.000 A 
ATOM     15  C   UNL     1       2.024   8.516  18.754  0.00  0.00    +0.000 A 
ATOM     16  C   UNL     1       2.867   8.163  17.671  0.00  0.00    +0.000 A 
ATOM     17  C   UNL     1       3.429   6.936  17.953  0.00  0.00    +0.000 A 
ENDROOT
TORSDOF 0
ENDMDL
MODEL 4
REMARK VINA RESULT:      -7.2      0.964      6.011
REMARK  Name = 
REMARK  0 active torsions:
REMARK  status: ('A' for Active; 'I' for Inactive)
REMARK                            x       y       z     vdW  Elec       q    Type
REMARK                         _______ _______ _______ _____ _____    ______ ____
ROOT
ATOM      1  C   UNL     1       1.080   2.786  21.394  0.00  0.00    +0.000 A 
ATOM      2  C   UNL     1       2.395   2.912  21.841  0.00  0.00    +0.000 A 
ATOM      3  C   UNL     1       3.411   3.251  20.946  0.00  0.00    +0.000 A 
ATOM      4  C   UNL     1       3.113   3.466  19.597  0.00  0.00    +0.000 A 
ATOM      5  C   UNL     1       1.779   3.338  19.142  0.00  0.00    +0.000 A 
ATOM      6  C   UNL     1       0.769   2.998  20.048  0.00  0.00    +0.000 A 
ATOM      7  C   UNL     1       1.471   3.563  17.713  0.00  0.00    +0.000 A 
ATOM      8  C   UNL     1       2.460   3.887  16.860  0.00  0.00    +0.000 A 
ATOM      9  N   UNL     1       3.786   4.018  17.293  0.00  0.00    +0.000 N 
ATOM     10  C   UNL     1       4.918   4.341  16.555  0.00  0.00    +0.000 A 
ATOM     11  C   UNL     1       5.086   4.629  15.188  0.00  0.00    +0.000 A 
ATOM     12  C   UNL     1       6.373   4.924  14.728  0.00  0.00    +0.000 A 
ATOM     13  C   UNL     1       7.461   4.934  15.595  0.00  0.00    +0.000 A 
ATOM     14  C   UNL     1       7.288   4.648  16.952  0.00  0.00    +0.000 A 
ATOM     15  C   UNL     1       6.002   4.348  17.440  0.00  0.00    +0.000 A 
ATOM     16  C   UNL     1       5.507   4.023  18.727  0.00  0.00    +0.000 A 
ATOM     17  C   UNL     1       4.147   3.821  18.620  0.00  0.00    +0.000 A 
ENDROOT
TORSDOF 0
ENDMDL
MODEL 5
REMARK VINA RESULT:      -7.0      0.855      5.558
REMARK  Name = 
REMARK  0 active torsions:
REMARK  status: ('A' for Active; 'I' for Inactive)
REMARK                            x       y       z     vdW  Elec       q    Type
REMARK                         _______ _______ _______ _____ _____    ______ ____
ROOT
ATOM      1  C   UNL     1       0.635   3.349  20.396  0.00  0.00    +0.000 A 
ATOM      2  C   UNL     1       0.662   2.578  19.234  0.00  0.00    +0.000 A 
ATOM      3  C   UNL     1       1.664   2.776  18.283  0.00  0.00    +0.000 A 
ATOM      4  C   UNL     1       2.646   3.750  18.492  0.00  0.00    +0.000 A 
ATOM      5  C   UNL     1       2.620   4.533  19.671  0.00  0.00    +0.000 A 
ATOM      6  C   UNL     1       1.611   4.325  20.617  0.00  0.00    +0.000 A 
ATOM      7  C   UNL     1       3.659   5.563  19.886  0.00  0.00    +0.000 A 
ATOM      8  C   UNL     1       4.618   5.746  18.959  0.00  0.00    +0.000 A 
ATOM      9  N   UNL     1       4.659   4.980  17.787  0.00  0.00    +0.000 N 
ATOM     10  C   UNL     1       5.567   5.038  16.738  0.00  0.00    +0.000 A 
ATOM     11  C   UNL     1       6.694   5.854  16.526  0.00  0.00    +0.000 A 
ATOM     12  C   UNL     1       7.427   5.676  15.349  0.00  0.00    +0.000 A 
ATOM     13  C   UNL     1       7.058   4.719  14.409  0.00  0.00    +0.000 A 
ATOM     14  C   UNL     1       5.939   3.910  14.625  0.00  0.00    +0.000 A 
ATOM     15  C   UNL     1       5.184   4.070  15.803  0.00  0.00    +0.000 A 
ATOM     16  C   UNL     1       4.026   3.425  16.304  0.00  0.00    +0.000 A 
ATOM     17  C   UNL     1       3.716   3.995  17.521  0.00  0.00    +0.000 A 
ENDROOT
TORSDOF 0
ENDMDL
MODEL 6
REMARK VINA RESULT:      -7.0      5.388      6.551
REMARK  Name = 
REMARK  0 active torsions:
REMARK  status: ('A' for Active; 'I' for Inactive)
REMARK                            x       y       z     vdW  Elec       q    Type
REMARK                         _______ _______ _______ _____ _____    ______ ____
ROOT
ATOM      1  C   UNL     1       3.726   5.386  18.141  0.00  0.00    +0.000 A 
ATOM      2  C   UNL     1       3.373   5.060  19.451  0.00  0.00    +0.000 A 
ATOM      3  C   UNL     1       2.622   5.951  20.218  0.00  0.00    +0.000 A 
ATOM      4  C   UNL     1       2.219   7.176  19.675  0.00  0.00    +0.000 A 
ATOM      5  C   UNL     1       2.576   7.508  18.347  0.00  0.00    +0.000 A 
ATOM      6  C   UNL     1       3.329   6.606  17.587  0.00  0.00    +0.000 A 
ATOM      7  C   UNL     1       2.150   8.805  17.779  0.00  0.00    +0.000 A 
ATOM      8  C   UNL     1       1.428   9.657  18.530  0.00  0.00    +0.000 A 
ATOM      9  N   UNL     1       1.066   9.345  19.847  0.00  0.00    +0.000 N 
ATOM     10  C   UNL     1       0.332  10.100  20.754  0.00  0.00    +0.000 A 
ATOM     11  C   UNL     1      -0.257  11.373  20.641  0.00  0.00    +0.000 A 
ATOM     12  C   UNL     1      -0.946  11.882  21.747  0.00  0.00    +0.000 A 
ATOM     13  C   UNL     1      -1.048  11.153  22.928  0.00  0.00    +0.000 A 
ATOM     14  C   UNL     1      -0.461   9.890  23.033  0.00  0.00    +0.000 A 
ATOM     15  C   UNL     1       0.238   9.355  21.934  0.00  0.00    +0.000 A 
ATOM     16  C   UNL     1       0.928   8.135  21.727  0.00  0.00    +0.000 A 
ATOM     17  C   UNL     1       1.431   8.144  20.444  0.00  0.00    +0.000 A 
ENDROOT
TORSDOF 0
ENDMDL
MODEL 7
REMARK VINA RESULT:      -7.0      1.353      5.689
REMARK  Name = 
REMARK  0 active torsions:
REMARK  status: ('A' for Active; 'I' for Inactive)
REMARK                            x       y       z     vdW  Elec       q    Type
REMARK                         _______ _______ _______ _____ _____    ______ ____
ROOT
ATOM      1  C   UNL     1       1.153   3.339  21.316  0.00  0.00    +0.000 A 
ATOM      2  C   UNL     1       1.761   2.241  20.707  0.00  0.00    +0.000 A 
ATOM      3  C   UNL     1       2.618   2.426  19.621  0.00  0.00    +0.000 A 
ATOM      4  C   UNL     1       2.870   3.715  19.139  0.00  0.00    +0.000 A 
ATOM      5  C   UNL     1       2.255   4.829  19.756  0.00  0.00    +0.000 A 
ATOM      6  C   UNL     1       1.398   4.631  20.845  0.00  0.00    +0.000 A 
ATOM      7  C   UNL     1       2.523   6.189  19.241  0.00  0.00    +0.000 A 
ATOM      8  C   UNL     1       3.350   6.354  18.192  0.00  0.00    +0.000 A 
ATOM      9  N   UNL     1       3.968   5.262  17.569  0.00  0.00    +0.000 N 
ATOM     10  C   UNL     1       4.838   5.252  16.486  0.00  0.00    +0.000 A 
ATOM     11  C   UNL     1       5.355   6.297  15.699  0.00  0.00    +0.000 A 
ATOM     12  C   UNL     1       6.228   5.970  14.656  0.00  0.00    +0.000 A 
ATOM     13  C   UNL     1       6.577   4.648  14.399  0.00  0.00    +0.000 A 
ATOM     14  C   UNL     1       6.061   3.614  15.185  0.00  0.00    +0.000 A 
ATOM     15  C   UNL     1       5.181   3.917  16.241  0.00  0.00    +0.000 A 
ATOM     16  C   UNL     1       4.502   3.119  17.195  0.00  0.00    +0.000 A 
ATOM     17  C   UNL     1       3.761   3.957  18.000  0.00  0.00    +0.000 A 
ENDROOT
TORSDOF 0
ENDMDL
MODEL 8
REMARK VINA RESULT:      -6.9      3.655      5.068
REMARK  Name = 
REMARK  0 active torsions:
REMARK  status: ('A' for Active; 'I' for Inactive)
REMARK                            x       y       z     vdW  Elec       q    Type
REMARK                         _______ _______ _______ _____ _____    ______ ____
ROOT
ATOM      1  C   UNL     1       3.635   2.040  18.584  0.00  0.00    +0.000 A 
ATOM      2  C   UNL     1       3.890   2.840  17.470  0.00  0.00    +0.000 A 
ATOM      3  C   UNL     1       3.540   4.191  17.483  0.00  0.00    +0.000 A 
ATOM      4  C   UNL     1       2.932   4.748  18.613  0.00  0.00    +0.000 A 
ATOM      5  C   UNL     1       2.674   3.937  19.743  0.00  0.00    +0.000 A 
ATOM      6  C   UNL     1       3.030   2.584  19.720  0.00  0.00    +0.000 A 
ATOM      7  C   UNL     1       2.030   4.530  20.935  0.00  0.00    +0.000 A 
ATOM      8  C   UNL     1       1.695   5.834  20.933  0.00  0.00    +0.000 A 
ATOM      9  N   UNL     1       1.944   6.651  19.822  0.00  0.00    +0.000 N 
ATOM     10  C   UNL     1       1.665   8.002  19.652  0.00  0.00    +0.000 A 
ATOM     11  C   UNL     1       1.066   8.943  20.509  0.00  0.00    +0.000 A 
ATOM     12  C   UNL     1       0.916  10.255  20.049  0.00  0.00    +0.000 A 
ATOM     13  C   UNL     1       1.347  10.624  18.779  0.00  0.00    +0.000 A 
ATOM     14  C   UNL     1       1.943   9.685  17.932  0.00  0.00    +0.000 A 
ATOM     15  C   UNL     1       2.104   8.358  18.372  0.00  0.00    +0.000 A 
ATOM     16  C   UNL     1       2.653   7.199  17.769  0.00  0.00    +0.000 A 
ATOM     17  C   UNL     1       2.546   6.161  18.670  0.00  0.00    +0.000 A 
ENDROOT
TORSDOF 0
ENDMDL
MODEL 9
REMARK VINA RESULT:      -6.9      1.352      5.894
REMARK  Name = 
REMARK  0 active torsions:
REMARK  status: ('A' for Active; 'I' for Inactive)
REMARK                            x       y       z     vdW  Elec       q    Type
REMARK                         _______ _______ _______ _____ _____    ______ ____
ROOT
ATOM      1  C   UNL     1       1.069   3.449  21.128  0.00  0.00    +0.000 A 
ATOM      2  C   UNL     1       1.285   4.795  20.828  0.00  0.00    +0.000 A 
ATOM      3  C   UNL     1       2.135   5.153  19.782  0.00  0.00    +0.000 A 
ATOM      4  C   UNL     1       2.776   4.163  19.029  0.00  0.00    +0.000 A 
ATOM      5  C   UNL     1       2.558   2.798  19.331  0.00  0.00    +0.000 A 
ATOM      6  C   UNL     1       1.703   2.451  20.382  0.00  0.00    +0.000 A 
ATOM      7  C   UNL     1       3.239   1.756  18.533  0.00  0.00    +0.000 A 
ATOM      8  C   UNL     1       4.060   2.116  17.528  0.00  0.00    +0.000 A 
ATOM      9  N   UNL     1       4.287   3.462  17.215  0.00  0.00    +0.000 N 
ATOM     10  C   UNL     1       5.094   4.004  16.223  0.00  0.00    +0.000 A 
ATOM     11  C   UNL     1       5.911   3.394  15.252  0.00  0.00    +0.000 A 
ATOM     12  C   UNL     1       6.619   4.219  14.372  0.00  0.00    +0.000 A 
ATOM     13  C   UNL     1       6.522   5.604  14.450  0.00  0.00    +0.000 A 
ATOM     14  C   UNL     1       5.708   6.204  15.414  0.00  0.00    +0.000 A 
ATOM     15  C   UNL     1       4.985   5.396  16.312  0.00  0.00    +0.000 A 
ATOM     16  C   UNL     1       4.097   5.688  17.378  0.00  0.00    +0.000 A 
ATOM     17  C   UNL     1       3.679   4.493  17.922  0.00  0.00    +0.000 A 
ENDROOT
TORSDOF 0
ENDMDL
