MODEL 1
REMARK VINA RESULT:      -8.5      0.000      0.000
REMARK  Name = 
REMARK  10 active torsions:
REMARK  status: ('A' for Active; 'I' for Inactive)
REMARK    1  A    between atoms: C_1  and  C_2
REMARK    2  A    between atoms: C_2  and  C_3
REMARK    3  A    between atoms: C_3  and  N_4
REMARK    4  A    between atoms: N_4  and  C_5
REMARK    5  A    between atoms: C_5  and  C_6
REMARK    6  A    between atoms: N_8  and  C_9
REMARK    7  A    between atoms: C_18  and  C_20
REMARK    8  A    between atoms: C_20  and  C_21
REMARK    9  A    between atoms: C_21  and  C_22
REMARK   10  A    between atoms: C_24  and  O_25
REMARK                            x       y       z     vdW  Elec       q    Type
REMARK                         _______ _______ _______ _____ _____    ______ ____
ROOT
ATOM      1  N   UNL     1       6.255   6.087  17.035  0.00  0.00    +0.000 N 
ATOM      2  C   UNL     1       6.683   4.909  16.430  0.00  0.00    +0.000 C 
ATOM      3  O   UNL     1       7.859   4.542  16.498  0.00  0.00    +0.000 OA
ENDROOT
BRANCH   1   4
ATOM      4  C   UNL     1       7.226   6.780  17.890  0.00  0.00    +0.000 C 
BRANCH   4   6
ATOM      5  C   UNL     1       8.246   9.101  18.186  0.00  0.00    +0.000 C 
ATOM      6  C   UNL     1       7.903   7.979  17.220  0.00  0.00    +0.000 C 
ENDBRANCH   4   6
ENDBRANCH   1   4
BRANCH   1   7
ATOM      7  C   UNL     1       4.925   6.700  16.873  0.00  0.00    +0.000 C 
BRANCH   7   8
ATOM      8  C   UNL     1       4.076   6.870  18.152  0.00  0.00    +0.000 C 
ATOM      9  O   UNL     1       4.231   6.193  19.164  0.00  0.00    +0.000 OA
ATOM     10  N   UNL     1       3.092   7.850  18.010  0.00  0.00    +0.000 N 
ATOM     11  H   UNL     1       2.763   8.032  17.065  0.00  0.00    +0.000 HD
BRANCH  10  12
ATOM     12  C   UNL     1       2.181   8.173  19.044  0.00  0.00    +0.000 A 
ATOM     13  C   UNL     1       2.029   7.373  20.182  0.00  0.00    +0.000 A 
ATOM     14  C   UNL     1       1.055   7.688  21.135  0.00  0.00    +0.000 A 
ATOM     15  C   UNL     1       0.227   8.790  20.937  0.00  0.00    +0.000 A 
ATOM     16  F   UNL     1      -0.744   9.048  21.824  0.00  0.00    +0.000 F 
ATOM     17  C   UNL     1       0.399   9.612  19.832  0.00  0.00    +0.000 A 
ATOM     18  F   UNL     1      -0.409  10.665  19.642  0.00  0.00    +0.000 F 
ATOM     19  C   UNL     1       1.395   9.322  18.907  0.00  0.00    +0.000 A 
ATOM     20  F   UNL     1       1.559  10.108  17.829  0.00  0.00    +0.000 F 
ENDBRANCH  10  12
ENDBRANCH   7   8
ENDBRANCH   1   7
BRANCH   2  21
ATOM     21  C   UNL     1       5.689   4.104  15.607  0.00  0.00    +0.000 C 
BRANCH  21  22
ATOM     22  C   UNL     1       5.238   2.848  16.361  0.00  0.00    +0.000 C 
BRANCH  22  23
ATOM     23  C   UNL     1       4.112   3.137  17.327  0.00  0.00    +0.000 A 
ATOM     24  N   UNL     1       2.987   3.672  16.822  0.00  0.00    +0.000 NA
ATOM     25  C   UNL     1       1.993   3.806  17.709  0.00  0.00    +0.000 A 
ATOM     26  C   UNL     1       2.042   3.458  19.054  0.00  0.00    +0.000 A 
ATOM     27  C   UNL     1       0.969   3.569  19.964  0.00  0.00    +0.000 A 
ATOM     28  C   UNL     1       1.132   3.168  21.286  0.00  0.00    +0.000 A 
ATOM     29  C   UNL     1       2.362   2.664  21.704  0.00  0.00    +0.000 A 
ATOM     30  C   UNL     1       3.417   2.568  20.792  0.00  0.00    +0.000 A 
ATOM     31  C   UNL     1       3.272   2.957  19.465  0.00  0.00    +0.000 A 
ATOM     32  N   UNL     1       4.309   2.829  18.622  0.00  0.00    +0.000 NA
BRANCH  25  33
ATOM     33  O   UNL     1       0.860   4.322  17.157  0.00  0.00    +0.000 OA
ATOM     34  H   UNL     1       0.319   4.433  17.960  0.00  0.00    +0.000 HD
ENDBRANCH  25  33
ENDBRANCH  22  23
ENDBRANCH  21  22
ENDBRANCH   2  21
TORSDOF 9
ENDMDL
MODEL 2
REMARK VINA RESULT:      -8.0      3.742      7.811
REMARK  Name = 
REMARK  10 active torsions:
REMARK  status: ('A' for Active; 'I' for Inactive)
REMARK    1  A    between atoms: C_1  and  C_2
REMARK    2  A    between atoms: C_2  and  C_3
REMARK    3  A    between atoms: C_3  and  N_4
REMARK    4  A    between atoms: N_4  and  C_5
REMARK    5  A    between atoms: C_5  and  C_6
REMARK    6  A    between atoms: N_8  and  C_9
REMARK    7  A    between atoms: C_18  and  C_20
REMARK    8  A    between atoms: C_20  and  C_21
REMARK    9  A    between atoms: C_21  and  C_22
REMARK   10  A    between atoms: C_24  and  O_25
REMARK                            x       y       z     vdW  Elec       q    Type
REMARK                         _______ _______ _______ _____ _____    ______ ____
ROOT
ATOM      1  N   UNL     1       6.100   6.269  16.578  0.00  0.00    +0.000 N 
ATOM      2  C   UNL     1       7.236   6.774  17.207  0.00  0.00    +0.000 C 
ATOM      3  O   UNL     1       8.241   6.078  17.375  0.00  0.00    +0.000 OA
ENDROOT
BRANCH   1   4
ATOM      4  C   UNL     1       6.217   4.932  15.984  0.00  0.00    +0.000 C 
BRANCH   4   6
ATOM      5  C   UNL     1       6.054   3.865  13.671  0.00  0.00    +0.000 C 
ATOM      6  C   UNL     1       5.379   4.738  14.716  0.00  0.00    +0.000 C 
ENDBRANCH   4   6
ENDBRANCH   1   4
BRANCH   1   7
ATOM      7  C   UNL     1       4.800   6.953  16.479  0.00  0.00    +0.000 C 
BRANCH   7   8
ATOM      8  C   UNL     1       3.730   6.573  17.526  0.00  0.00    +0.000 C 
ATOM      9  O   UNL     1       2.912   7.368  17.979  0.00  0.00    +0.000 OA
ATOM     10  N   UNL     1       3.824   5.237  17.921  0.00  0.00    +0.000 N 
ATOM     11  H   UNL     1       4.739   4.802  17.843  0.00  0.00    +0.000 HD
BRANCH  10  12
ATOM     12  C   UNL     1       2.959   4.663  18.884  0.00  0.00    +0.000 A 
ATOM     13  C   UNL     1       3.120   4.881  20.256  0.00  0.00    +0.000 A 
ATOM     14  C   UNL     1       2.292   4.223  21.172  0.00  0.00    +0.000 A 
ATOM     15  C   UNL     1       1.320   3.339  20.712  0.00  0.00    +0.000 A 
ATOM     16  F   UNL     1       0.573   2.666  21.598  0.00  0.00    +0.000 F 
ATOM     17  C   UNL     1       1.127   3.149  19.350  0.00  0.00    +0.000 A 
ATOM     18  F   UNL     1       0.196   2.288  18.914  0.00  0.00    +0.000 F 
ATOM     19  C   UNL     1       1.922   3.835  18.441  0.00  0.00    +0.000 A 
ATOM     20  F   UNL     1       1.747   3.648  17.121  0.00  0.00    +0.000 F 
ENDBRANCH  10  12
ENDBRANCH   7   8
ENDBRANCH   1   7
BRANCH   2  21
ATOM     21  C   UNL     1       7.198   8.191  17.759  0.00  0.00    +0.000 C 
BRANCH  21  22
ATOM     22  C   UNL     1       8.491   8.523  18.513  0.00  0.00    +0.000 C 
BRANCH  22  23
ATOM     23  C   UNL     1       8.827   9.995  18.445  0.00  0.00    +0.000 A 
ATOM     24  N   UNL     1       8.126  10.749  17.581  0.00  0.00    +0.000 NA
ATOM     25  C   UNL     1       8.398  12.058  17.645  0.00  0.00    +0.000 A 
ATOM     26  C   UNL     1       9.318  12.664  18.493  0.00  0.00    +0.000 A 
ATOM     27  C   UNL     1       9.561  14.053  18.573  0.00  0.00    +0.000 A 
ATOM     28  C   UNL     1      10.497  14.545  19.478  0.00  0.00    +0.000 A 
ATOM     29  C   UNL     1      11.193  13.658  20.297  0.00  0.00    +0.000 A 
ATOM     30  C   UNL     1      10.946  12.286  20.199  0.00  0.00    +0.000 A 
ATOM     31  C   UNL     1      10.011  11.774  19.306  0.00  0.00    +0.000 A 
ATOM     32  N   UNL     1       9.796  10.450  19.261  0.00  0.00    +0.000 NA
BRANCH  25  33
ATOM     33  O   UNL     1       7.649  12.795  16.779  0.00  0.00    +0.000 OA
ATOM     34  H   UNL     1       6.765  12.657  17.165  0.00  0.00    +0.000 HD
ENDBRANCH  25  33
ENDBRANCH  22  23
ENDBRANCH  21  22
ENDBRANCH   2  21
TORSDOF 9
ENDMDL
MODEL 3
REMARK VINA RESULT:      -7.7      2.990      5.800
REMARK  Name = 
REMARK  10 active torsions:
REMARK  status: ('A' for Active; 'I' for Inactive)
REMARK    1  A    between atoms: C_1  and  C_2
REMARK    2  A    between atoms: C_2  and  C_3
REMARK    3  A    between atoms: C_3  and  N_4
REMARK    4  A    between atoms: N_4  and  C_5
REMARK    5  A    between atoms: C_5  and  C_6
REMARK    6  A    between atoms: N_8  and  C_9
REMARK    7  A    between atoms: C_18  and  C_20
REMARK    8  A    between atoms: C_20  and  C_21
REMARK    9  A    between atoms: C_21  and  C_22
REMARK   10  A    between atoms: C_24  and  O_25
REMARK                            x       y       z     vdW  Elec       q    Type
REMARK                         _______ _______ _______ _____ _____    ______ ____
ROOT
ATOM      1  N   UNL     1       6.224   5.237  15.760  0.00  0.00    +0.000 N 
ATOM      2  C   UNL     1       5.332   6.305  15.793  0.00  0.00    +0.000 C 
ATOM      3  O   UNL     1       5.153   7.024  14.806  0.00  0.00    +0.000 OA
ENDROOT
BRANCH   1   4
ATOM      4  C   UNL     1       6.812   4.910  14.455  0.00  0.00    +0.000 C 
BRANCH   4   6
ATOM      5  C   UNL     1       6.379   3.710  12.244  0.00  0.00    +0.000 C 
ATOM      6  C   UNL     1       6.141   3.731  13.746  0.00  0.00    +0.000 C 
ENDBRANCH   4   6
ENDBRANCH   1   4
BRANCH   1   7
ATOM      7  C   UNL     1       6.636   4.427  16.919  0.00  0.00    +0.000 C 
BRANCH   7   8
ATOM      8  C   UNL     1       5.638   4.331  18.094  0.00  0.00    +0.000 C 
ATOM      9  O   UNL     1       5.786   4.923  19.159  0.00  0.00    +0.000 OA
ATOM     10  N   UNL     1       4.576   3.468  17.819  0.00  0.00    +0.000 N 
ATOM     11  H   UNL     1       4.752   2.728  17.145  0.00  0.00    +0.000 HD
BRANCH  10  12
ATOM     12  C   UNL     1       3.543   3.208  18.752  0.00  0.00    +0.000 A 
ATOM     13  C   UNL     1       2.218   3.593  18.526  0.00  0.00    +0.000 A 
ATOM     14  C   UNL     1       1.250   3.391  19.515  0.00  0.00    +0.000 A 
ATOM     15  C   UNL     1       1.615   2.819  20.731  0.00  0.00    +0.000 A 
ATOM     16  F   UNL     1       0.695   2.685  21.696  0.00  0.00    +0.000 F 
ATOM     17  C   UNL     1       2.920   2.396  20.948  0.00  0.00    +0.000 A 
ATOM     18  F   UNL     1       3.267   1.857  22.125  0.00  0.00    +0.000 F 
ATOM     19  C   UNL     1       3.871   2.560  19.948  0.00  0.00    +0.000 A 
ATOM     20  F   UNL     1       5.138   2.163  20.156  0.00  0.00    +0.000 F 
ENDBRANCH  10  12
ENDBRANCH   7   8
ENDBRANCH   1   7
BRANCH   2  21
ATOM     21  C   UNL     1       4.624   6.628  17.100  0.00  0.00    +0.000 C 
BRANCH  21  22
ATOM     22  C   UNL     1       3.706   7.846  16.944  0.00  0.00    +0.000 C 
BRANCH  22  23
ATOM     23  C   UNL     1       2.768   8.005  18.119  0.00  0.00    +0.000 A 
ATOM     24  N   UNL     1       2.781   7.041  19.055  0.00  0.00    +0.000 NA
ATOM     25  C   UNL     1       2.007   7.294  20.118  0.00  0.00    +0.000 A 
ATOM     26  C   UNL     1       1.221   8.423  20.309  0.00  0.00    +0.000 A 
ATOM     27  C   UNL     1       0.443   8.690  21.457  0.00  0.00    +0.000 A 
ATOM     28  C   UNL     1      -0.291   9.869  21.542  0.00  0.00    +0.000 A 
ATOM     29  C   UNL     1      -0.257  10.778  20.486  0.00  0.00    +0.000 A 
ATOM     30  C   UNL     1       0.512  10.495  19.354  0.00  0.00    +0.000 A 
ATOM     31  C   UNL     1       1.258   9.325  19.252  0.00  0.00    +0.000 A 
ATOM     32  N   UNL     1       1.995   9.107  18.152  0.00  0.00    +0.000 NA
BRANCH  25  33
ATOM     33  O   UNL     1       2.068   6.311  21.059  0.00  0.00    +0.000 OA
ATOM     34  H   UNL     1       1.120   6.105  21.146  0.00  0.00    +0.000 HD
ENDBRANCH  25  33
ENDBRANCH  22  23
ENDBRANCH  21  22
ENDBRANCH   2  21
TORSDOF 9
ENDMDL
MODEL 4
REMARK VINA RESULT:      -7.7      3.742      7.855
REMARK  Name = 
REMARK  10 active torsions:
REMARK  status: ('A' for Active; 'I' for Inactive)
REMARK    1  A    between atoms: C_1  and  C_2
REMARK    2  A    between atoms: C_2  and  C_3
REMARK    3  A    between atoms: C_3  and  N_4
REMARK    4  A    between atoms: N_4  and  C_5
REMARK    5  A    between atoms: C_5  and  C_6
REMARK    6  A    between atoms: N_8  and  C_9
REMARK    7  A    between atoms: C_18  and  C_20
REMARK    8  A    between atoms: C_20  and  C_21
REMARK    9  A    between atoms: C_21  and  C_22
REMARK   10  A    between atoms: C_24  and  O_25
REMARK                            x       y       z     vdW  Elec       q    Type
REMARK                         _______ _______ _______ _____ _____    ______ ____
ROOT
ATOM      1  N   UNL     1       3.338   4.081  18.357  0.00  0.00    +0.000 N 
ATOM      2  C   UNL     1       2.135   4.776  18.452  0.00  0.00    +0.000 C 
ATOM      3  O   UNL     1       1.051   4.187  18.455  0.00  0.00    +0.000 OA
ENDROOT
BRANCH   1   4
ATOM      4  C   UNL     1       3.259   2.617  18.425  0.00  0.00    +0.000 C 
BRANCH   4   6
ATOM      5  C   UNL     1       3.152   2.517  20.973  0.00  0.00    +0.000 C 
ATOM      6  C   UNL     1       3.838   2.021  19.711  0.00  0.00    +0.000 C 
ENDBRANCH   4   6
ENDBRANCH   1   4
BRANCH   1   7
ATOM      7  C   UNL     1       4.667   4.688  18.175  0.00  0.00    +0.000 C 
BRANCH   7   8
ATOM      8  C   UNL     1       5.055   5.103  16.739  0.00  0.00    +0.000 C 
ATOM      9  O   UNL     1       4.843   6.220  16.275  0.00  0.00    +0.000 OA
ATOM     10  N   UNL     1       5.637   4.056  16.022  0.00  0.00    +0.000 N 
ATOM     11  H   UNL     1       5.383   3.113  16.306  0.00  0.00    +0.000 HD
BRANCH  10  12
ATOM     12  C   UNL     1       6.060   4.193  14.679  0.00  0.00    +0.000 A 
ATOM     13  C   UNL     1       5.415   3.543  13.622  0.00  0.00    +0.000 A 
ATOM     14  C   UNL     1       5.923   3.641  12.322  0.00  0.00    +0.000 A 
ATOM     15  C   UNL     1       7.083   4.376  12.089  0.00  0.00    +0.000 A 
ATOM     16  F   UNL     1       7.597   4.413  10.852  0.00  0.00    +0.000 F 
ATOM     17  C   UNL     1       7.706   5.058  13.126  0.00  0.00    +0.000 A 
ATOM     18  F   UNL     1       8.829   5.753  12.896  0.00  0.00    +0.000 F 
ATOM     19  C   UNL     1       7.176   4.992  14.409  0.00  0.00    +0.000 A 
ATOM     20  F   UNL     1       7.781   5.642  15.418  0.00  0.00    +0.000 F 
ENDBRANCH  10  12
ENDBRANCH   7   8
ENDBRANCH   1   7
BRANCH   2  21
ATOM     21  C   UNL     1       2.168   6.297  18.479  0.00  0.00    +0.000 C 
BRANCH  21  22
ATOM     22  C   UNL     1       2.377   6.819  19.905  0.00  0.00    +0.000 C 
BRANCH  22  23
ATOM     23  C   UNL     1       1.631   8.111  20.152  0.00  0.00    +0.000 A 
ATOM     24  N   UNL     1       1.496   8.955  19.115  0.00  0.00    +0.000 NA
ATOM     25  C   UNL     1       0.737  10.027  19.372  0.00  0.00    +0.000 A 
ATOM     26  C   UNL     1       0.118  10.323  20.580  0.00  0.00    +0.000 A 
ATOM     27  C   UNL     1      -0.713  11.440  20.818  0.00  0.00    +0.000 A 
ATOM     28  C   UNL     1      -1.296  11.620  22.068  0.00  0.00    +0.000 A 
ATOM     29  C   UNL     1      -1.049  10.695  23.081  0.00  0.00    +0.000 A 
ATOM     30  C   UNL     1      -0.219   9.600  22.831  0.00  0.00    +0.000 A 
ATOM     31  C   UNL     1       0.369   9.398  21.586  0.00  0.00    +0.000 A 
ATOM     32  N   UNL     1       1.144   8.321  21.390  0.00  0.00    +0.000 NA
BRANCH  25  33
ATOM     33  O   UNL     1       0.597  10.844  18.290  0.00  0.00    +0.000 OA
ATOM     34  H   UNL     1       1.527  11.106  18.159  0.00  0.00    +0.000 HD
ENDBRANCH  25  33
ENDBRANCH  22  23
ENDBRANCH  21  22
ENDBRANCH   2  21
TORSDOF 9
ENDMDL
MODEL 5
REMARK VINA RESULT:      -7.6      3.796      6.366
REMARK  Name = 
REMARK  10 active torsions:
REMARK  status: ('A' for Active; 'I' for Inactive)
REMARK    1  A    between atoms: C_1  and  C_2
REMARK    2  A    between atoms: C_2  and  C_3
REMARK    3  A    between atoms: C_3  and  N_4
REMARK    4  A    between atoms: N_4  and  C_5
REMARK    5  A    between atoms: C_5  and  C_6
REMARK    6  A    between atoms: N_8  and  C_9
REMARK    7  A    between atoms: C_18  and  C_20
REMARK    8  A    between atoms: C_20  and  C_21
REMARK    9  A    between atoms: C_21  and  C_22
REMARK   10  A    between atoms: C_24  and  O_25
REMARK                            x       y       z     vdW  Elec       q    Type
REMARK                         _______ _______ _______ _____ _____    ______ ____
ROOT
ATOM      1  N   UNL     1       1.018  10.489  19.941  0.00  0.00    +0.000 N 
ATOM      2  C   UNL     1       1.266   9.156  19.628  0.00  0.00    +0.000 C 
ATOM      3  O   UNL     1       1.402   8.302  20.509  0.00  0.00    +0.000 OA
ENDROOT
BRANCH   1   4
ATOM      4  C   UNL     1       0.763  10.797  21.353  0.00  0.00    +0.000 C 
BRANCH   4   6
ATOM      5  C   UNL     1      -1.156  11.368  22.936  0.00  0.00    +0.000 C 
ATOM      6  C   UNL     1      -0.659  10.468  21.817  0.00  0.00    +0.000 C 
ENDBRANCH   4   6
ENDBRANCH   1   4
BRANCH   1   7
ATOM      7  C   UNL     1       1.009  11.608  18.983  0.00  0.00    +0.000 C 
BRANCH   7   8
ATOM      8  C   UNL     1      -0.372  12.095  18.493  0.00  0.00    +0.000 C 
ATOM      9  O   UNL     1      -0.607  13.258  18.176  0.00  0.00    +0.000 OA
ATOM     10  N   UNL     1      -1.325  11.075  18.488  0.00  0.00    +0.000 N 
ATOM     11  H   UNL     1      -1.178  10.311  19.141  0.00  0.00    +0.000 HD
BRANCH  10  12
ATOM     12  C   UNL     1      -2.667  11.287  18.092  0.00  0.00    +0.000 A 
ATOM     13  C   UNL     1      -3.124  10.978  16.806  0.00  0.00    +0.000 A 
ATOM     14  C   UNL     1      -4.438  11.284  16.436  0.00  0.00    +0.000 A 
ATOM     15  C   UNL     1      -5.282  11.914  17.347  0.00  0.00    +0.000 A 
ATOM     16  F   UNL     1      -6.519  12.260  16.964  0.00  0.00    +0.000 F 
ATOM     17  C   UNL     1      -4.849  12.187  18.638  0.00  0.00    +0.000 A 
ATOM     18  F   UNL     1      -5.663  12.803  19.506  0.00  0.00    +0.000 F 
ATOM     19  C   UNL     1      -3.557  11.843  19.017  0.00  0.00    +0.000 A 
ATOM     20  F   UNL     1      -3.129  12.114  20.262  0.00  0.00    +0.000 F 
ENDBRANCH  10  12
ENDBRANCH   7   8
ENDBRANCH   1   7
BRANCH   2  21
ATOM     21  C   UNL     1       1.446   8.767  18.168  0.00  0.00    +0.000 C 
BRANCH  21  22
ATOM     22  C   UNL     1       2.918   8.473  17.853  0.00  0.00    +0.000 C 
BRANCH  22  23
ATOM     23  C   UNL     1       3.179   6.994  17.686  0.00  0.00    +0.000 A 
ATOM     24  N   UNL     1       4.403   6.625  17.270  0.00  0.00    +0.000 NA
ATOM     25  C   UNL     1       4.601   5.302  17.245  0.00  0.00    +0.000 A 
ATOM     26  C   UNL     1       3.673   4.327  17.591  0.00  0.00    +0.000 A 
ATOM     27  C   UNL     1       3.916   2.936  17.597  0.00  0.00    +0.000 A 
ATOM     28  C   UNL     1       2.911   2.055  17.983  0.00  0.00    +0.000 A 
ATOM     29  C   UNL     1       1.665   2.555  18.357  0.00  0.00    +0.000 A 
ATOM     30  C   UNL     1       1.439   3.934  18.339  0.00  0.00    +0.000 A 
ATOM     31  C   UNL     1       2.432   4.832  17.962  0.00  0.00    +0.000 A 
ATOM     32  N   UNL     1       2.172   6.148  17.977  0.00  0.00    +0.000 NA
BRANCH  25  33
ATOM     33  O   UNL     1       5.860   4.966  16.848  0.00  0.00    +0.000 OA
ATOM     34  H   UNL     1       5.647   4.389  16.092  0.00  0.00    +0.000 HD
ENDBRANCH  25  33
ENDBRANCH  22  23
ENDBRANCH  21  22
ENDBRANCH   2  21
TORSDOF 9
ENDMDL
MODEL 6
REMARK VINA RESULT:      -7.6      4.008      7.824
REMARK  Name = 
REMARK  10 active torsions:
REMARK  status: ('A' for Active; 'I' for Inactive)
REMARK    1  A    between atoms: C_1  and  C_2
REMARK    2  A    between atoms: C_2  and  C_3
REMARK    3  A    between atoms: C_3  and  N_4
REMARK    4  A    between atoms: N_4  and  C_5
REMARK    5  A    between atoms: C_5  and  C_6
REMARK    6  A    between atoms: N_8  and  C_9
REMARK    7  A    between atoms: C_18  and  C_20
REMARK    8  A    between atoms: C_20  and  C_21
REMARK    9  A    between atoms: C_21  and  C_22
REMARK   10  A    between atoms: C_24  and  O_25
REMARK                            x       y       z     vdW  Elec       q    Type
REMARK                         _______ _______ _______ _____ _____    ______ ____
ROOT
ATOM      1  N   UNL     1       7.237   5.822  17.702  0.00  0.00    +0.000 N 
ATOM      2  C   UNL     1       7.595   7.002  17.055  0.00  0.00    +0.000 C 
ATOM      3  O   UNL     1       8.072   6.992  15.917  0.00  0.00    +0.000 OA
ENDROOT
BRANCH   1   4
ATOM      4  C   UNL     1       7.300   4.590  16.907  0.00  0.00    +0.000 C 
BRANCH   4   6
ATOM      5  C   UNL     1       6.505   4.190  14.514  0.00  0.00    +0.000 C 
ATOM      6  C   UNL     1       6.107   4.393  15.967  0.00  0.00    +0.000 C 
ENDBRANCH   4   6
ENDBRANCH   1   4
BRANCH   1   7
ATOM      7  C   UNL     1       6.823   5.708  19.110  0.00  0.00    +0.000 C 
BRANCH   7   8
ATOM      8  C   UNL     1       5.616   4.792  19.411  0.00  0.00    +0.000 C 
ATOM      9  O   UNL     1       5.725   3.635  19.805  0.00  0.00    +0.000 OA
ATOM     10  N   UNL     1       4.396   5.417  19.148  0.00  0.00    +0.000 N 
ATOM     11  H   UNL     1       4.404   6.157  18.451  0.00  0.00    +0.000 HD
BRANCH  10  12
ATOM     12  C   UNL     1       3.151   4.770  19.333  0.00  0.00    +0.000 A 
ATOM     13  C   UNL     1       2.288   5.097  20.384  0.00  0.00    +0.000 A 
ATOM     14  C   UNL     1       1.108   4.370  20.575  0.00  0.00    +0.000 A 
ATOM     15  C   UNL     1       0.806   3.309  19.725  0.00  0.00    +0.000 A 
ATOM     16  F   UNL     1      -0.294   2.579  19.954  0.00  0.00    +0.000 F 
ATOM     17  C   UNL     1       1.637   3.004  18.655  0.00  0.00    +0.000 A 
ATOM     18  F   UNL     1       1.346   1.974  17.848  0.00  0.00    +0.000 F 
ATOM     19  C   UNL     1       2.788   3.754  18.442  0.00  0.00    +0.000 A 
ATOM     20  F   UNL     1       3.601   3.457  17.414  0.00  0.00    +0.000 F 
ENDBRANCH  10  12
ENDBRANCH   7   8
ENDBRANCH   1   7
BRANCH   2  21
ATOM     21  C   UNL     1       7.461   8.318  17.805  0.00  0.00    +0.000 C 
BRANCH  21  22
ATOM     22  C   UNL     1       8.761   8.670  18.538  0.00  0.00    +0.000 C 
BRANCH  22  23
ATOM     23  C   UNL     1       8.928  10.162  18.714  0.00  0.00    +0.000 A 
ATOM     24  N   UNL     1       8.551  10.951  17.693  0.00  0.00    +0.000 NA
ATOM     25  C   UNL     1       8.626  12.262  17.953  0.00  0.00    +0.000 A 
ATOM     26  C   UNL     1       9.055  12.840  19.142  0.00  0.00    +0.000 A 
ATOM     27  C   UNL     1       9.087  14.226  19.411  0.00  0.00    +0.000 A 
ATOM     28  C   UNL     1       9.520  14.685  20.651  0.00  0.00    +0.000 A 
ATOM     29  C   UNL     1       9.925  13.770  21.620  0.00  0.00    +0.000 A 
ATOM     30  C   UNL     1       9.893  12.402  21.335  0.00  0.00    +0.000 A 
ATOM     31  C   UNL     1       9.459  11.921  20.104  0.00  0.00    +0.000 A 
ATOM     32  N   UNL     1       9.430  10.598  19.885  0.00  0.00    +0.000 NA
BRANCH  25  33
ATOM     33  O   UNL     1       8.209  13.030  16.908  0.00  0.00    +0.000 OA
ATOM     34  H   UNL     1       7.657  13.676  17.387  0.00  0.00    +0.000 HD
ENDBRANCH  25  33
ENDBRANCH  22  23
ENDBRANCH  21  22
ENDBRANCH   2  21
TORSDOF 9
ENDMDL
MODEL 7
REMARK VINA RESULT:      -7.6      1.571      5.433
REMARK  Name = 
REMARK  10 active torsions:
REMARK  status: ('A' for Active; 'I' for Inactive)
REMARK    1  A    between atoms: C_1  and  C_2
REMARK    2  A    between atoms: C_2  and  C_3
REMARK    3  A    between atoms: C_3  and  N_4
REMARK    4  A    between atoms: N_4  and  C_5
REMARK    5  A    between atoms: C_5  and  C_6
REMARK    6  A    between atoms: N_8  and  C_9
REMARK    7  A    between atoms: C_18  and  C_20
REMARK    8  A    between atoms: C_20  and  C_21
REMARK    9  A    between atoms: C_21  and  C_22
REMARK   10  A    between atoms: C_24  and  O_25
REMARK                            x       y       z     vdW  Elec       q    Type
REMARK                         _______ _______ _______ _____ _____    ______ ____
ROOT
ATOM      1  N   UNL     1       3.758   3.563  19.052  0.00  0.00    +0.000 N 
ATOM      2  C   UNL     1       3.997   3.051  17.780  0.00  0.00    +0.000 C 
ATOM      3  O   UNL     1       4.020   1.836  17.569  0.00  0.00    +0.000 OA
ENDROOT
BRANCH   1   4
ATOM      4  C   UNL     1       3.377   2.596  20.089  0.00  0.00    +0.000 C 
BRANCH   4   6
ATOM      5  C   UNL     1       1.006   2.348  19.175  0.00  0.00    +0.000 C 
ATOM      6  C   UNL     1       1.877   2.575  20.400  0.00  0.00    +0.000 C 
ENDBRANCH   4   6
ENDBRANCH   1   4
BRANCH   1   7
ATOM      7  C   UNL     1       3.876   4.977  19.444  0.00  0.00    +0.000 C 
BRANCH   7   8
ATOM      8  C   UNL     1       2.674   5.892  19.123  0.00  0.00    +0.000 C 
ATOM      9  O   UNL     1       1.674   5.512  18.521  0.00  0.00    +0.000 OA
ATOM     10  N   UNL     1       2.872   7.203  19.559  0.00  0.00    +0.000 N 
ATOM     11  H   UNL     1       3.836   7.517  19.637  0.00  0.00    +0.000 HD
BRANCH  10  12
ATOM     12  C   UNL     1       1.914   8.227  19.363  0.00  0.00    +0.000 A 
ATOM     13  C   UNL     1       1.756   8.875  18.134  0.00  0.00    +0.000 A 
ATOM     14  C   UNL     1       0.855   9.939  18.012  0.00  0.00    +0.000 A 
ATOM     15  C   UNL     1       0.130  10.358  19.125  0.00  0.00    +0.000 A 
ATOM     16  F   UNL     1      -0.684  11.417  19.015  0.00  0.00    +0.000 F 
ATOM     17  C   UNL     1       0.251   9.693  20.338  0.00  0.00    +0.000 A 
ATOM     18  F   UNL     1      -0.442  10.110  21.407  0.00  0.00    +0.000 F 
ATOM     19  C   UNL     1       1.115   8.611  20.445  0.00  0.00    +0.000 A 
ATOM     20  F   UNL     1       1.244   7.970  21.619  0.00  0.00    +0.000 F 
ENDBRANCH  10  12
ENDBRANCH   7   8
ENDBRANCH   1   7
BRANCH   2  21
ATOM     21  C   UNL     1       4.306   4.019  16.648  0.00  0.00    +0.000 C 
BRANCH  21  22
ATOM     22  C   UNL     1       5.810   4.057  16.350  0.00  0.00    +0.000 C 
BRANCH  22  23
ATOM     23  C   UNL     1       6.531   5.081  17.197  0.00  0.00    +0.000 A 
ATOM     24  N   UNL     1       7.213   4.630  18.264  0.00  0.00    +0.000 NA
ATOM     25  C   UNL     1       7.914   5.572  18.908  0.00  0.00    +0.000 A 
ATOM     26  C   UNL     1       7.975   6.920  18.576  0.00  0.00    +0.000 A 
ATOM     27  C   UNL     1       8.753   7.890  19.245  0.00  0.00    +0.000 A 
ATOM     28  C   UNL     1       8.749   9.210  18.806  0.00  0.00    +0.000 A 
ATOM     29  C   UNL     1       7.968   9.567  17.708  0.00  0.00    +0.000 A 
ATOM     30  C   UNL     1       7.197   8.595  17.062  0.00  0.00    +0.000 A 
ATOM     31  C   UNL     1       7.193   7.269  17.481  0.00  0.00    +0.000 A 
ATOM     32  N   UNL     1       6.450   6.370  16.817  0.00  0.00    +0.000 NA
BRANCH  25  33
ATOM     33  O   UNL     1       8.616   5.075  19.965  0.00  0.00    +0.000 OA
ATOM     34  H   UNL     1       7.925   5.105  20.652  0.00  0.00    +0.000 HD
ENDBRANCH  25  33
ENDBRANCH  22  23
ENDBRANCH  21  22
ENDBRANCH   2  21
TORSDOF 9
ENDMDL
MODEL 8
REMARK VINA RESULT:      -7.6      1.004      1.582
REMARK  Name = 
REMARK  10 active torsions:
REMARK  status: ('A' for Active; 'I' for Inactive)
REMARK    1  A    between atoms: C_1  and  C_2
REMARK    2  A    between atoms: C_2  and  C_3
REMARK    3  A    between atoms: C_3  and  N_4
REMARK    4  A    between atoms: N_4  and  C_5
REMARK    5  A    between atoms: C_5  and  C_6
REMARK    6  A    between atoms: N_8  and  C_9
REMARK    7  A    between atoms: C_18  and  C_20
REMARK    8  A    between atoms: C_20  and  C_21
REMARK    9  A    between atoms: C_21  and  C_22
REMARK   10  A    between atoms: C_24  and  O_25
REMARK                            x       y       z     vdW  Elec       q    Type
REMARK                         _______ _______ _______ _____ _____    ______ ____
ROOT
ATOM      1  N   UNL     1       6.445   6.082  17.285  0.00  0.00    +0.000 N 
ATOM      2  C   UNL     1       6.553   5.512  16.020  0.00  0.00    +0.000 C 
ATOM      3  O   UNL     1       7.528   5.734  15.296  0.00  0.00    +0.000 OA
ENDROOT
BRANCH   1   4
ATOM      4  C   UNL     1       7.614   6.821  17.777  0.00  0.00    +0.000 C 
BRANCH   4   6
ATOM      5  C   UNL     1       8.500   9.149  18.334  0.00  0.00    +0.000 C 
ATOM      6  C   UNL     1       7.593   8.315  17.444  0.00  0.00    +0.000 C 
ENDBRANCH   4   6
ENDBRANCH   1   4
BRANCH   1   7
ATOM      7  C   UNL     1       5.258   6.021  18.155  0.00  0.00    +0.000 C 
BRANCH   7   8
ATOM      8  C   UNL     1       4.154   7.071  17.904  0.00  0.00    +0.000 C 
ATOM      9  O   UNL     1       4.095   7.764  16.892  0.00  0.00    +0.000 OA
ATOM     10  N   UNL     1       3.260   7.168  18.971  0.00  0.00    +0.000 N 
ATOM     11  H   UNL     1       3.613   6.904  19.887  0.00  0.00    +0.000 HD
BRANCH  10  12
ATOM     12  C   UNL     1       2.172   8.074  18.976  0.00  0.00    +0.000 A 
ATOM     13  C   UNL     1       1.786   8.784  17.834  0.00  0.00    +0.000 A 
ATOM     14  C   UNL     1       0.761   9.732  17.910  0.00  0.00    +0.000 A 
ATOM     15  C   UNL     1       0.139   9.978  19.132  0.00  0.00    +0.000 A 
ATOM     16  F   UNL     1      -0.800  10.932  19.209  0.00  0.00    +0.000 F 
ATOM     17  C   UNL     1       0.488   9.249  20.261  0.00  0.00    +0.000 A 
ATOM     18  F   UNL     1      -0.107   9.499  21.436  0.00  0.00    +0.000 F 
ATOM     19  C   UNL     1       1.479   8.278  20.173  0.00  0.00    +0.000 A 
ATOM     20  F   UNL     1       1.828   7.577  21.265  0.00  0.00    +0.000 F 
ENDBRANCH  10  12
ENDBRANCH   7   8
ENDBRANCH   1   7
BRANCH   2  21
ATOM     21  C   UNL     1       5.406   4.659  15.500  0.00  0.00    +0.000 C 
BRANCH  21  22
ATOM     22  C   UNL     1       5.264   3.369  16.316  0.00  0.00    +0.000 C 
BRANCH  22  23
ATOM     23  C   UNL     1       4.118   3.442  17.299  0.00  0.00    +0.000 A 
ATOM     24  N   UNL     1       2.926   3.852  16.830  0.00  0.00    +0.000 NA
ATOM     25  C   UNL     1       1.932   3.793  17.725  0.00  0.00    +0.000 A 
ATOM     26  C   UNL     1       2.040   3.369  19.044  0.00  0.00    +0.000 A 
ATOM     27  C   UNL     1       0.970   3.276  19.960  0.00  0.00    +0.000 A 
ATOM     28  C   UNL     1       1.198   2.817  21.254  0.00  0.00    +0.000 A 
ATOM     29  C   UNL     1       2.489   2.457  21.638  0.00  0.00    +0.000 A 
ATOM     30  C   UNL     1       3.538   2.563  20.720  0.00  0.00    +0.000 A 
ATOM     31  C   UNL     1       3.330   3.013  19.421  0.00  0.00    +0.000 A 
ATOM     32  N   UNL     1       4.367   3.080  18.572  0.00  0.00    +0.000 NA
BRANCH  25  33
ATOM     33  O   UNL     1       0.735   4.187  17.208  0.00  0.00    +0.000 OA
ATOM     34  H   UNL     1       0.816   3.824  16.307  0.00  0.00    +0.000 HD
ENDBRANCH  25  33
ENDBRANCH  22  23
ENDBRANCH  21  22
ENDBRANCH   2  21
TORSDOF 9
ENDMDL
MODEL 9
REMARK VINA RESULT:      -7.5      3.077      6.857
REMARK  Name = 
REMARK  10 active torsions:
REMARK  status: ('A' for Active; 'I' for Inactive)
REMARK    1  A    between atoms: C_1  and  C_2
REMARK    2  A    between atoms: C_2  and  C_3
REMARK    3  A    between atoms: C_3  and  N_4
REMARK    4  A    between atoms: N_4  and  C_5
REMARK    5  A    between atoms: C_5  and  C_6
REMARK    6  A    between atoms: N_8  and  C_9
REMARK    7  A    between atoms: C_18  and  C_20
REMARK    8  A    between atoms: C_20  and  C_21
REMARK    9  A    between atoms: C_21  and  C_22
REMARK   10  A    between atoms: C_24  and  O_25
REMARK                            x       y       z     vdW  Elec       q    Type
REMARK                         _______ _______ _______ _____ _____    ______ ____
ROOT
ATOM      1  N   UNL     1       1.745   2.923  19.213  0.00  0.00    +0.000 N 
ATOM      2  C   UNL     1       1.261   3.456  20.404  0.00  0.00    +0.000 C 
ATOM      3  O   UNL     1       1.148   2.765  21.419  0.00  0.00    +0.000 OA
ENDROOT
BRANCH   1   4
ATOM      4  C   UNL     1       2.265   1.551  19.269  0.00  0.00    +0.000 C 
BRANCH   4   6
ATOM      5  C   UNL     1       4.577   1.916  20.288  0.00  0.00    +0.000 C 
ATOM      6  C   UNL     1       3.782   1.451  19.079  0.00  0.00    +0.000 C 
ENDBRANCH   4   6
ENDBRANCH   1   4
BRANCH   1   7
ATOM      7  C   UNL     1       1.761   3.608  17.909  0.00  0.00    +0.000 C 
BRANCH   7   8
ATOM      8  C   UNL     1       3.115   4.183  17.440  0.00  0.00    +0.000 C 
ATOM      9  O   UNL     1       3.751   3.733  16.491  0.00  0.00    +0.000 OA
ATOM     10  N   UNL     1       3.547   5.244  18.237  0.00  0.00    +0.000 N 
ATOM     11  H   UNL     1       3.212   5.259  19.197  0.00  0.00    +0.000 HD
BRANCH  10  12
ATOM     12  C   UNL     1       4.770   5.922  18.010  0.00  0.00    +0.000 A 
ATOM     13  C   UNL     1       4.902   6.915  17.034  0.00  0.00    +0.000 A 
ATOM     14  C   UNL     1       6.151   7.495  16.789  0.00  0.00    +0.000 A 
ATOM     15  C   UNL     1       7.264   7.066  17.509  0.00  0.00    +0.000 A 
ATOM     16  F   UNL     1       8.468   7.583  17.224  0.00  0.00    +0.000 F 
ATOM     17  C   UNL     1       7.133   6.110  18.507  0.00  0.00    +0.000 A 
ATOM     18  F   UNL     1       8.210   5.694  19.188  0.00  0.00    +0.000 F 
ATOM     19  C   UNL     1       5.883   5.565  18.778  0.00  0.00    +0.000 A 
ATOM     20  F   UNL     1       5.752   4.632  19.736  0.00  0.00    +0.000 F 
ENDBRANCH  10  12
ENDBRANCH   7   8
ENDBRANCH   1   7
BRANCH   2  21
ATOM     21  C   UNL     1       0.795   4.904  20.422  0.00  0.00    +0.000 C 
BRANCH  21  22
ATOM     22  C   UNL     1       1.955   5.853  20.746  0.00  0.00    +0.000 C 
BRANCH  22  23
ATOM     23  C   UNL     1       1.643   7.283  20.366  0.00  0.00    +0.000 A 
ATOM     24  N   UNL     1       2.065   7.708  19.163  0.00  0.00    +0.000 NA
ATOM     25  C   UNL     1       1.666   8.946  18.845  0.00  0.00    +0.000 A 
ATOM     26  C   UNL     1       0.893   9.787  19.637  0.00  0.00    +0.000 A 
ATOM     27  C   UNL     1       0.449  11.075  19.265  0.00  0.00    +0.000 A 
ATOM     28  C   UNL     1      -0.340  11.818  20.138  0.00  0.00    +0.000 A 
ATOM     29  C   UNL     1      -0.681  11.285  21.380  0.00  0.00    +0.000 A 
ATOM     30  C   UNL     1      -0.226  10.012  21.734  0.00  0.00    +0.000 A 
ATOM     31  C   UNL     1       0.558   9.250  20.874  0.00  0.00    +0.000 A 
ATOM     32  N   UNL     1       0.955   8.026  21.253  0.00  0.00    +0.000 NA
BRANCH  25  33
ATOM     33  O   UNL     1       2.086   9.333  17.608  0.00  0.00    +0.000 OA
ATOM     34  H   UNL     1       1.299   9.095  17.084  0.00  0.00    +0.000 HD
ENDBRANCH  25  33
ENDBRANCH  22  23
ENDBRANCH  21  22
ENDBRANCH   2  21
TORSDOF 9
ENDMDL
