MODEL 1
REMARK VINA RESULT:      -9.0      0.000      0.000
REMARK  Name = 
REMARK  5 active torsions:
REMARK  status: ('A' for Active; 'I' for Inactive)
REMARK    1  A    between atoms: C_4  and  C_5
REMARK    2  A    between atoms: C_5  and  N_6
REMARK    3  A    between atoms: N_6  and  C_7
REMARK    4  A    between atoms: N_6  and  C_14
REMARK    5  A    between atoms: C_7  and  C_8
REMARK                            x       y       z     vdW  Elec       q    Type
REMARK                         _______ _______ _______ _____ _____    ______ ____
ROOT
ATOM      1  N   UNL     1       3.923   3.667  17.655  0.00  0.00    +0.000 N 
ENDROOT
BRANCH   1   2
ATOM      2  C   UNL     1       5.167   4.191  17.234  0.00  0.00    +0.000 A 
ATOM      3  C   UNL     1       5.544   4.189  15.948  0.00  0.00    +0.000 A 
ATOM      4  C   UNL     1       6.840   4.811  15.610  0.00  0.00    +0.000 A 
ATOM      5  N   UNL     1       7.694   5.325  16.433  0.00  0.00    +0.000 NA
ATOM      6  C   UNL     1       7.310   5.308  17.747  0.00  0.00    +0.000 A 
ATOM      7  N   UNL     1       7.979   5.760  18.797  0.00  0.00    +0.000 NA
ATOM      8  C   UNL     1       7.125   5.529  19.824  0.00  0.00    +0.000 A 
ATOM      9  N   UNL     1       5.953   4.983  19.513  0.00  0.00    +0.000 NA
ATOM     10  N   UNL     1       6.069   4.787  18.167  0.00  0.00    +0.000 N 
ATOM     11  C   UNL     1       7.060   4.795  14.134  0.00  0.00    +0.000 C 
ATOM     12  C   UNL     1       5.789   4.161  13.560  0.00  0.00    +0.000 C 
ATOM     13  C   UNL     1       4.848   3.775  14.704  0.00  0.00    +0.000 C 
ENDBRANCH   1   2
BRANCH   1  14
ATOM     14  C   UNL     1       2.684   4.449  17.455  0.00  0.00    +0.000 C 
BRANCH  14  18
ATOM     15  C   UNL     1       2.137   8.264  19.164  0.00  0.00    +0.000 A 
ATOM     16  C   UNL     1       2.058   7.134  19.979  0.00  0.00    +0.000 A 
ATOM     17  C   UNL     1       2.435   5.894  19.480  0.00  0.00    +0.000 A 
ATOM     18  C   UNL     1       2.852   5.780  18.151  0.00  0.00    +0.000 A 
ATOM     19  C   UNL     1       3.109   6.941  17.401  0.00  0.00    +0.000 A 
ATOM     20  C   UNL     1       2.713   8.179  17.899  0.00  0.00    +0.000 A 
ENDBRANCH  14  18
ENDBRANCH   1  14
BRANCH   1  21
ATOM     21  C   UNL     1       3.788   2.227  17.990  0.00  0.00    +0.000 C 
BRANCH  21  22
ATOM     22  C   UNL     1       2.906   2.171  19.229  0.00  0.00    +0.000 A 
ATOM     23  C   UNL     1       1.514   2.177  19.067  0.00  0.00    +0.000 A 
ATOM     24  C   UNL     1       0.701   2.666  20.085  0.00  0.00    +0.000 A 
ATOM     25  C   UNL     1       1.269   3.128  21.271  0.00  0.00    +0.000 A 
ATOM     26  C   UNL     1       2.636   2.981  21.495  0.00  0.00    +0.000 A 
ATOM     27  C   UNL     1       3.452   2.460  20.492  0.00  0.00    +0.000 A 
ENDBRANCH  21  22
ENDBRANCH   1  21
TORSDOF 5
ENDMDL
MODEL 2
REMARK VINA RESULT:      -8.8      1.042      2.771
REMARK  Name = 
REMARK  5 active torsions:
REMARK  status: ('A' for Active; 'I' for Inactive)
REMARK    1  A    between atoms: C_4  and  C_5
REMARK    2  A    between atoms: C_5  and  N_6
REMARK    3  A    between atoms: N_6  and  C_7
REMARK    4  A    between atoms: N_6  and  C_14
REMARK    5  A    between atoms: C_7  and  C_8
REMARK                            x       y       z     vdW  Elec       q    Type
REMARK                         _______ _______ _______ _____ _____    ______ ____
ROOT
ATOM      1  N   UNL     1       3.921   3.883  17.543  0.00  0.00    +0.000 N 
ENDROOT
BRANCH   1   2
ATOM      2  C   UNL     1       5.133   4.483  17.130  0.00  0.00    +0.000 A 
ATOM      3  C   UNL     1       5.983   5.049  17.999  0.00  0.00    +0.000 A 
ATOM      4  C   UNL     1       7.246   5.598  17.466  0.00  0.00    +0.000 A 
ATOM      5  N   UNL     1       7.615   5.641  16.229  0.00  0.00    +0.000 NA
ATOM      6  C   UNL     1       6.734   5.077  15.344  0.00  0.00    +0.000 A 
ATOM      7  N   UNL     1       6.851   4.981  14.029  0.00  0.00    +0.000 NA
ATOM      8  C   UNL     1       5.729   4.306  13.674  0.00  0.00    +0.000 A 
ATOM      9  N   UNL     1       4.914   3.945  14.660  0.00  0.00    +0.000 NA
ATOM     10  N   UNL     1       5.527   4.477  15.757  0.00  0.00    +0.000 N 
ATOM     11  C   UNL     1       8.103   6.109  18.576  0.00  0.00    +0.000 C 
ATOM     12  C   UNL     1       7.311   5.802  19.851  0.00  0.00    +0.000 C 
ATOM     13  C   UNL     1       5.978   5.146  19.480  0.00  0.00    +0.000 C 
ENDBRANCH   1   2
BRANCH   1  14
ATOM     14  C   UNL     1       2.645   4.619  17.405  0.00  0.00    +0.000 C 
BRANCH  14  18
ATOM     15  C   UNL     1       1.976   8.319  19.313  0.00  0.00    +0.000 A 
ATOM     16  C   UNL     1       2.009   7.153  20.078  0.00  0.00    +0.000 A 
ATOM     17  C   UNL     1       2.428   5.959  19.504  0.00  0.00    +0.000 A 
ATOM     18  C   UNL     1       2.775   5.927  18.150  0.00  0.00    +0.000 A 
ATOM     19  C   UNL     1       2.922   7.132  17.442  0.00  0.00    +0.000 A 
ATOM     20  C   UNL     1       2.484   8.322  18.015  0.00  0.00    +0.000 A 
ENDBRANCH  14  18
ENDBRANCH   1  14
BRANCH   1  21
ATOM     21  C   UNL     1       3.855   2.423  17.804  0.00  0.00    +0.000 C 
BRANCH  21  22
ATOM     22  C   UNL     1       2.978   2.262  19.037  0.00  0.00    +0.000 A 
ATOM     23  C   UNL     1       1.587   2.224  18.875  0.00  0.00    +0.000 A 
ATOM     24  C   UNL     1       0.757   2.622  19.919  0.00  0.00    +0.000 A 
ATOM     25  C   UNL     1       1.310   3.036  21.131  0.00  0.00    +0.000 A 
ATOM     26  C   UNL     1       2.682   2.929  21.346  0.00  0.00    +0.000 A 
ATOM     27  C   UNL     1       3.515   2.498  20.315  0.00  0.00    +0.000 A 
ENDBRANCH  21  22
ENDBRANCH   1  21
TORSDOF 5
ENDMDL
MODEL 3
REMARK VINA RESULT:      -8.0      0.941      3.728
REMARK  Name = 
REMARK  5 active torsions:
REMARK  status: ('A' for Active; 'I' for Inactive)
REMARK    1  A    between atoms: C_4  and  C_5
REMARK    2  A    between atoms: C_5  and  N_6
REMARK    3  A    between atoms: N_6  and  C_7
REMARK    4  A    between atoms: N_6  and  C_14
REMARK    5  A    between atoms: C_7  and  C_8
REMARK                            x       y       z     vdW  Elec       q    Type
REMARK                         _______ _______ _______ _____ _____    ______ ____
ROOT
ATOM      1  N   UNL     1       3.937   5.126  18.191  0.00  0.00    +0.000 N 
ENDROOT
BRANCH   1   2
ATOM      2  C   UNL     1       5.231   4.912  17.663  0.00  0.00    +0.000 A 
ATOM      3  C   UNL     1       5.436   4.619  16.371  0.00  0.00    +0.000 A 
ATOM      4  C   UNL     1       6.832   4.468  15.913  0.00  0.00    +0.000 A 
ATOM      5  N   UNL     1       7.900   4.541  16.636  0.00  0.00    +0.000 NA
ATOM      6  C   UNL     1       7.683   4.824  17.959  0.00  0.00    +0.000 A 
ATOM      7  N   UNL     1       8.582   4.955  18.921  0.00  0.00    +0.000 NA
ATOM      8  C   UNL     1       7.825   5.271  20.002  0.00  0.00    +0.000 A 
ATOM      9  N   UNL     1       6.515   5.372  19.803  0.00  0.00    +0.000 NA
ATOM     10  N   UNL     1       6.392   5.040  18.484  0.00  0.00    +0.000 N 
ATOM     11  C   UNL     1       6.877   4.227  14.440  0.00  0.00    +0.000 C 
ATOM     12  C   UNL     1       5.413   4.282  13.994  0.00  0.00    +0.000 C 
ATOM     13  C   UNL     1       4.515   4.518  15.212  0.00  0.00    +0.000 C 
ENDBRANCH   1   2
BRANCH   1  14
ATOM     14  C   UNL     1       2.811   4.268  17.764  0.00  0.00    +0.000 C 
BRANCH  14  18
ATOM     15  C   UNL     1       1.924   2.707  21.579  0.00  0.00    +0.000 A 
ATOM     16  C   UNL     1       0.890   3.214  20.792  0.00  0.00    +0.000 A 
ATOM     17  C   UNL     1       1.127   3.541  19.463  0.00  0.00    +0.000 A 
ATOM     18  C   UNL     1       2.414   3.398  18.935  0.00  0.00    +0.000 A 
ATOM     19  C   UNL     1       3.396   2.713  19.671  0.00  0.00    +0.000 A 
ATOM     20  C   UNL     1       3.158   2.404  21.007  0.00  0.00    +0.000 A 
ENDBRANCH  14  18
ENDBRANCH   1  14
BRANCH   1  21
ATOM     21  C   UNL     1       3.747   5.970  19.398  0.00  0.00    +0.000 C 
BRANCH  21  22
ATOM     22  C   UNL     1       2.670   6.980  19.031  0.00  0.00    +0.000 A 
ATOM     23  C   UNL     1       2.800   7.699  17.835  0.00  0.00    +0.000 A 
ATOM     24  C   UNL     1       2.204   8.951  17.713  0.00  0.00    +0.000 A 
ATOM     25  C   UNL     1       1.463   9.478  18.769  0.00  0.00    +0.000 A 
ATOM     26  C   UNL     1       1.205   8.701  19.897  0.00  0.00    +0.000 A 
ATOM     27  C   UNL     1       1.770   7.433  20.011  0.00  0.00    +0.000 A 
ENDBRANCH  21  22
ENDBRANCH   1  21
TORSDOF 5
ENDMDL
MODEL 4
REMARK VINA RESULT:      -7.6      0.318      3.398
REMARK  Name = 
REMARK  5 active torsions:
REMARK  status: ('A' for Active; 'I' for Inactive)
REMARK    1  A    between atoms: C_4  and  C_5
REMARK    2  A    between atoms: C_5  and  N_6
REMARK    3  A    between atoms: N_6  and  C_7
REMARK    4  A    between atoms: N_6  and  C_14
REMARK    5  A    between atoms: C_7  and  C_8
REMARK                            x       y       z     vdW  Elec       q    Type
REMARK                         _______ _______ _______ _____ _____    ______ ____
ROOT
ATOM      1  N   UNL     1       4.024   3.388  17.471  0.00  0.00    +0.000 N 
ENDROOT
BRANCH   1   2
ATOM      2  C   UNL     1       5.221   4.033  17.085  0.00  0.00    +0.000 A 
ATOM      3  C   UNL     1       5.612   4.106  15.804  0.00  0.00    +0.000 A 
ATOM      4  C   UNL     1       6.851   4.851  15.505  0.00  0.00    +0.000 A 
ATOM      5  N   UNL     1       7.646   5.412  16.356  0.00  0.00    +0.000 NA
ATOM      6  C   UNL     1       7.249   5.320  17.663  0.00  0.00    +0.000 A 
ATOM      7  N   UNL     1       7.863   5.796  18.735  0.00  0.00    +0.000 NA
ATOM      8  C   UNL     1       7.020   5.458  19.743  0.00  0.00    +0.000 A 
ATOM      9  N   UNL     1       5.906   4.820  19.398  0.00  0.00    +0.000 NA
ATOM     10  N   UNL     1       6.055   4.678  18.048  0.00  0.00    +0.000 N 
ATOM     11  C   UNL     1       7.089   4.901  14.032  0.00  0.00    +0.000 C 
ATOM     12  C   UNL     1       5.887   4.175  13.420  0.00  0.00    +0.000 C 
ATOM     13  C   UNL     1       4.971   3.670  14.538  0.00  0.00    +0.000 C 
ENDBRANCH   1   2
BRANCH   1  14
ATOM     14  C   UNL     1       4.077   2.115  18.222  0.00  0.00    +0.000 C 
BRANCH  14  18
ATOM     15  C   UNL     1       1.031   3.231  20.916  0.00  0.00    +0.000 A 
ATOM     16  C   UNL     1       0.684   2.647  19.698  0.00  0.00    +0.000 A 
ATOM     17  C   UNL     1       1.668   2.088  18.892  0.00  0.00    +0.000 A 
ATOM     18  C   UNL     1       3.007   2.155  19.289  0.00  0.00    +0.000 A 
ATOM     19  C   UNL     1       3.326   2.570  20.593  0.00  0.00    +0.000 A 
ATOM     20  C   UNL     1       2.339   3.144  21.390  0.00  0.00    +0.000 A 
ENDBRANCH  14  18
ENDBRANCH   1  14
BRANCH   1  21
ATOM     21  C   UNL     1       2.730   4.116  17.431  0.00  0.00    +0.000 C 
BRANCH  21  22
ATOM     22  C   UNL     1       3.012   5.492  18.016  0.00  0.00    +0.000 A 
ATOM     23  C   UNL     1       2.531   5.791  19.297  0.00  0.00    +0.000 A 
ATOM     24  C   UNL     1       2.272   7.113  19.649  0.00  0.00    +0.000 A 
ATOM     25  C   UNL     1       2.512   8.137  18.734  0.00  0.00    +0.000 A 
ATOM     26  C   UNL     1       3.133   7.858  17.519  0.00  0.00    +0.000 A 
ATOM     27  C   UNL     1       3.426   6.540  17.175  0.00  0.00    +0.000 A 
ENDBRANCH  21  22
ENDBRANCH   1  21
TORSDOF 5
ENDMDL
MODEL 5
REMARK VINA RESULT:      -7.6      1.072      4.389
REMARK  Name = 
REMARK  5 active torsions:
REMARK  status: ('A' for Active; 'I' for Inactive)
REMARK    1  A    between atoms: C_4  and  C_5
REMARK    2  A    between atoms: C_5  and  N_6
REMARK    3  A    between atoms: N_6  and  C_7
REMARK    4  A    between atoms: N_6  and  C_14
REMARK    5  A    between atoms: C_7  and  C_8
REMARK                            x       y       z     vdW  Elec       q    Type
REMARK                         _______ _______ _______ _____ _____    ______ ____
ROOT
ATOM      1  N   UNL     1       4.036   3.612  17.408  0.00  0.00    +0.000 N 
ENDROOT
BRANCH   1   2
ATOM      2  C   UNL     1       5.200   4.328  17.042  0.00  0.00    +0.000 A 
ATOM      3  C   UNL     1       5.981   4.933  17.948  0.00  0.00    +0.000 A 
ATOM      4  C   UNL     1       7.201   5.607  17.463  0.00  0.00    +0.000 A 
ATOM      5  N   UNL     1       7.590   5.726  16.237  0.00  0.00    +0.000 NA
ATOM      6  C   UNL     1       6.779   5.119  15.314  0.00  0.00    +0.000 A 
ATOM      7  N   UNL     1       6.929   5.081  13.999  0.00  0.00    +0.000 NA
ATOM      8  C   UNL     1       5.877   4.325  13.597  0.00  0.00    +0.000 A 
ATOM      9  N   UNL     1       5.077   3.860  14.551  0.00  0.00    +0.000 NA
ATOM     10  N   UNL     1       5.620   4.404  15.679  0.00  0.00    +0.000 N 
ATOM     11  C   UNL     1       7.989   6.152  18.609  0.00  0.00    +0.000 C 
ATOM     12  C   UNL     1       7.202   5.733  19.854  0.00  0.00    +0.000 C 
ATOM     13  C   UNL     1       5.938   4.978  19.431  0.00  0.00    +0.000 C 
ENDBRANCH   1   2
BRANCH   1  14
ATOM     14  C   UNL     1       4.155   2.310  18.099  0.00  0.00    +0.000 C 
BRANCH  14  18
ATOM     15  C   UNL     1       1.055   3.141  20.834  0.00  0.00    +0.000 A 
ATOM     16  C   UNL     1       0.738   2.608  19.585  0.00  0.00    +0.000 A 
ATOM     17  C   UNL     1       1.748   2.139  18.754  0.00  0.00    +0.000 A 
ATOM     18  C   UNL     1       3.081   2.244  19.161  0.00  0.00    +0.000 A 
ATOM     19  C   UNL     1       3.378   2.601  20.487  0.00  0.00    +0.000 A 
ATOM     20  C   UNL     1       2.364   3.087  21.309  0.00  0.00    +0.000 A 
ENDBRANCH  14  18
ENDBRANCH   1  14
BRANCH   1  21
ATOM     21  C   UNL     1       2.711   4.282  17.411  0.00  0.00    +0.000 C 
BRANCH  21  22
ATOM     22  C   UNL     1       2.941   5.649  18.038  0.00  0.00    +0.000 A 
ATOM     23  C   UNL     1       2.528   5.862  19.360  0.00  0.00    +0.000 A 
ATOM     24  C   UNL     1       2.207   7.148  19.786  0.00  0.00    +0.000 A 
ATOM     25  C   UNL     1       2.318   8.223  18.905  0.00  0.00    +0.000 A 
ATOM     26  C   UNL     1       2.874   8.036  17.642  0.00  0.00    +0.000 A 
ATOM     27  C   UNL     1       3.229   6.756  17.221  0.00  0.00    +0.000 A 
ENDBRANCH  21  22
ENDBRANCH   1  21
TORSDOF 5
ENDMDL
MODEL 6
REMARK VINA RESULT:      -7.5      0.494      1.044
REMARK  Name = 
REMARK  5 active torsions:
REMARK  status: ('A' for Active; 'I' for Inactive)
REMARK    1  A    between atoms: C_4  and  C_5
REMARK    2  A    between atoms: C_5  and  N_6
REMARK    3  A    between atoms: N_6  and  C_7
REMARK    4  A    between atoms: N_6  and  C_14
REMARK    5  A    between atoms: C_7  and  C_8
REMARK                            x       y       z     vdW  Elec       q    Type
REMARK                         _______ _______ _______ _____ _____    ______ ____
ROOT
ATOM      1  N   UNL     1       3.760   4.124  17.619  0.00  0.00    +0.000 N 
ENDROOT
BRANCH   1   2
ATOM      2  C   UNL     1       5.093   4.392  17.231  0.00  0.00    +0.000 A 
ATOM      3  C   UNL     1       5.503   4.280  15.959  0.00  0.00    +0.000 A 
ATOM      4  C   UNL     1       6.903   4.637  15.655  0.00  0.00    +0.000 A 
ATOM      5  N   UNL     1       7.811   5.008  16.494  0.00  0.00    +0.000 NA
ATOM      6  C   UNL     1       7.391   5.105  17.794  0.00  0.00    +0.000 A 
ATOM      7  N   UNL     1       8.099   5.457  18.855  0.00  0.00    +0.000 NA
ATOM      8  C   UNL     1       7.184   5.423  19.856  0.00  0.00    +0.000 A 
ATOM      9  N   UNL     1       5.942   5.096  19.516  0.00  0.00    +0.000 NA
ATOM     10  N   UNL     1       6.061   4.839  18.181  0.00  0.00    +0.000 N 
ATOM     11  C   UNL     1       7.162   4.533  14.188  0.00  0.00    +0.000 C 
ATOM     12  C   UNL     1       5.813   4.130  13.584  0.00  0.00    +0.000 C 
ATOM     13  C   UNL     1       4.781   3.963  14.702  0.00  0.00    +0.000 C 
ENDBRANCH   1   2
BRANCH   1  14
ATOM     14  C   UNL     1       2.671   5.036  17.209  0.00  0.00    +0.000 C 
BRANCH  14  18
ATOM     15  C   UNL     1       1.973   8.622  19.315  0.00  0.00    +0.000 A 
ATOM     16  C   UNL     1       2.026   7.417  20.017  0.00  0.00    +0.000 A 
ATOM     17  C   UNL     1       2.455   6.261  19.378  0.00  0.00    +0.000 A 
ATOM     18  C   UNL     1       2.791   6.305  18.022  0.00  0.00    +0.000 A 
ATOM     19  C   UNL     1       2.918   7.547  17.377  0.00  0.00    +0.000 A 
ATOM     20  C   UNL     1       2.470   8.700  18.016  0.00  0.00    +0.000 A 
ENDBRANCH  14  18
ENDBRANCH   1  14
BRANCH   1  21
ATOM     21  C   UNL     1       3.384   2.786  18.143  0.00  0.00    +0.000 C 
BRANCH  21  22
ATOM     22  C   UNL     1       2.640   3.046  19.445  0.00  0.00    +0.000 A 
ATOM     23  C   UNL     1       3.330   2.899  20.656  0.00  0.00    +0.000 A 
ATOM     24  C   UNL     1       2.630   2.586  21.818  0.00  0.00    +0.000 A 
ATOM     25  C   UNL     1       1.243   2.441  21.779  0.00  0.00    +0.000 A 
ATOM     26  C   UNL     1       0.542   2.738  20.612  0.00  0.00    +0.000 A 
ATOM     27  C   UNL     1       1.236   3.086  19.454  0.00  0.00    +0.000 A 
ENDBRANCH  21  22
ENDBRANCH   1  21
TORSDOF 5
ENDMDL
MODEL 7
REMARK VINA RESULT:      -7.4      1.703      6.334
REMARK  Name = 
REMARK  5 active torsions:
REMARK  status: ('A' for Active; 'I' for Inactive)
REMARK    1  A    between atoms: C_4  and  C_5
REMARK    2  A    between atoms: C_5  and  N_6
REMARK    3  A    between atoms: N_6  and  C_7
REMARK    4  A    between atoms: N_6  and  C_14
REMARK    5  A    between atoms: C_7  and  C_8
REMARK                            x       y       z     vdW  Elec       q    Type
REMARK                         _______ _______ _______ _____ _____    ______ ____
ROOT
ATOM      1  N   UNL     1       5.249   4.829  16.537  0.00  0.00    +0.000 N 
ENDROOT
BRANCH   1   2
ATOM      2  C   UNL     1       4.180   4.788  17.462  0.00  0.00    +0.000 A 
ATOM      3  C   UNL     1       3.556   5.899  17.882  0.00  0.00    +0.000 A 
ATOM      4  C   UNL     1       2.416   5.739  18.806  0.00  0.00    +0.000 A 
ATOM      5  N   UNL     1       1.968   4.634  19.305  0.00  0.00    +0.000 NA
ATOM      6  C   UNL     1       2.620   3.505  18.885  0.00  0.00    +0.000 A 
ATOM      7  N   UNL     1       2.379   2.250  19.230  0.00  0.00    +0.000 NA
ATOM      8  C   UNL     1       3.282   1.555  18.494  0.00  0.00    +0.000 A 
ATOM      9  N   UNL     1       4.068   2.264  17.691  0.00  0.00    +0.000 NA
ATOM     10  N   UNL     1       3.685   3.546  17.962  0.00  0.00    +0.000 N 
ATOM     11  C   UNL     1       1.793   7.063  19.103  0.00  0.00    +0.000 C 
ATOM     12  C   UNL     1       2.593   8.064  18.264  0.00  0.00    +0.000 C 
ATOM     13  C   UNL     1       3.703   7.328  17.509  0.00  0.00    +0.000 C 
ENDBRANCH   1   2
BRANCH   1  14
ATOM     14  C   UNL     1       5.034   5.370  15.178  0.00  0.00    +0.000 C 
BRANCH  14  18
ATOM     15  C   UNL     1       7.134   3.929  11.818  0.00  0.00    +0.000 A 
ATOM     16  C   UNL     1       7.749   4.854  12.662  0.00  0.00    +0.000 A 
ATOM     17  C   UNL     1       7.160   5.183  13.876  0.00  0.00    +0.000 A 
ATOM     18  C   UNL     1       5.931   4.615  14.225  0.00  0.00    +0.000 A 
ATOM     19  C   UNL     1       5.417   3.550  13.466  0.00  0.00    +0.000 A 
ATOM     20  C   UNL     1       6.001   3.236  12.242  0.00  0.00    +0.000 A 
ENDBRANCH  14  18
ENDBRANCH   1  14
BRANCH   1  21
ATOM     21  C   UNL     1       6.649   4.649  16.999  0.00  0.00    +0.000 C 
BRANCH  21  22
ATOM     22  C   UNL     1       6.999   5.919  17.760  0.00  0.00    +0.000 A 
ATOM     23  C   UNL     1       7.003   7.139  17.071  0.00  0.00    +0.000 A 
ATOM     24  C   UNL     1       7.804   8.186  17.520  0.00  0.00    +0.000 A 
ATOM     25  C   UNL     1       8.582   8.026  18.666  0.00  0.00    +0.000 A 
ATOM     26  C   UNL     1       8.463   6.872  19.437  0.00  0.00    +0.000 A 
ATOM     27  C   UNL     1       7.636   5.834  19.010  0.00  0.00    +0.000 A 
ENDBRANCH  21  22
ENDBRANCH   1  21
TORSDOF 5
ENDMDL
MODEL 8
REMARK VINA RESULT:      -7.3      1.156      1.904
REMARK  Name = 
REMARK  5 active torsions:
REMARK  status: ('A' for Active; 'I' for Inactive)
REMARK    1  A    between atoms: C_4  and  C_5
REMARK    2  A    between atoms: C_5  and  N_6
REMARK    3  A    between atoms: N_6  and  C_7
REMARK    4  A    between atoms: N_6  and  C_14
REMARK    5  A    between atoms: C_7  and  C_8
REMARK                            x       y       z     vdW  Elec       q    Type
REMARK                         _______ _______ _______ _____ _____    ______ ____
ROOT
ATOM      1  N   UNL     1       3.965   6.066  17.628  0.00  0.00    +0.000 N 
ENDROOT
BRANCH   1   2
ATOM      2  C   UNL     1       5.195   5.452  17.299  0.00  0.00    +0.000 A 
ATOM      3  C   UNL     1       5.434   4.937  16.084  0.00  0.00    +0.000 A 
ATOM      4  C   UNL     1       6.772   4.367  15.830  0.00  0.00    +0.000 A 
ATOM      5  N   UNL     1       7.746   4.263  16.673  0.00  0.00    +0.000 NA
ATOM      6  C   UNL     1       7.490   4.776  17.917  0.00  0.00    +0.000 A 
ATOM      7  N   UNL     1       8.295   4.804  18.967  0.00  0.00    +0.000 NA
ATOM      8  C   UNL     1       7.555   5.454  19.899  0.00  0.00    +0.000 A 
ATOM      9  N   UNL     1       6.347   5.861  19.523  0.00  0.00    +0.000 NA
ATOM     10  N   UNL     1       6.264   5.390  18.244  0.00  0.00    +0.000 N 
ATOM     11  C   UNL     1       6.889   3.918  14.411  0.00  0.00    +0.000 C 
ATOM     12  C   UNL     1       5.545   4.287  13.776  0.00  0.00    +0.000 C 
ATOM     13  C   UNL     1       4.634   4.916  14.834  0.00  0.00    +0.000 C 
ENDBRANCH   1   2
BRANCH   1  14
ATOM     14  C   UNL     1       3.870   7.540  17.707  0.00  0.00    +0.000 C 
BRANCH  14  18
ATOM     15  C   UNL     1       0.695   9.381  19.782  0.00  0.00    +0.000 A 
ATOM     16  C   UNL     1       0.785   9.535  18.399  0.00  0.00    +0.000 A 
ATOM     17  C   UNL     1       1.696   8.775  17.675  0.00  0.00    +0.000 A 
ATOM     18  C   UNL     1       2.546   7.891  18.347  0.00  0.00    +0.000 A 
ATOM     19  C   UNL     1       2.320   7.604  19.704  0.00  0.00    +0.000 A 
ATOM     20  C   UNL     1       1.419   8.380  20.427  0.00  0.00    +0.000 A 
ENDBRANCH  14  18
ENDBRANCH   1  14
BRANCH   1  21
ATOM     21  C   UNL     1       2.699   5.291  17.574  0.00  0.00    +0.000 C 
BRANCH  21  22
ATOM     22  C   UNL     1       2.824   4.221  18.648  0.00  0.00    +0.000 A 
ATOM     23  C   UNL     1       2.490   2.899  18.324  0.00  0.00    +0.000 A 
ATOM     24  C   UNL     1       2.063   2.028  19.323  0.00  0.00    +0.000 A 
ATOM     25  C   UNL     1       1.988   2.465  20.645  0.00  0.00    +0.000 A 
ATOM     26  C   UNL     1       2.465   3.728  20.991  0.00  0.00    +0.000 A 
ATOM     27  C   UNL     1       2.926   4.592  19.999  0.00  0.00    +0.000 A 
ENDBRANCH  21  22
ENDBRANCH   1  21
TORSDOF 5
ENDMDL
MODEL 9
REMARK VINA RESULT:      -7.3      1.742      6.248
REMARK  Name = 
REMARK  5 active torsions:
REMARK  status: ('A' for Active; 'I' for Inactive)
REMARK    1  A    between atoms: C_4  and  C_5
REMARK    2  A    between atoms: C_5  and  N_6
REMARK    3  A    between atoms: N_6  and  C_7
REMARK    4  A    between atoms: N_6  and  C_14
REMARK    5  A    between atoms: C_7  and  C_8
REMARK                            x       y       z     vdW  Elec       q    Type
REMARK                         _______ _______ _______ _____ _____    ______ ____
ROOT
ATOM      1  N   UNL     1       5.215   4.569  16.370  0.00  0.00    +0.000 N 
ENDROOT
BRANCH   1   2
ATOM      2  C   UNL     1       4.184   4.739  17.324  0.00  0.00    +0.000 A 
ATOM      3  C   UNL     1       3.714   5.949  17.658  0.00  0.00    +0.000 A 
ATOM      4  C   UNL     1       2.600   6.010  18.625  0.00  0.00    +0.000 A 
ATOM      5  N   UNL     1       2.044   5.016  19.235  0.00  0.00    +0.000 NA
ATOM      6  C   UNL     1       2.540   3.784  18.901  0.00  0.00    +0.000 A 
ATOM      7  N   UNL     1       2.165   2.603  19.365  0.00  0.00    +0.000 NA
ATOM      8  C   UNL     1       2.950   1.741  18.671  0.00  0.00    +0.000 A 
ATOM      9  N   UNL     1       3.783   2.277  17.784  0.00  0.00    +0.000 NA
ATOM     10  N   UNL     1       3.565   3.614  17.948  0.00  0.00    +0.000 N 
ATOM     11  C   UNL     1       2.150   7.421  18.817  0.00  0.00    +0.000 C 
ATOM     12  C   UNL     1       3.030   8.241  17.868  0.00  0.00    +0.000 C 
ATOM     13  C   UNL     1       4.015   7.312  17.153  0.00  0.00    +0.000 C 
ENDBRANCH   1   2
BRANCH   1  14
ATOM     14  C   UNL     1       5.164   5.301  15.086  0.00  0.00    +0.000 C 
BRANCH  14  18
ATOM     15  C   UNL     1       6.821   3.726  11.543  0.00  0.00    +0.000 A 
ATOM     16  C   UNL     1       7.579   4.602  12.320  0.00  0.00    +0.000 A 
ATOM     17  C   UNL     1       7.135   4.968  13.584  0.00  0.00    +0.000 A 
ATOM     18  C   UNL     1       5.909   4.487  14.052  0.00  0.00    +0.000 A 
ATOM     19  C   UNL     1       5.250   3.463  13.351  0.00  0.00    +0.000 A 
ATOM     20  C   UNL     1       5.689   3.113  12.077  0.00  0.00    +0.000 A 
ENDBRANCH  14  18
ENDBRANCH   1  14
BRANCH   1  21
ATOM     21  C   UNL     1       6.500   3.934  16.757  0.00  0.00    +0.000 C 
BRANCH  21  22
ATOM     22  C   UNL     1       7.360   5.055  17.323  0.00  0.00    +0.000 A 
ATOM     23  C   UNL     1       7.853   4.932  18.629  0.00  0.00    +0.000 A 
ATOM     24  C   UNL     1       8.148   6.074  19.368  0.00  0.00    +0.000 A 
ATOM     25  C   UNL     1       7.973   7.336  18.802  0.00  0.00    +0.000 A 
ATOM     26  C   UNL     1       7.631   7.457  17.457  0.00  0.00    +0.000 A 
ATOM     27  C   UNL     1       7.368   6.315  16.702  0.00  0.00    +0.000 A 
ENDBRANCH  21  22
ENDBRANCH   1  21
TORSDOF 5
ENDMDL
