MODEL 1
REMARK VINA RESULT:      -9.1      0.000      0.000
REMARK  Name = 
REMARK  13 active torsions:
REMARK  status: ('A' for Active; 'I' for Inactive)
REMARK    1  A    between atoms: C_1  and  C_2
REMARK    2  A    between atoms: C_2  and  C_3
REMARK    3  A    between atoms: C_3  and  C_4
REMARK    4  A    between atoms: C_4  and  N_5
REMARK    5  A    between atoms: C_4  and  C_14
REMARK    6  A    between atoms: N_5  and  C_6
REMARK    7  A    between atoms: C_6  and  C_7
REMARK    8  A    between atoms: C_6  and  C_11
REMARK    9  A    between atoms: N_9  and  O_10
REMARK   10  A    between atoms: C_11  and  C_12
REMARK   11  A    between atoms: C_11  and  O_13
REMARK   12  A    between atoms: C_17  and  C_18
REMARK   13  A    between atoms: C_19  and  C_20
REMARK                            x       y       z     vdW  Elec       q    Type
REMARK                         _______ _______ _______ _____ _____    ______ ____
ROOT
ATOM      1  C   UNL     1       5.012   4.267  16.838  0.00  0.00    +0.000 C 
ENDROOT
BRANCH   1   2
ATOM      2  C   UNL     1       5.874   5.469  17.281  0.00  0.00    +0.000 A 
ATOM      3  C   UNL     1       6.966   5.345  18.165  0.00  0.00    +0.000 A 
ATOM      4  C   UNL     1       7.789   6.430  18.482  0.00  0.00    +0.000 A 
ATOM      5  C   UNL     1       7.521   7.682  17.952  0.00  0.00    +0.000 A 
ATOM      6  C   UNL     1       6.443   7.848  17.089  0.00  0.00    +0.000 A 
ATOM      7  C   UNL     1       5.659   6.748  16.735  0.00  0.00    +0.000 A 
BRANCH   5   8
ATOM      8  C   UNL     1       8.356   8.800  18.258  0.00  0.00    +0.000 C 
ATOM      9  C   UNL     1       9.044   9.748  18.521  0.00  0.00    +0.000 C 
BRANCH   9  10
ATOM     10  C   UNL     1       9.877  10.857  18.826  0.00  0.00    +0.000 A 
ATOM     11  C   UNL     1      10.474  11.576  17.790  0.00  0.00    +0.000 A 
ATOM     12  C   UNL     1      11.325  12.643  18.083  0.00  0.00    +0.000 A 
ATOM     13  C   UNL     1      11.573  12.991  19.408  0.00  0.00    +0.000 A 
ATOM     14  C   UNL     1      10.967  12.279  20.447  0.00  0.00    +0.000 A 
ATOM     15  C   UNL     1      10.118  11.214  20.155  0.00  0.00    +0.000 A 
ENDBRANCH   9  10
ENDBRANCH   5   8
ENDBRANCH   1   2
BRANCH   1  16
ATOM     16  N   UNL     1       4.772   3.249  17.873  0.00  0.00    +0.000 NA
ATOM     17  H   UNL     1       5.630   3.084  18.404  0.00  0.00    +0.000 HD
BRANCH  16  18
ATOM     18  C   UNL     1       3.653   3.419  18.827  0.00  0.00    +0.000 C 
BRANCH  18  19
ATOM     19  C   UNL     1       3.950   2.616  20.124  0.00  0.00    +0.000 C 
ATOM     20  O   UNL     1       3.203   2.552  21.101  0.00  0.00    +0.000 OA
ATOM     21  N   UNL     1       5.138   1.911  20.081  0.00  0.00    +0.000 N 
ATOM     22  H   UNL     1       5.890   2.246  19.473  0.00  0.00    +0.000 HD
BRANCH  21  23
ATOM     23  O   UNL     1       5.527   1.290  21.292  0.00  0.00    +0.000 OA
ATOM     24  H   UNL     1       5.007   0.457  21.272  0.00  0.00    +0.000 HD
ENDBRANCH  21  23
ENDBRANCH  18  19
BRANCH  18  25
ATOM     25  C   UNL     1       2.224   3.056  18.321  0.00  0.00    +0.000 C 
ATOM     26  C   UNL     1       1.495   4.178  17.590  0.00  0.00    +0.000 C 
BRANCH  25  27
ATOM     27  O   UNL     1       2.311   1.899  17.465  0.00  0.00    +0.000 OA
ATOM     28  H   UNL     1       2.708   2.177  16.617  0.00  0.00    +0.000 HD
ENDBRANCH  25  27
ENDBRANCH  18  25
ENDBRANCH  16  18
ENDBRANCH   1  16
BRANCH   1  29
ATOM     29  C   UNL     1       5.660   3.553  15.607  0.00  0.00    +0.000 C 
BRANCH  29  31
ATOM     30  C   UNL     1       6.435   3.867  13.242  0.00  0.00    +0.000 C 
ATOM     31  C   UNL     1       6.535   4.395  14.675  0.00  0.00    +0.000 C 
ENDBRANCH  29  31
ENDBRANCH   1  29
TORSDOF 11
ENDMDL
MODEL 2
REMARK VINA RESULT:      -8.6      0.788      1.339
REMARK  Name = 
REMARK  13 active torsions:
REMARK  status: ('A' for Active; 'I' for Inactive)
REMARK    1  A    between atoms: C_1  and  C_2
REMARK    2  A    between atoms: C_2  and  C_3
REMARK    3  A    between atoms: C_3  and  C_4
REMARK    4  A    between atoms: C_4  and  N_5
REMARK    5  A    between atoms: C_4  and  C_14
REMARK    6  A    between atoms: N_5  and  C_6
REMARK    7  A    between atoms: C_6  and  C_7
REMARK    8  A    between atoms: C_6  and  C_11
REMARK    9  A    between atoms: N_9  and  O_10
REMARK   10  A    between atoms: C_11  and  C_12
REMARK   11  A    between atoms: C_11  and  O_13
REMARK   12  A    between atoms: C_17  and  C_18
REMARK   13  A    between atoms: C_19  and  C_20
REMARK                            x       y       z     vdW  Elec       q    Type
REMARK                         _______ _______ _______ _____ _____    ______ ____
ROOT
ATOM      1  C   UNL     1       5.012   4.331  16.390  0.00  0.00    +0.000 C 
ENDROOT
BRANCH   1   2
ATOM      2  C   UNL     1       5.858   5.499  16.943  0.00  0.00    +0.000 A 
ATOM      3  C   UNL     1       7.049   5.305  17.673  0.00  0.00    +0.000 A 
ATOM      4  C   UNL     1       7.847   6.376  18.087  0.00  0.00    +0.000 A 
ATOM      5  C   UNL     1       7.458   7.678  17.812  0.00  0.00    +0.000 A 
ATOM      6  C   UNL     1       6.281   7.910  17.108  0.00  0.00    +0.000 A 
ATOM      7  C   UNL     1       5.518   6.833  16.652  0.00  0.00    +0.000 A 
BRANCH   5   8
ATOM      8  C   UNL     1       8.265   8.783  18.219  0.00  0.00    +0.000 C 
ATOM      9  C   UNL     1       8.937   9.712  18.577  0.00  0.00    +0.000 C 
BRANCH   9  10
ATOM     10  C   UNL     1       9.742  10.810  18.980  0.00  0.00    +0.000 A 
ATOM     11  C   UNL     1       9.792  11.170  20.326  0.00  0.00    +0.000 A 
ATOM     12  C   UNL     1      10.551  12.273  20.725  0.00  0.00    +0.000 A 
ATOM     13  C   UNL     1      11.258  13.009  19.777  0.00  0.00    +0.000 A 
ATOM     14  C   UNL     1      11.217  12.643  18.429  0.00  0.00    +0.000 A 
ATOM     15  C   UNL     1      10.460  11.542  18.032  0.00  0.00    +0.000 A 
ENDBRANCH   9  10
ENDBRANCH   5   8
ENDBRANCH   1   2
BRANCH   1  16
ATOM     16  N   UNL     1       4.484   3.403  17.401  0.00  0.00    +0.000 NA
ATOM     17  H   UNL     1       5.173   2.674  17.599  0.00  0.00    +0.000 HD
BRANCH  16  18
ATOM     18  C   UNL     1       3.974   3.929  18.688  0.00  0.00    +0.000 C 
BRANCH  18  19
ATOM     19  C   UNL     1       3.902   2.777  19.727  0.00  0.00    +0.000 C 
ATOM     20  O   UNL     1       2.864   2.235  20.110  0.00  0.00    +0.000 OA
ATOM     21  N   UNL     1       5.140   2.352  20.174  0.00  0.00    +0.000 N 
ATOM     22  H   UNL     1       5.924   3.009  20.155  0.00  0.00    +0.000 HD
BRANCH  21  23
ATOM     23  O   UNL     1       5.121   1.414  21.232  0.00  0.00    +0.000 OA
ATOM     24  H   UNL     1       6.078   1.261  21.390  0.00  0.00    +0.000 HD
ENDBRANCH  21  23
ENDBRANCH  18  19
BRANCH  18  25
ATOM     25  C   UNL     1       2.605   4.675  18.660  0.00  0.00    +0.000 C 
ATOM     26  C   UNL     1       1.528   4.011  17.809  0.00  0.00    +0.000 C 
BRANCH  25  27
ATOM     27  O   UNL     1       2.127   4.826  20.012  0.00  0.00    +0.000 OA
ATOM     28  H   UNL     1       2.744   4.359  20.607  0.00  0.00    +0.000 HD
ENDBRANCH  25  27
ENDBRANCH  18  25
ENDBRANCH  16  18
ENDBRANCH   1  16
BRANCH   1  29
ATOM     29  C   UNL     1       5.841   3.495  15.360  0.00  0.00    +0.000 C 
BRANCH  29  31
ATOM     30  C   UNL     1       7.199   4.837  13.733  0.00  0.00    +0.000 C 
ATOM     31  C   UNL     1       5.923   4.013  13.923  0.00  0.00    +0.000 C 
ENDBRANCH  29  31
ENDBRANCH   1  29
TORSDOF 11
ENDMDL
MODEL 3
REMARK VINA RESULT:      -8.6      0.971      1.361
REMARK  Name = 
REMARK  13 active torsions:
REMARK  status: ('A' for Active; 'I' for Inactive)
REMARK    1  A    between atoms: C_1  and  C_2
REMARK    2  A    between atoms: C_2  and  C_3
REMARK    3  A    between atoms: C_3  and  C_4
REMARK    4  A    between atoms: C_4  and  N_5
REMARK    5  A    between atoms: C_4  and  C_14
REMARK    6  A    between atoms: N_5  and  C_6
REMARK    7  A    between atoms: C_6  and  C_7
REMARK    8  A    between atoms: C_6  and  C_11
REMARK    9  A    between atoms: N_9  and  O_10
REMARK   10  A    between atoms: C_11  and  C_12
REMARK   11  A    between atoms: C_11  and  O_13
REMARK   12  A    between atoms: C_17  and  C_18
REMARK   13  A    between atoms: C_19  and  C_20
REMARK                            x       y       z     vdW  Elec       q    Type
REMARK                         _______ _______ _______ _____ _____    ______ ____
ROOT
ATOM      1  C   UNL     1       5.034   4.077  15.905  0.00  0.00    +0.000 C 
ENDROOT
BRANCH   1   2
ATOM      2  C   UNL     1       5.849   5.289  16.408  0.00  0.00    +0.000 A 
ATOM      3  C   UNL     1       5.359   6.611  16.367  0.00  0.00    +0.000 A 
ATOM      4  C   UNL     1       6.075   7.683  16.910  0.00  0.00    +0.000 A 
ATOM      5  C   UNL     1       7.321   7.468  17.479  0.00  0.00    +0.000 A 
ATOM      6  C   UNL     1       7.844   6.180  17.522  0.00  0.00    +0.000 A 
ATOM      7  C   UNL     1       7.099   5.108  17.026  0.00  0.00    +0.000 A 
BRANCH   5   8
ATOM      8  C   UNL     1       8.062   8.549  18.045  0.00  0.00    +0.000 C 
ATOM      9  C   UNL     1       8.699   9.453  18.513  0.00  0.00    +0.000 C 
BRANCH   9  10
ATOM     10  C   UNL     1       9.434  10.530  19.077  0.00  0.00    +0.000 A 
ATOM     11  C   UNL     1      10.260  11.302  18.261  0.00  0.00    +0.000 A 
ATOM     12  C   UNL     1      11.015  12.338  18.815  0.00  0.00    +0.000 A 
ATOM     13  C   UNL     1      10.939  12.600  20.180  0.00  0.00    +0.000 A 
ATOM     14  C   UNL     1      10.103  11.834  20.998  0.00  0.00    +0.000 A 
ATOM     15  C   UNL     1       9.349  10.800  20.445  0.00  0.00    +0.000 A 
ENDBRANCH   9  10
ENDBRANCH   5   8
ENDBRANCH   1   2
BRANCH   1  16
ATOM     16  N   UNL     1       4.604   3.132  16.947  0.00  0.00    +0.000 NA
ATOM     17  H   UNL     1       5.395   2.555  17.242  0.00  0.00    +0.000 HD
BRANCH  16  18
ATOM     18  C   UNL     1       3.913   3.635  18.157  0.00  0.00    +0.000 C 
BRANCH  18  19
ATOM     19  C   UNL     1       4.763   3.304  19.414  0.00  0.00    +0.000 C 
ATOM     20  O   UNL     1       5.689   3.996  19.843  0.00  0.00    +0.000 OA
ATOM     21  N   UNL     1       4.359   2.159  20.074  0.00  0.00    +0.000 N 
ATOM     22  H   UNL     1       3.878   1.427  19.543  0.00  0.00    +0.000 HD
BRANCH  21  23
ATOM     23  O   UNL     1       5.195   1.733  21.132  0.00  0.00    +0.000 OA
ATOM     24  H   UNL     1       5.787   2.507  21.252  0.00  0.00    +0.000 HD
ENDBRANCH  21  23
ENDBRANCH  18  19
BRANCH  18  25
ATOM     25  C   UNL     1       2.449   3.154  18.392  0.00  0.00    +0.000 C 
ATOM     26  C   UNL     1       1.371   4.058  17.803  0.00  0.00    +0.000 C 
BRANCH  25  27
ATOM     27  O   UNL     1       2.303   1.821  17.862  0.00  0.00    +0.000 OA
ATOM     28  H   UNL     1       2.082   1.893  16.914  0.00  0.00    +0.000 HD
ENDBRANCH  25  27
ENDBRANCH  18  25
ENDBRANCH  16  18
ENDBRANCH   1  16
BRANCH   1  29
ATOM     29  C   UNL     1       5.848   3.274  14.839  0.00  0.00    +0.000 C 
BRANCH  29  31
ATOM     30  C   UNL     1       5.303   3.454  12.397  0.00  0.00    +0.000 C 
ATOM     31  C   UNL     1       6.193   3.981  13.525  0.00  0.00    +0.000 C 
ENDBRANCH  29  31
ENDBRANCH   1  29
TORSDOF 11
ENDMDL
MODEL 4
REMARK VINA RESULT:      -8.5      0.480      1.389
REMARK  Name = 
REMARK  13 active torsions:
REMARK  status: ('A' for Active; 'I' for Inactive)
REMARK    1  A    between atoms: C_1  and  C_2
REMARK    2  A    between atoms: C_2  and  C_3
REMARK    3  A    between atoms: C_3  and  C_4
REMARK    4  A    between atoms: C_4  and  N_5
REMARK    5  A    between atoms: C_4  and  C_14
REMARK    6  A    between atoms: N_5  and  C_6
REMARK    7  A    between atoms: C_6  and  C_7
REMARK    8  A    between atoms: C_6  and  C_11
REMARK    9  A    between atoms: N_9  and  O_10
REMARK   10  A    between atoms: C_11  and  C_12
REMARK   11  A    between atoms: C_11  and  O_13
REMARK   12  A    between atoms: C_17  and  C_18
REMARK   13  A    between atoms: C_19  and  C_20
REMARK                            x       y       z     vdW  Elec       q    Type
REMARK                         _______ _______ _______ _____ _____    ______ ____
ROOT
ATOM      1  C   UNL     1       4.976   4.197  16.772  0.00  0.00    +0.000 C 
ENDROOT
BRANCH   1   2
ATOM      2  C   UNL     1       5.875   5.405  17.115  0.00  0.00    +0.000 A 
ATOM      3  C   UNL     1       5.561   6.726  16.734  0.00  0.00    +0.000 A 
ATOM      4  C   UNL     1       6.341   7.817  17.132  0.00  0.00    +0.000 A 
ATOM      5  C   UNL     1       7.480   7.613  17.896  0.00  0.00    +0.000 A 
ATOM      6  C   UNL     1       7.831   6.322  18.278  0.00  0.00    +0.000 A 
ATOM      7  C   UNL     1       7.017   5.245  17.921  0.00  0.00    +0.000 A 
BRANCH   5   8
ATOM      8  C   UNL     1       8.283   8.715  18.319  0.00  0.00    +0.000 C 
ATOM      9  C   UNL     1       8.946   9.653  18.672  0.00  0.00    +0.000 C 
BRANCH   9  10
ATOM     10  C   UNL     1       9.746  10.747  19.095  0.00  0.00    +0.000 A 
ATOM     11  C   UNL     1       9.757  11.112  20.441  0.00  0.00    +0.000 A 
ATOM     12  C   UNL     1      10.511  12.211  20.859  0.00  0.00    +0.000 A 
ATOM     13  C   UNL     1      11.253  12.937  19.931  0.00  0.00    +0.000 A 
ATOM     14  C   UNL     1      11.252  12.567  18.584  0.00  0.00    +0.000 A 
ATOM     15  C   UNL     1      10.499  11.470  18.167  0.00  0.00    +0.000 A 
ENDBRANCH   9  10
ENDBRANCH   5   8
ENDBRANCH   1   2
BRANCH   1  16
ATOM     16  N   UNL     1       4.833   3.195  17.839  0.00  0.00    +0.000 NA
ATOM     17  H   UNL     1       5.669   3.192  18.428  0.00  0.00    +0.000 HD
BRANCH  16  18
ATOM     18  C   UNL     1       3.641   3.220  18.717  0.00  0.00    +0.000 C 
BRANCH  18  19
ATOM     19  C   UNL     1       3.992   2.575  20.086  0.00  0.00    +0.000 C 
ATOM     20  O   UNL     1       3.319   2.688  21.113  0.00  0.00    +0.000 OA
ATOM     21  N   UNL     1       5.131   1.793  20.057  0.00  0.00    +0.000 N 
ATOM     22  H   UNL     1       5.851   1.995  19.360  0.00  0.00    +0.000 HD
BRANCH  21  23
ATOM     23  O   UNL     1       5.576   1.310  21.311  0.00  0.00    +0.000 OA
ATOM     24  H   UNL     1       6.194   0.594  21.049  0.00  0.00    +0.000 HD
ENDBRANCH  21  23
ENDBRANCH  18  19
BRANCH  18  25
ATOM     25  C   UNL     1       2.337   2.566  18.166  0.00  0.00    +0.000 C 
ATOM     26  C   UNL     1       1.043   3.250  18.594  0.00  0.00    +0.000 C 
BRANCH  25  27
ATOM     27  O   UNL     1       2.407   2.523  16.727  0.00  0.00    +0.000 OA
ATOM     28  H   UNL     1       1.707   3.104  16.371  0.00  0.00    +0.000 HD
ENDBRANCH  25  27
ENDBRANCH  18  25
ENDBRANCH  16  18
ENDBRANCH   1  16
BRANCH   1  29
ATOM     29  C   UNL     1       5.507   3.464  15.497  0.00  0.00    +0.000 C 
BRANCH  29  31
ATOM     30  C   UNL     1       5.999   3.442  13.037  0.00  0.00    +0.000 C 
ATOM     31  C   UNL     1       5.872   4.322  14.282  0.00  0.00    +0.000 C 
ENDBRANCH  29  31
ENDBRANCH   1  29
TORSDOF 11
ENDMDL
MODEL 5
REMARK VINA RESULT:      -8.5      1.060      1.097
REMARK  Name = 
REMARK  13 active torsions:
REMARK  status: ('A' for Active; 'I' for Inactive)
REMARK    1  A    between atoms: C_1  and  C_2
REMARK    2  A    between atoms: C_2  and  C_3
REMARK    3  A    between atoms: C_3  and  C_4
REMARK    4  A    between atoms: C_4  and  N_5
REMARK    5  A    between atoms: C_4  and  C_14
REMARK    6  A    between atoms: N_5  and  C_6
REMARK    7  A    between atoms: C_6  and  C_7
REMARK    8  A    between atoms: C_6  and  C_11
REMARK    9  A    between atoms: N_9  and  O_10
REMARK   10  A    between atoms: C_11  and  C_12
REMARK   11  A    between atoms: C_11  and  O_13
REMARK   12  A    between atoms: C_17  and  C_18
REMARK   13  A    between atoms: C_19  and  C_20
REMARK                            x       y       z     vdW  Elec       q    Type
REMARK                         _______ _______ _______ _____ _____    ______ ____
ROOT
ATOM      1  C   UNL     1       4.874   4.328  15.864  0.00  0.00    +0.000 C 
ENDROOT
BRANCH   1   2
ATOM      2  C   UNL     1       5.716   5.449  16.511  0.00  0.00    +0.000 A 
ATOM      3  C   UNL     1       7.018   5.237  17.011  0.00  0.00    +0.000 A 
ATOM      4  C   UNL     1       7.799   6.285  17.511  0.00  0.00    +0.000 A 
ATOM      5  C   UNL     1       7.285   7.572  17.557  0.00  0.00    +0.000 A 
ATOM      6  C   UNL     1       5.999   7.817  17.087  0.00  0.00    +0.000 A 
ATOM      7  C   UNL     1       5.247   6.775  16.541  0.00  0.00    +0.000 A 
BRANCH   5   8
ATOM      8  C   UNL     1       8.071   8.655  18.055  0.00  0.00    +0.000 C 
ATOM      9  C   UNL     1       8.740   9.555  18.484  0.00  0.00    +0.000 C 
BRANCH   9  10
ATOM     10  C   UNL     1       9.521  10.634  18.977  0.00  0.00    +0.000 A 
ATOM     11  C   UNL     1      10.307  11.374  18.094  0.00  0.00    +0.000 A 
ATOM     12  C   UNL     1      11.108  12.412  18.577  0.00  0.00    +0.000 A 
ATOM     13  C   UNL     1      11.117  12.707  19.937  0.00  0.00    +0.000 A 
ATOM     14  C   UNL     1      10.322  11.974  20.822  0.00  0.00    +0.000 A 
ATOM     15  C   UNL     1       9.523  10.938  20.340  0.00  0.00    +0.000 A 
ENDBRANCH   9  10
ENDBRANCH   5   8
ENDBRANCH   1   2
BRANCH   1  16
ATOM     16  N   UNL     1       4.274   3.368  16.805  0.00  0.00    +0.000 NA
ATOM     17  H   UNL     1       4.923   2.596  16.975  0.00  0.00    +0.000 HD
BRANCH  16  18
ATOM     18  C   UNL     1       3.756   3.843  18.108  0.00  0.00    +0.000 C 
BRANCH  18  19
ATOM     19  C   UNL     1       4.653   3.296  19.253  0.00  0.00    +0.000 C 
ATOM     20  O   UNL     1       5.438   3.973  19.919  0.00  0.00    +0.000 OA
ATOM     21  N   UNL     1       4.463   1.952  19.514  0.00  0.00    +0.000 N 
ATOM     22  H   UNL     1       4.123   1.346  18.763  0.00  0.00    +0.000 HD
BRANCH  21  23
ATOM     23  O   UNL     1       5.364   1.375  20.440  0.00  0.00    +0.000 OA
ATOM     24  H   UNL     1       5.018   0.460  20.522  0.00  0.00    +0.000 HD
ENDBRANCH  21  23
ENDBRANCH  18  19
BRANCH  18  25
ATOM     25  C   UNL     1       2.264   3.529  18.437  0.00  0.00    +0.000 C 
ATOM     26  C   UNL     1       1.676   4.337  19.589  0.00  0.00    +0.000 C 
BRANCH  25  27
ATOM     27  O   UNL     1       1.470   3.731  17.251  0.00  0.00    +0.000 OA
ATOM     28  H   UNL     1       0.910   2.942  17.122  0.00  0.00    +0.000 HD
ENDBRANCH  25  27
ENDBRANCH  18  25
ENDBRANCH  16  18
ENDBRANCH   1  16
BRANCH   1  29
ATOM     29  C   UNL     1       5.735   3.518  14.840  0.00  0.00    +0.000 C 
BRANCH  29  31
ATOM     30  C   UNL     1       6.081   3.331  12.362  0.00  0.00    +0.000 C 
ATOM     31  C   UNL     1       6.216   4.245  13.582  0.00  0.00    +0.000 C 
ENDBRANCH  29  31
ENDBRANCH   1  29
TORSDOF 11
ENDMDL
MODEL 6
REMARK VINA RESULT:      -8.5      1.461      1.869
REMARK  Name = 
REMARK  13 active torsions:
REMARK  status: ('A' for Active; 'I' for Inactive)
REMARK    1  A    between atoms: C_1  and  C_2
REMARK    2  A    between atoms: C_2  and  C_3
REMARK    3  A    between atoms: C_3  and  C_4
REMARK    4  A    between atoms: C_4  and  N_5
REMARK    5  A    between atoms: C_4  and  C_14
REMARK    6  A    between atoms: N_5  and  C_6
REMARK    7  A    between atoms: C_6  and  C_7
REMARK    8  A    between atoms: C_6  and  C_11
REMARK    9  A    between atoms: N_9  and  O_10
REMARK   10  A    between atoms: C_11  and  C_12
REMARK   11  A    between atoms: C_11  and  O_13
REMARK   12  A    between atoms: C_17  and  C_18
REMARK   13  A    between atoms: C_19  and  C_20
REMARK                            x       y       z     vdW  Elec       q    Type
REMARK                         _______ _______ _______ _____ _____    ______ ____
ROOT
ATOM      1  C   UNL     1       5.150   4.276  16.161  0.00  0.00    +0.000 C 
ENDROOT
BRANCH   1   2
ATOM      2  C   UNL     1       5.950   5.439  16.788  0.00  0.00    +0.000 A 
ATOM      3  C   UNL     1       7.092   5.238  17.591  0.00  0.00    +0.000 A 
ATOM      4  C   UNL     1       7.855   6.306  18.074  0.00  0.00    +0.000 A 
ATOM      5  C   UNL     1       7.477   7.610  17.796  0.00  0.00    +0.000 A 
ATOM      6  C   UNL     1       6.347   7.849  17.020  0.00  0.00    +0.000 A 
ATOM      7  C   UNL     1       5.622   6.776  16.498  0.00  0.00    +0.000 A 
BRANCH   5   8
ATOM      8  C   UNL     1       8.249   8.712  18.273  0.00  0.00    +0.000 C 
ATOM      9  C   UNL     1       8.890   9.650  18.663  0.00  0.00    +0.000 C 
BRANCH   9  10
ATOM     10  C   UNL     1       9.658  10.745  19.141  0.00  0.00    +0.000 A 
ATOM     11  C   UNL     1      10.494  11.435  18.263  0.00  0.00    +0.000 A 
ATOM     12  C   UNL     1      11.282  12.487  18.733  0.00  0.00    +0.000 A 
ATOM     13  C   UNL     1      11.228  12.849  20.077  0.00  0.00    +0.000 A 
ATOM     14  C   UNL     1      10.383  12.166  20.956  0.00  0.00    +0.000 A 
ATOM     15  C   UNL     1       9.597  11.115  20.486  0.00  0.00    +0.000 A 
ENDBRANCH   9  10
ENDBRANCH   5   8
ENDBRANCH   1   2
BRANCH   1  16
ATOM     16  N   UNL     1       4.614   3.294  17.117  0.00  0.00    +0.000 NA
ATOM     17  H   UNL     1       5.122   3.357  18.002  0.00  0.00    +0.000 HD
BRANCH  16  18
ATOM     18  C   UNL     1       3.163   3.268  17.408  0.00  0.00    +0.000 C 
BRANCH  18  19
ATOM     19  C   UNL     1       2.780   4.519  18.246  0.00  0.00    +0.000 C 
ATOM     20  O   UNL     1       1.869   5.302  17.969  0.00  0.00    +0.000 OA
ATOM     21  N   UNL     1       3.531   4.669  19.396  0.00  0.00    +0.000 N 
ATOM     22  H   UNL     1       4.473   4.272  19.426  0.00  0.00    +0.000 HD
BRANCH  21  23
ATOM     23  O   UNL     1       3.325   5.874  20.110  0.00  0.00    +0.000 OA
ATOM     24  H   UNL     1       3.152   5.547  21.020  0.00  0.00    +0.000 HD
ENDBRANCH  21  23
ENDBRANCH  18  19
BRANCH  18  25
ATOM     25  C   UNL     1       2.601   1.994  18.111  0.00  0.00    +0.000 C 
ATOM     26  C   UNL     1       3.654   1.089  18.742  0.00  0.00    +0.000 C 
BRANCH  25  27
ATOM     27  O   UNL     1       1.647   2.395  19.114  0.00  0.00    +0.000 OA
ATOM     28  H   UNL     1       2.086   2.357  19.985  0.00  0.00    +0.000 HD
ENDBRANCH  25  27
ENDBRANCH  18  25
ENDBRANCH  16  18
ENDBRANCH   1  16
BRANCH   1  29
ATOM     29  C   UNL     1       6.028   3.504  15.123  0.00  0.00    +0.000 C 
BRANCH  29  31
ATOM     30  C   UNL     1       6.026   3.503  12.615  0.00  0.00    +0.000 C 
ATOM     31  C   UNL     1       6.477   4.257  13.868  0.00  0.00    +0.000 C 
ENDBRANCH  29  31
ENDBRANCH   1  29
TORSDOF 11
ENDMDL
MODEL 7
REMARK VINA RESULT:      -8.4      0.931      1.420
REMARK  Name = 
REMARK  13 active torsions:
REMARK  status: ('A' for Active; 'I' for Inactive)
REMARK    1  A    between atoms: C_1  and  C_2
REMARK    2  A    between atoms: C_2  and  C_3
REMARK    3  A    between atoms: C_3  and  C_4
REMARK    4  A    between atoms: C_4  and  N_5
REMARK    5  A    between atoms: C_4  and  C_14
REMARK    6  A    between atoms: N_5  and  C_6
REMARK    7  A    between atoms: C_6  and  C_7
REMARK    8  A    between atoms: C_6  and  C_11
REMARK    9  A    between atoms: N_9  and  O_10
REMARK   10  A    between atoms: C_11  and  C_12
REMARK   11  A    between atoms: C_11  and  O_13
REMARK   12  A    between atoms: C_17  and  C_18
REMARK   13  A    between atoms: C_19  and  C_20
REMARK                            x       y       z     vdW  Elec       q    Type
REMARK                         _______ _______ _______ _____ _____    ______ ____
ROOT
ATOM      1  C   UNL     1       4.955   4.284  16.468  0.00  0.00    +0.000 C 
ENDROOT
BRANCH   1   2
ATOM      2  C   UNL     1       5.842   5.483  16.870  0.00  0.00    +0.000 A 
ATOM      3  C   UNL     1       5.472   6.823  16.630  0.00  0.00    +0.000 A 
ATOM      4  C   UNL     1       6.246   7.897  17.083  0.00  0.00    +0.000 A 
ATOM      5  C   UNL     1       7.433   7.660  17.759  0.00  0.00    +0.000 A 
ATOM      6  C   UNL     1       7.839   6.351  18.000  0.00  0.00    +0.000 A 
ATOM      7  C   UNL     1       7.033   5.286  17.592  0.00  0.00    +0.000 A 
BRANCH   5   8
ATOM      8  C   UNL     1       8.231   8.744  18.236  0.00  0.00    +0.000 C 
ATOM      9  C   UNL     1       8.895   9.665  18.626  0.00  0.00    +0.000 C 
BRANCH   9  10
ATOM     10  C   UNL     1       9.688  10.742  19.103  0.00  0.00    +0.000 A 
ATOM     11  C   UNL     1      10.547  11.406  18.227  0.00  0.00    +0.000 A 
ATOM     12  C   UNL     1      11.360  12.439  18.698  0.00  0.00    +0.000 A 
ATOM     13  C   UNL     1      11.308  12.808  20.039  0.00  0.00    +0.000 A 
ATOM     14  C   UNL     1      10.440  12.151  20.916  0.00  0.00    +0.000 A 
ATOM     15  C   UNL     1       9.629  11.119  20.446  0.00  0.00    +0.000 A 
ENDBRANCH   9  10
ENDBRANCH   5   8
ENDBRANCH   1   2
BRANCH   1  16
ATOM     16  N   UNL     1       4.544   3.406  17.575  0.00  0.00    +0.000 NA
ATOM     17  H   UNL     1       5.349   2.878  17.918  0.00  0.00    +0.000 HD
BRANCH  16  18
ATOM     18  C   UNL     1       3.826   3.976  18.737  0.00  0.00    +0.000 C 
BRANCH  18  19
ATOM     19  C   UNL     1       3.979   3.027  19.958  0.00  0.00    +0.000 C 
ATOM     20  O   UNL     1       4.933   2.270  20.148  0.00  0.00    +0.000 OA
ATOM     21  N   UNL     1       2.951   3.131  20.876  0.00  0.00    +0.000 N 
ATOM     22  H   UNL     1       2.033   3.449  20.556  0.00  0.00    +0.000 HD
BRANCH  21  23
ATOM     23  O   UNL     1       2.966   2.180  21.924  0.00  0.00    +0.000 OA
ATOM     24  H   UNL     1       3.332   1.387  21.477  0.00  0.00    +0.000 HD
ENDBRANCH  21  23
ENDBRANCH  18  19
BRANCH  18  25
ATOM     25  C   UNL     1       2.316   4.316  18.545  0.00  0.00    +0.000 C 
ATOM     26  C   UNL     1       2.035   5.716  18.008  0.00  0.00    +0.000 C 
BRANCH  25  27
ATOM     27  O   UNL     1       1.723   3.336  17.669  0.00  0.00    +0.000 OA
ATOM     28  H   UNL     1       1.433   2.579  18.213  0.00  0.00    +0.000 HD
ENDBRANCH  25  27
ENDBRANCH  18  25
ENDBRANCH  16  18
ENDBRANCH   1  16
BRANCH   1  29
ATOM     29  C   UNL     1       5.681   3.400  15.401  0.00  0.00    +0.000 C 
BRANCH  29  31
ATOM     30  C   UNL     1       7.047   4.592  13.668  0.00  0.00    +0.000 C 
ATOM     31  C   UNL     1       5.710   3.906  13.957  0.00  0.00    +0.000 C 
ENDBRANCH  29  31
ENDBRANCH   1  29
TORSDOF 11
ENDMDL
MODEL 8
REMARK VINA RESULT:      -8.3      0.922      1.736
REMARK  Name = 
REMARK  13 active torsions:
REMARK  status: ('A' for Active; 'I' for Inactive)
REMARK    1  A    between atoms: C_1  and  C_2
REMARK    2  A    between atoms: C_2  and  C_3
REMARK    3  A    between atoms: C_3  and  C_4
REMARK    4  A    between atoms: C_4  and  N_5
REMARK    5  A    between atoms: C_4  and  C_14
REMARK    6  A    between atoms: N_5  and  C_6
REMARK    7  A    between atoms: C_6  and  C_7
REMARK    8  A    between atoms: C_6  and  C_11
REMARK    9  A    between atoms: N_9  and  O_10
REMARK   10  A    between atoms: C_11  and  C_12
REMARK   11  A    between atoms: C_11  and  O_13
REMARK   12  A    between atoms: C_17  and  C_18
REMARK   13  A    between atoms: C_19  and  C_20
REMARK                            x       y       z     vdW  Elec       q    Type
REMARK                         _______ _______ _______ _____ _____    ______ ____
ROOT
ATOM      1  C   UNL     1       5.162   4.296  16.726  0.00  0.00    +0.000 C 
ENDROOT
BRANCH   1   2
ATOM      2  C   UNL     1       6.030   5.532  17.048  0.00  0.00    +0.000 A 
ATOM      3  C   UNL     1       5.729   6.825  16.570  0.00  0.00    +0.000 A 
ATOM      4  C   UNL     1       6.475   7.946  16.947  0.00  0.00    +0.000 A 
ATOM      5  C   UNL     1       7.568   7.801  17.787  0.00  0.00    +0.000 A 
ATOM      6  C   UNL     1       7.906   6.539  18.266  0.00  0.00    +0.000 A 
ATOM      7  C   UNL     1       7.124   5.434  17.928  0.00  0.00    +0.000 A 
BRANCH   5   8
ATOM      8  C   UNL     1       8.336   8.935  18.189  0.00  0.00    +0.000 C 
ATOM      9  C   UNL     1       8.996   9.880  18.530  0.00  0.00    +0.000 C 
BRANCH   9  10
ATOM     10  C   UNL     1       9.758  11.010  18.928  0.00  0.00    +0.000 A 
ATOM     11  C   UNL     1       9.954  11.265  20.285  0.00  0.00    +0.000 A 
ATOM     12  C   UNL     1      10.668  12.396  20.686  0.00  0.00    +0.000 A 
ATOM     13  C   UNL     1      11.188  13.264  19.729  0.00  0.00    +0.000 A 
ATOM     14  C   UNL     1      11.002  13.005  18.369  0.00  0.00    +0.000 A 
ATOM     15  C   UNL     1      10.288  11.876  17.969  0.00  0.00    +0.000 A 
ENDBRANCH   9  10
ENDBRANCH   5   8
ENDBRANCH   1   2
BRANCH   1  16
ATOM     16  N   UNL     1       4.887   3.405  17.865  0.00  0.00    +0.000 NA
ATOM     17  H   UNL     1       5.726   3.308  18.440  0.00  0.00    +0.000 HD
BRANCH  16  18
ATOM     18  C   UNL     1       3.737   3.684  18.754  0.00  0.00    +0.000 C 
BRANCH  18  19
ATOM     19  C   UNL     1       3.864   2.833  20.048  0.00  0.00    +0.000 C 
ATOM     20  O   UNL     1       4.767   2.026  20.276  0.00  0.00    +0.000 OA
ATOM     21  N   UNL     1       2.880   3.091  20.983  0.00  0.00    +0.000 N 
ATOM     22  H   UNL     1       1.976   3.449  20.663  0.00  0.00    +0.000 HD
BRANCH  21  23
ATOM     23  O   UNL     1       2.863   2.234  22.109  0.00  0.00    +0.000 OA
ATOM     24  H   UNL     1       1.905   2.186  22.317  0.00  0.00    +0.000 HD
ENDBRANCH  21  23
ENDBRANCH  18  19
BRANCH  18  25
ATOM     25  C   UNL     1       2.311   3.488  18.156  0.00  0.00    +0.000 C 
ATOM     26  C   UNL     1       1.845   2.039  18.062  0.00  0.00    +0.000 C 
BRANCH  25  27
ATOM     27  O   UNL     1       1.366   4.248  18.937  0.00  0.00    +0.000 OA
ATOM     28  H   UNL     1       1.444   3.965  19.868  0.00  0.00    +0.000 HD
ENDBRANCH  25  27
ENDBRANCH  18  25
ENDBRANCH  16  18
ENDBRANCH   1  16
BRANCH   1  29
ATOM     29  C   UNL     1       5.827   3.439  15.600  0.00  0.00    +0.000 C 
BRANCH  29  31
ATOM     30  C   UNL     1       5.929   3.779  13.116  0.00  0.00    +0.000 C 
ATOM     31  C   UNL     1       6.534   4.181  14.463  0.00  0.00    +0.000 C 
ENDBRANCH  29  31
ENDBRANCH   1  29
TORSDOF 11
ENDMDL
MODEL 9
REMARK VINA RESULT:      -8.2      5.651      7.793
REMARK  Name = 
REMARK  13 active torsions:
REMARK  status: ('A' for Active; 'I' for Inactive)
REMARK    1  A    between atoms: C_1  and  C_2
REMARK    2  A    between atoms: C_2  and  C_3
REMARK    3  A    between atoms: C_3  and  C_4
REMARK    4  A    between atoms: C_4  and  N_5
REMARK    5  A    between atoms: C_4  and  C_14
REMARK    6  A    between atoms: N_5  and  C_6
REMARK    7  A    between atoms: C_6  and  C_7
REMARK    8  A    between atoms: C_6  and  C_11
REMARK    9  A    between atoms: N_9  and  O_10
REMARK   10  A    between atoms: C_11  and  C_12
REMARK   11  A    between atoms: C_11  and  O_13
REMARK   12  A    between atoms: C_17  and  C_18
REMARK   13  A    between atoms: C_19  and  C_20
REMARK                            x       y       z     vdW  Elec       q    Type
REMARK                         _______ _______ _______ _____ _____    ______ ____
ROOT
ATOM      1  C   UNL     1       3.945   5.055  18.163  0.00  0.00    +0.000 C 
ENDROOT
BRANCH   1   2
ATOM      2  C   UNL     1       3.131   6.228  18.754  0.00  0.00    +0.000 A 
ATOM      3  C   UNL     1       2.895   7.427  18.050  0.00  0.00    +0.000 A 
ATOM      4  C   UNL     1       2.079   8.440  18.566  0.00  0.00    +0.000 A 
ATOM      5  C   UNL     1       1.505   8.296  19.820  0.00  0.00    +0.000 A 
ATOM      6  C   UNL     1       1.728   7.134  20.551  0.00  0.00    +0.000 A 
ATOM      7  C   UNL     1       2.500   6.106  20.005  0.00  0.00    +0.000 A 
BRANCH   5   8
ATOM      8  C   UNL     1       0.663   9.315  20.359  0.00  0.00    +0.000 C 
ATOM      9  C   UNL     1      -0.043  10.167  20.828  0.00  0.00    +0.000 C 
BRANCH   9  10
ATOM     10  C   UNL     1      -0.880  11.183  21.361  0.00  0.00    +0.000 A 
ATOM     11  C   UNL     1      -1.138  11.213  22.731  0.00  0.00    +0.000 A 
ATOM     12  C   UNL     1      -1.992  12.185  23.258  0.00  0.00    +0.000 A 
ATOM     13  C   UNL     1      -2.579  13.125  22.415  0.00  0.00    +0.000 A 
ATOM     14  C   UNL     1      -2.312  13.103  21.044  0.00  0.00    +0.000 A 
ATOM     15  C   UNL     1      -1.461  12.132  20.518  0.00  0.00    +0.000 A 
ENDBRANCH   9  10
ENDBRANCH   5   8
ENDBRANCH   1   2
BRANCH   1  16
ATOM     16  N   UNL     1       5.102   5.444  17.341  0.00  0.00    +0.000 NA
ATOM     17  H   UNL     1       5.549   6.273  17.738  0.00  0.00    +0.000 HD
BRANCH  16  18
ATOM     18  C   UNL     1       6.152   4.447  17.032  0.00  0.00    +0.000 C 
BRANCH  18  19
ATOM     19  C   UNL     1       7.331   4.608  18.031  0.00  0.00    +0.000 C 
ATOM     20  O   UNL     1       8.463   4.149  17.868  0.00  0.00    +0.000 OA
ATOM     21  N   UNL     1       7.020   5.376  19.138  0.00  0.00    +0.000 N 
ATOM     22  H   UNL     1       6.045   5.429  19.445  0.00  0.00    +0.000 HD
BRANCH  21  23
ATOM     23  O   UNL     1       8.009   5.423  20.149  0.00  0.00    +0.000 OA
ATOM     24  H   UNL     1       7.880   6.322  20.522  0.00  0.00    +0.000 HD
ENDBRANCH  21  23
ENDBRANCH  18  19
BRANCH  18  25
ATOM     25  C   UNL     1       6.717   4.435  15.579  0.00  0.00    +0.000 C 
ATOM     26  C   UNL     1       5.662   4.420  14.478  0.00  0.00    +0.000 C 
BRANCH  25  27
ATOM     27  O   UNL     1       7.582   5.575  15.403  0.00  0.00    +0.000 OA
ATOM     28  H   UNL     1       7.083   6.264  14.923  0.00  0.00    +0.000 HD
ENDBRANCH  25  27
ENDBRANCH  18  25
ENDBRANCH  16  18
ENDBRANCH   1  16
BRANCH   1  29
ATOM     29  C   UNL     1       3.028   4.135  17.293  0.00  0.00    +0.000 C 
BRANCH  29  31
ATOM     30  C   UNL     1       1.264   2.808  18.484  0.00  0.00    +0.000 C 
ATOM     31  C   UNL     1       2.658   2.761  17.856  0.00  0.00    +0.000 C 
ENDBRANCH  29  31
ENDBRANCH   1  29
TORSDOF 11
ENDMDL
