MODEL 1
REMARK VINA RESULT:      -8.3      0.000      0.000
REMARK  Name = 
REMARK  5 active torsions:
REMARK  status: ('A' for Active; 'I' for Inactive)
REMARK    1  A    between atoms: C_1  and  C_2
REMARK    2  A    between atoms: C_4  and  O_5
REMARK    3  A    between atoms: O_5  and  C_6
REMARK    4  A    between atoms: N_14  and  C_15
REMARK    5  A    between atoms: C_15  and  C_16
REMARK                            x       y       z     vdW  Elec       q    Type
REMARK                         _______ _______ _______ _____ _____    ______ ____
ROOT
ATOM      1  C   UNL     1       7.045   4.909  14.601  0.00  0.00    +0.000 C 
ATOM      2  C   UNL     1       6.869   5.206  16.058  0.00  0.00    +0.000 A 
ATOM      3  C   UNL     1       6.162   4.359  16.882  0.00  0.00    +0.000 A 
ATOM      4  C   UNL     1       6.161   4.699  18.212  0.00  0.00    +0.000 A 
ATOM      5  N   UNL     1       6.764   5.795  18.696  0.00  0.00    +0.000 NA
ATOM      6  C   UNL     1       7.379   6.586  17.825  0.00  0.00    +0.000 A 
ATOM      7  N   UNL     1       7.968   7.704  18.368  0.00  0.00    +0.000 N 
ATOM      8  N   UNL     1       7.464   6.329  16.514  0.00  0.00    +0.000 NA
ATOM      9  H   UNL     1       8.729   7.413  18.968  0.00  0.00    +0.000 HD
ENDROOT
BRANCH   4  10
ATOM     10  O   UNL     1       5.484   3.853  19.083  0.00  0.00    +0.000 OA
BRANCH  10  11
ATOM     11  C   UNL     1       4.150   3.607  18.830  0.00  0.00    +0.000 A 
ATOM     12  C   UNL     1       3.289   4.709  18.854  0.00  0.00    +0.000 A 
ATOM     13  C   UNL     1       1.929   4.537  18.576  0.00  0.00    +0.000 A 
ATOM     14  C   UNL     1       1.431   3.270  18.271  0.00  0.00    +0.000 A 
ATOM     15  C   UNL     1       2.291   2.177  18.226  0.00  0.00    +0.000 A 
ATOM     16  C   UNL     1       3.650   2.349  18.485  0.00  0.00    +0.000 A 
ENDBRANCH  10  11
ENDBRANCH   4  10
BRANCH   7  17
ATOM     17  C   UNL     1       8.272   8.796  17.478  0.00  0.00    +0.000 C 
BRANCH  17  18
ATOM     18  C   UNL     1       8.688  10.006  18.290  0.00  0.00    +0.000 A 
ATOM     19  C   UNL     1       9.178   9.836  19.596  0.00  0.00    +0.000 A 
ATOM     20  C   UNL     1       9.604  10.938  20.339  0.00  0.00    +0.000 A 
ATOM     21  C   UNL     1       9.555  12.217  19.794  0.00  0.00    +0.000 A 
ATOM     22  C   UNL     1       9.090  12.405  18.493  0.00  0.00    +0.000 A 
ATOM     23  C   UNL     1       8.673  11.304  17.744  0.00  0.00    +0.000 A 
ENDBRANCH  17  18
ENDBRANCH   7  17
TORSDOF 4
ENDMDL
MODEL 2
REMARK VINA RESULT:      -8.2      0.164      1.464
REMARK  Name = 
REMARK  5 active torsions:
REMARK  status: ('A' for Active; 'I' for Inactive)
REMARK    1  A    between atoms: C_1  and  C_2
REMARK    2  A    between atoms: C_4  and  O_5
REMARK    3  A    between atoms: O_5  and  C_6
REMARK    4  A    between atoms: N_14  and  C_15
REMARK    5  A    between atoms: C_15  and  C_16
REMARK                            x       y       z     vdW  Elec       q    Type
REMARK                         _______ _______ _______ _____ _____    ______ ____
ROOT
ATOM      1  C   UNL     1       7.022   4.916  14.636  0.00  0.00    +0.000 C 
ATOM      2  C   UNL     1       6.865   5.216  16.094  0.00  0.00    +0.000 A 
ATOM      3  C   UNL     1       6.177   4.367  16.932  0.00  0.00    +0.000 A 
ATOM      4  C   UNL     1       6.194   4.710  18.260  0.00  0.00    +0.000 A 
ATOM      5  N   UNL     1       6.796   5.812  18.732  0.00  0.00    +0.000 NA
ATOM      6  C   UNL     1       7.393   6.605  17.850  0.00  0.00    +0.000 A 
ATOM      7  N   UNL     1       7.981   7.728  18.381  0.00  0.00    +0.000 N 
ATOM      8  N   UNL     1       7.460   6.344  16.539  0.00  0.00    +0.000 NA
ATOM      9  H   UNL     1       8.754   7.445  18.970  0.00  0.00    +0.000 HD
ENDROOT
BRANCH   4  10
ATOM     10  O   UNL     1       5.535   3.863  19.144  0.00  0.00    +0.000 OA
BRANCH  10  11
ATOM     11  C   UNL     1       4.181   3.670  18.959  0.00  0.00    +0.000 A 
ATOM     12  C   UNL     1       3.751   2.352  18.770  0.00  0.00    +0.000 A 
ATOM     13  C   UNL     1       2.390   2.080  18.607  0.00  0.00    +0.000 A 
ATOM     14  C   UNL     1       1.459   3.119  18.636  0.00  0.00    +0.000 A 
ATOM     15  C   UNL     1       1.884   4.427  18.845  0.00  0.00    +0.000 A 
ATOM     16  C   UNL     1       3.240   4.699  19.026  0.00  0.00    +0.000 A 
ENDBRANCH  10  11
ENDBRANCH   4  10
BRANCH   7  17
ATOM     17  C   UNL     1       8.264   8.819  17.483  0.00  0.00    +0.000 C 
BRANCH  17  18
ATOM     18  C   UNL     1       8.751  10.013  18.280  0.00  0.00    +0.000 A 
ATOM     19  C   UNL     1       8.688  11.300  17.720  0.00  0.00    +0.000 A 
ATOM     20  C   UNL     1       9.094  12.412  18.459  0.00  0.00    +0.000 A 
ATOM     21  C   UNL     1       9.560  12.262  19.761  0.00  0.00    +0.000 A 
ATOM     22  C   UNL     1       9.613  10.996  20.342  0.00  0.00    +0.000 A 
ATOM     23  C   UNL     1       9.199   9.883  19.609  0.00  0.00    +0.000 A 
ENDBRANCH  17  18
ENDBRANCH   7  17
TORSDOF 4
ENDMDL
MODEL 3
REMARK VINA RESULT:      -7.9      0.536      1.136
REMARK  Name = 
REMARK  5 active torsions:
REMARK  status: ('A' for Active; 'I' for Inactive)
REMARK    1  A    between atoms: C_1  and  C_2
REMARK    2  A    between atoms: C_4  and  O_5
REMARK    3  A    between atoms: O_5  and  C_6
REMARK    4  A    between atoms: N_14  and  C_15
REMARK    5  A    between atoms: C_15  and  C_16
REMARK                            x       y       z     vdW  Elec       q    Type
REMARK                         _______ _______ _______ _____ _____    ______ ____
ROOT
ATOM      1  C   UNL     1       6.393   5.155  14.740  0.00  0.00    +0.000 C 
ATOM      2  C   UNL     1       6.490   5.354  16.221  0.00  0.00    +0.000 A 
ATOM      3  C   UNL     1       5.918   4.465  17.103  0.00  0.00    +0.000 A 
ATOM      4  C   UNL     1       6.166   4.712  18.430  0.00  0.00    +0.000 A 
ATOM      5  N   UNL     1       6.877   5.763  18.867  0.00  0.00    +0.000 NA
ATOM      6  C   UNL     1       7.348   6.602  17.952  0.00  0.00    +0.000 A 
ATOM      7  N   UNL     1       8.055   7.670  18.450  0.00  0.00    +0.000 N 
ATOM      8  N   UNL     1       7.189   6.433  16.634  0.00  0.00    +0.000 NA
ATOM      9  H   UNL     1       8.904   7.327  18.883  0.00  0.00    +0.000 HD
ENDROOT
BRANCH   4  10
ATOM     10  O   UNL     1       5.632   3.820  19.353  0.00  0.00    +0.000 OA
BRANCH  10  11
ATOM     11  C   UNL     1       4.270   3.602  19.321  0.00  0.00    +0.000 A 
ATOM     12  C   UNL     1       3.452   4.657  19.740  0.00  0.00    +0.000 A 
ATOM     13  C   UNL     1       2.061   4.517  19.704  0.00  0.00    +0.000 A 
ATOM     14  C   UNL     1       1.488   3.330  19.248  0.00  0.00    +0.000 A 
ATOM     15  C   UNL     1       2.301   2.288  18.812  0.00  0.00    +0.000 A 
ATOM     16  C   UNL     1       3.688   2.432  18.829  0.00  0.00    +0.000 A 
ENDBRANCH  10  11
ENDBRANCH   4  10
BRANCH   7  17
ATOM     17  C   UNL     1       8.226   8.815  17.592  0.00  0.00    +0.000 C 
BRANCH  17  18
ATOM     18  C   UNL     1       8.882   9.936  18.373  0.00  0.00    +0.000 A 
ATOM     19  C   UNL     1       9.274  11.112  17.711  0.00  0.00    +0.000 A 
ATOM     20  C   UNL     1       9.840  12.168  18.426  0.00  0.00    +0.000 A 
ATOM     21  C   UNL     1      10.020  12.072  19.802  0.00  0.00    +0.000 A 
ATOM     22  C   UNL     1       9.621  10.922  20.480  0.00  0.00    +0.000 A 
ATOM     23  C   UNL     1       9.045   9.868  19.770  0.00  0.00    +0.000 A 
ENDBRANCH  17  18
ENDBRANCH   7  17
TORSDOF 4
ENDMDL
MODEL 4
REMARK VINA RESULT:      -7.9      0.965      1.412
REMARK  Name = 
REMARK  5 active torsions:
REMARK  status: ('A' for Active; 'I' for Inactive)
REMARK    1  A    between atoms: C_1  and  C_2
REMARK    2  A    between atoms: C_4  and  O_5
REMARK    3  A    between atoms: O_5  and  C_6
REMARK    4  A    between atoms: N_14  and  C_15
REMARK    5  A    between atoms: C_15  and  C_16
REMARK                            x       y       z     vdW  Elec       q    Type
REMARK                         _______ _______ _______ _____ _____    ______ ____
ROOT
ATOM      1  C   UNL     1       5.907   5.119  14.727  0.00  0.00    +0.000 C 
ATOM      2  C   UNL     1       6.107   5.317  16.198  0.00  0.00    +0.000 A 
ATOM      3  C   UNL     1       5.547   4.460  17.120  0.00  0.00    +0.000 A 
ATOM      4  C   UNL     1       5.891   4.697  18.427  0.00  0.00    +0.000 A 
ATOM      5  N   UNL     1       6.683   5.710  18.812  0.00  0.00    +0.000 NA
ATOM      6  C   UNL     1       7.138   6.521  17.865  0.00  0.00    +0.000 A 
ATOM      7  N   UNL     1       7.931   7.551  18.311  0.00  0.00    +0.000 N 
ATOM      8  N   UNL     1       6.887   6.358  16.560  0.00  0.00    +0.000 NA
ATOM      9  H   UNL     1       8.786   7.164  18.691  0.00  0.00    +0.000 HD
ENDROOT
BRANCH   4  10
ATOM     10  O   UNL     1       5.371   3.837  19.387  0.00  0.00    +0.000 OA
BRANCH  10  11
ATOM     11  C   UNL     1       4.035   3.966  19.707  0.00  0.00    +0.000 A 
ATOM     12  C   UNL     1       3.337   2.788  19.993  0.00  0.00    +0.000 A 
ATOM     13  C   UNL     1       1.988   2.847  20.356  0.00  0.00    +0.000 A 
ATOM     14  C   UNL     1       1.338   4.079  20.436  0.00  0.00    +0.000 A 
ATOM     15  C   UNL     1       2.036   5.253  20.171  0.00  0.00    +0.000 A 
ATOM     16  C   UNL     1       3.387   5.198  19.827  0.00  0.00    +0.000 A 
ENDBRANCH  10  11
ENDBRANCH   4  10
BRANCH   7  17
ATOM     17  C   UNL     1       8.107   8.683  17.437  0.00  0.00    +0.000 C 
BRANCH  17  18
ATOM     18  C   UNL     1       8.596   9.870  18.244  0.00  0.00    +0.000 A 
ATOM     19  C   UNL     1       9.109   9.672  19.538  0.00  0.00    +0.000 A 
ATOM     20  C   UNL     1       9.601  10.750  20.274  0.00  0.00    +0.000 A 
ATOM     21  C   UNL     1       9.595  12.033  19.735  0.00  0.00    +0.000 A 
ATOM     22  C   UNL     1       9.109  12.248  18.447  0.00  0.00    +0.000 A 
ATOM     23  C   UNL     1       8.625  11.170  17.704  0.00  0.00    +0.000 A 
ENDBRANCH  17  18
ENDBRANCH   7  17
TORSDOF 4
ENDMDL
MODEL 5
REMARK VINA RESULT:      -7.9      3.604      7.168
REMARK  Name = 
REMARK  5 active torsions:
REMARK  status: ('A' for Active; 'I' for Inactive)
REMARK    1  A    between atoms: C_1  and  C_2
REMARK    2  A    between atoms: C_4  and  O_5
REMARK    3  A    between atoms: O_5  and  C_6
REMARK    4  A    between atoms: N_14  and  C_15
REMARK    5  A    between atoms: C_15  and  C_16
REMARK                            x       y       z     vdW  Elec       q    Type
REMARK                         _______ _______ _______ _____ _____    ______ ____
ROOT
ATOM      1  C   UNL     1       7.637   5.372  19.989  0.00  0.00    +0.000 C 
ATOM      2  C   UNL     1       6.919   5.570  18.690  0.00  0.00    +0.000 A 
ATOM      3  C   UNL     1       7.603   5.644  17.497  0.00  0.00    +0.000 A 
ATOM      4  C   UNL     1       6.819   5.727  16.374  0.00  0.00    +0.000 A 
ATOM      5  N   UNL     1       5.479   5.775  16.409  0.00  0.00    +0.000 NA
ATOM      6  C   UNL     1       4.900   5.752  17.604  0.00  0.00    +0.000 A 
ATOM      7  N   UNL     1       3.527   5.819  17.588  0.00  0.00    +0.000 N 
ATOM      8  N   UNL     1       5.572   5.641  18.756  0.00  0.00    +0.000 NA
ATOM      9  H   UNL     1       3.163   4.979  17.157  0.00  0.00    +0.000 HD
ENDROOT
BRANCH   4  10
ATOM     10  O   UNL     1       7.470   5.773  15.146  0.00  0.00    +0.000 OA
BRANCH  10  11
ATOM     11  C   UNL     1       6.977   4.981  14.129  0.00  0.00    +0.000 A 
ATOM     12  C   UNL     1       7.667   5.015  12.912  0.00  0.00    +0.000 A 
ATOM     13  C   UNL     1       7.242   4.214  11.848  0.00  0.00    +0.000 A 
ATOM     14  C   UNL     1       6.135   3.379  11.998  0.00  0.00    +0.000 A 
ATOM     15  C   UNL     1       5.461   3.330  13.214  0.00  0.00    +0.000 A 
ATOM     16  C   UNL     1       5.893   4.114  14.283  0.00  0.00    +0.000 A 
ENDBRANCH  10  11
ENDBRANCH   4  10
BRANCH   7  17
ATOM     17  C   UNL     1       2.865   6.220  18.804  0.00  0.00    +0.000 C 
BRANCH  17  18
ATOM     18  C   UNL     1       2.233   5.007  19.456  0.00  0.00    +0.000 A 
ATOM     19  C   UNL     1       1.533   4.076  18.669  0.00  0.00    +0.000 A 
ATOM     20  C   UNL     1       0.983   2.933  19.250  0.00  0.00    +0.000 A 
ATOM     21  C   UNL     1       1.124   2.698  20.614  0.00  0.00    +0.000 A 
ATOM     22  C   UNL     1       1.830   3.600  21.409  0.00  0.00    +0.000 A 
ATOM     23  C   UNL     1       2.391   4.738  20.829  0.00  0.00    +0.000 A 
ENDBRANCH  17  18
ENDBRANCH   7  17
TORSDOF 4
ENDMDL
MODEL 6
REMARK VINA RESULT:      -7.9      6.036      9.460
REMARK  Name = 
REMARK  5 active torsions:
REMARK  status: ('A' for Active; 'I' for Inactive)
REMARK    1  A    between atoms: C_1  and  C_2
REMARK    2  A    between atoms: C_4  and  O_5
REMARK    3  A    between atoms: O_5  and  C_6
REMARK    4  A    between atoms: N_14  and  C_15
REMARK    5  A    between atoms: C_15  and  C_16
REMARK                            x       y       z     vdW  Elec       q    Type
REMARK                         _______ _______ _______ _____ _____    ______ ____
ROOT
ATOM      1  C   UNL     1      -0.122   9.610  23.348  0.00  0.00    +0.000 C 
ATOM      2  C   UNL     1       0.242   9.480  21.902  0.00  0.00    +0.000 A 
ATOM      3  C   UNL     1      -0.214  10.379  20.964  0.00  0.00    +0.000 A 
ATOM      4  C   UNL     1       0.275  10.202  19.694  0.00  0.00    +0.000 A 
ATOM      5  N   UNL     1       1.107   9.207  19.354  0.00  0.00    +0.000 NA
ATOM      6  C   UNL     1       1.456   8.351  20.307  0.00  0.00    +0.000 A 
ATOM      7  N   UNL     1       2.297   7.341  19.905  0.00  0.00    +0.000 N 
ATOM      8  N   UNL     1       1.061   8.454  21.582  0.00  0.00    +0.000 NA
ATOM      9  H   UNL     1       3.188   7.743  19.641  0.00  0.00    +0.000 HD
ENDROOT
BRANCH   4  10
ATOM     10  O   UNL     1      -0.138  11.107  18.723  0.00  0.00    +0.000 OA
BRANCH  10  11
ATOM     11  C   UNL     1      -1.438  11.013  18.268  0.00  0.00    +0.000 A 
ATOM     12  C   UNL     1      -1.707  10.012  17.328  0.00  0.00    +0.000 A 
ATOM     13  C   UNL     1      -3.008   9.839  16.848  0.00  0.00    +0.000 A 
ATOM     14  C   UNL     1      -4.039  10.659  17.307  0.00  0.00    +0.000 A 
ATOM     15  C   UNL     1      -3.776  11.641  18.258  0.00  0.00    +0.000 A 
ATOM     16  C   UNL     1      -2.482  11.803  18.752  0.00  0.00    +0.000 A 
ENDBRANCH  10  11
ENDBRANCH   4  10
BRANCH   7  17
ATOM     17  C   UNL     1       2.377   6.169  20.739  0.00  0.00    +0.000 C 
BRANCH  17  18
ATOM     18  C   UNL     1       1.945   4.954  19.943  0.00  0.00    +0.000 A 
ATOM     19  C   UNL     1       1.212   3.932  20.570  0.00  0.00    +0.000 A 
ATOM     20  C   UNL     1       0.772   2.829  19.838  0.00  0.00    +0.000 A 
ATOM     21  C   UNL     1       1.049   2.728  18.479  0.00  0.00    +0.000 A 
ATOM     22  C   UNL     1       1.759   3.739  17.834  0.00  0.00    +0.000 A 
ATOM     23  C   UNL     1       2.191   4.849  18.561  0.00  0.00    +0.000 A 
ENDBRANCH  17  18
ENDBRANCH   7  17
TORSDOF 4
ENDMDL
MODEL 7
REMARK VINA RESULT:      -7.8      2.562      6.675
REMARK  Name = 
REMARK  5 active torsions:
REMARK  status: ('A' for Active; 'I' for Inactive)
REMARK    1  A    between atoms: C_1  and  C_2
REMARK    2  A    between atoms: C_4  and  O_5
REMARK    3  A    between atoms: O_5  and  C_6
REMARK    4  A    between atoms: N_14  and  C_15
REMARK    5  A    between atoms: C_15  and  C_16
REMARK                            x       y       z     vdW  Elec       q    Type
REMARK                         _______ _______ _______ _____ _____    ______ ____
ROOT
ATOM      1  C   UNL     1       7.707   7.594  17.546  0.00  0.00    +0.000 C 
ATOM      2  C   UNL     1       6.913   6.330  17.433  0.00  0.00    +0.000 A 
ATOM      3  C   UNL     1       6.470   5.659  18.551  0.00  0.00    +0.000 A 
ATOM      4  C   UNL     1       5.671   4.570  18.305  0.00  0.00    +0.000 A 
ATOM      5  N   UNL     1       5.363   4.143  17.071  0.00  0.00    +0.000 NA
ATOM      6  C   UNL     1       5.875   4.815  16.048  0.00  0.00    +0.000 A 
ATOM      7  N   UNL     1       5.543   4.330  14.806  0.00  0.00    +0.000 N 
ATOM      8  N   UNL     1       6.638   5.907  16.180  0.00  0.00    +0.000 NA
ATOM      9  H   UNL     1       4.548   4.449  14.664  0.00  0.00    +0.000 HD
ENDROOT
BRANCH   4  10
ATOM     10  O   UNL     1       5.177   3.883  19.407  0.00  0.00    +0.000 OA
BRANCH  10  11
ATOM     11  C   UNL     1       3.806   3.792  19.545  0.00  0.00    +0.000 A 
ATOM     12  C   UNL     1       3.222   2.557  19.246  0.00  0.00    +0.000 A 
ATOM     13  C   UNL     1       1.842   2.385  19.394  0.00  0.00    +0.000 A 
ATOM     14  C   UNL     1       1.049   3.441  19.841  0.00  0.00    +0.000 A 
ATOM     15  C   UNL     1       1.632   4.664  20.158  0.00  0.00    +0.000 A 
ATOM     16  C   UNL     1       3.010   4.833  20.030  0.00  0.00    +0.000 A 
ENDBRANCH  10  11
ENDBRANCH   4  10
BRANCH   7  17
ATOM     17  C   UNL     1       6.371   4.720  13.693  0.00  0.00    +0.000 C 
BRANCH  17  18
ATOM     18  C   UNL     1       6.332   3.639  12.633  0.00  0.00    +0.000 A 
ATOM     19  C   UNL     1       7.533   3.145  12.093  0.00  0.00    +0.000 A 
ATOM     20  C   UNL     1       7.512   2.119  11.147  0.00  0.00    +0.000 A 
ATOM     21  C   UNL     1       6.305   1.570  10.730  0.00  0.00    +0.000 A 
ATOM     22  C   UNL     1       5.104   2.032  11.265  0.00  0.00    +0.000 A 
ATOM     23  C   UNL     1       5.121   3.050  12.220  0.00  0.00    +0.000 A 
ENDBRANCH  17  18
ENDBRANCH   7  17
TORSDOF 4
ENDMDL
MODEL 8
REMARK VINA RESULT:      -7.8      2.586      6.663
REMARK  Name = 
REMARK  5 active torsions:
REMARK  status: ('A' for Active; 'I' for Inactive)
REMARK    1  A    between atoms: C_1  and  C_2
REMARK    2  A    between atoms: C_4  and  O_5
REMARK    3  A    between atoms: O_5  and  C_6
REMARK    4  A    between atoms: N_14  and  C_15
REMARK    5  A    between atoms: C_15  and  C_16
REMARK                            x       y       z     vdW  Elec       q    Type
REMARK                         _______ _______ _______ _____ _____    ______ ____
ROOT
ATOM      1  C   UNL     1       7.742   7.578  17.640  0.00  0.00    +0.000 C 
ATOM      2  C   UNL     1       6.928   6.327  17.524  0.00  0.00    +0.000 A 
ATOM      3  C   UNL     1       6.494   5.647  18.640  0.00  0.00    +0.000 A 
ATOM      4  C   UNL     1       5.675   4.574  18.393  0.00  0.00    +0.000 A 
ATOM      5  N   UNL     1       5.337   4.170  17.160  0.00  0.00    +0.000 NA
ATOM      6  C   UNL     1       5.841   4.849  16.136  0.00  0.00    +0.000 A 
ATOM      7  N   UNL     1       5.479   4.386  14.894  0.00  0.00    +0.000 N 
ATOM      8  N   UNL     1       6.623   5.927  16.270  0.00  0.00    +0.000 NA
ATOM      9  H   UNL     1       4.483   4.523  14.772  0.00  0.00    +0.000 HD
ENDROOT
BRANCH   4  10
ATOM     10  O   UNL     1       5.190   3.878  19.495  0.00  0.00    +0.000 OA
BRANCH  10  11
ATOM     11  C   UNL     1       3.831   3.918  19.731  0.00  0.00    +0.000 A 
ATOM     12  C   UNL     1       3.157   2.692  19.752  0.00  0.00    +0.000 A 
ATOM     13  C   UNL     1       1.785   2.655  20.016  0.00  0.00    +0.000 A 
ATOM     14  C   UNL     1       1.087   3.837  20.263  0.00  0.00    +0.000 A 
ATOM     15  C   UNL     1       1.760   5.055  20.263  0.00  0.00    +0.000 A 
ATOM     16  C   UNL     1       3.132   5.093  20.018  0.00  0.00    +0.000 A 
ENDBRANCH  10  11
ENDBRANCH   4  10
BRANCH   7  17
ATOM     17  C   UNL     1       6.293   4.780  13.772  0.00  0.00    +0.000 C 
BRANCH  17  18
ATOM     18  C   UNL     1       6.297   3.671  12.739  0.00  0.00    +0.000 A 
ATOM     19  C   UNL     1       5.081   3.123  12.298  0.00  0.00    +0.000 A 
ATOM     20  C   UNL     1       5.069   2.131  11.316  0.00  0.00    +0.000 A 
ATOM     21  C   UNL     1       6.260   1.677  10.759  0.00  0.00    +0.000 A 
ATOM     22  C   UNL     1       7.476   2.220  11.169  0.00  0.00    +0.000 A 
ATOM     23  C   UNL     1       7.490   3.220  12.143  0.00  0.00    +0.000 A 
ENDBRANCH  17  18
ENDBRANCH   7  17
TORSDOF 4
ENDMDL
MODEL 9
REMARK VINA RESULT:      -7.8      5.985      9.379
REMARK  Name = 
REMARK  5 active torsions:
REMARK  status: ('A' for Active; 'I' for Inactive)
REMARK    1  A    between atoms: C_1  and  C_2
REMARK    2  A    between atoms: C_4  and  O_5
REMARK    3  A    between atoms: O_5  and  C_6
REMARK    4  A    between atoms: N_14  and  C_15
REMARK    5  A    between atoms: C_15  and  C_16
REMARK                            x       y       z     vdW  Elec       q    Type
REMARK                         _______ _______ _______ _____ _____    ______ ____
ROOT
ATOM      1  C   UNL     1      -0.045   9.535  23.413  0.00  0.00    +0.000 C 
ATOM      2  C   UNL     1       0.283   9.437  21.956  0.00  0.00    +0.000 A 
ATOM      3  C   UNL     1      -0.211  10.346  21.046  0.00  0.00    +0.000 A 
ATOM      4  C   UNL     1       0.248  10.199  19.761  0.00  0.00    +0.000 A 
ATOM      5  N   UNL     1       1.085   9.223  19.381  0.00  0.00    +0.000 NA
ATOM      6  C   UNL     1       1.472   8.356  20.310  0.00  0.00    +0.000 A 
ATOM      7  N   UNL     1       2.317   7.367  19.868  0.00  0.00    +0.000 N 
ATOM      8  N   UNL     1       1.108   8.430  21.596  0.00  0.00    +0.000 NA
ATOM      9  H   UNL     1       3.195   7.787  19.589  0.00  0.00    +0.000 HD
ENDROOT
BRANCH   4  10
ATOM     10  O   UNL     1      -0.203  11.115  18.817  0.00  0.00    +0.000 OA
BRANCH  10  11
ATOM     11  C   UNL     1      -1.443  10.894  18.251  0.00  0.00    +0.000 A 
ATOM     12  C   UNL     1      -2.492  11.706  18.693  0.00  0.00    +0.000 A 
ATOM     13  C   UNL     1      -3.768  11.559  18.140  0.00  0.00    +0.000 A 
ATOM     14  C   UNL     1      -3.994  10.607  17.145  0.00  0.00    +0.000 A 
ATOM     15  C   UNL     1      -2.946   9.813  16.691  0.00  0.00    +0.000 A 
ATOM     16  C   UNL     1      -1.669   9.971  17.228  0.00  0.00    +0.000 A 
ENDBRANCH  10  11
ENDBRANCH   4  10
BRANCH   7  17
ATOM     17  C   UNL     1       2.437   6.181  20.678  0.00  0.00    +0.000 C 
BRANCH  17  18
ATOM     18  C   UNL     1       1.994   4.975  19.875  0.00  0.00    +0.000 A 
ATOM     19  C   UNL     1       1.127   4.031  20.451  0.00  0.00    +0.000 A 
ATOM     20  C   UNL     1       0.678   2.939  19.707  0.00  0.00    +0.000 A 
ATOM     21  C   UNL     1       1.079   2.774  18.385  0.00  0.00    +0.000 A 
ATOM     22  C   UNL     1       1.924   3.708  17.789  0.00  0.00    +0.000 A 
ATOM     23  C   UNL     1       2.366   4.807  18.527  0.00  0.00    +0.000 A 
ENDBRANCH  17  18
ENDBRANCH   7  17
TORSDOF 4
ENDMDL
