MODEL 1
REMARK VINA RESULT:      -7.5      0.000      0.000
REMARK  Name = 
REMARK  5 active torsions:
REMARK  status: ('A' for Active; 'I' for Inactive)
REMARK    1  A    between atoms: N_2  and  C_4
REMARK    2  A    between atoms: C_7  and  N_8
REMARK    3  A    between atoms: N_9  and  N_10
REMARK    4  A    between atoms: N_10  and  C_11
REMARK    5  A    between atoms: C_14  and  N_15
REMARK                            x       y       z     vdW  Elec       q    Type
REMARK                         _______ _______ _______ _____ _____    ______ ____
ROOT
ATOM      1  N   UNL     1       2.901   5.748  19.283  0.00  0.00    +0.000 NA
ATOM      2  N   UNL     1       4.112   5.791  19.560  0.00  0.00    +0.000 NA
ENDROOT
BRANCH   1   6
ATOM      3  C   UNL     1       0.917   9.337  20.324  0.00  0.00    +0.000 A 
ATOM      4  C   UNL     1       1.012   8.281  21.241  0.00  0.00    +0.000 A 
ATOM      5  C   UNL     1       1.688   7.106  20.880  0.00  0.00    +0.000 A 
ATOM      6  C   UNL     1       2.275   6.973  19.613  0.00  0.00    +0.000 A 
ATOM      7  C   UNL     1       2.163   8.053  18.718  0.00  0.00    +0.000 A 
ATOM      8  F   UNL     1       2.691   7.974  17.486  0.00  0.00    +0.000 F 
ATOM      9  C   UNL     1       1.500   9.230  19.059  0.00  0.00    +0.000 A 
BRANCH   3  11
ATOM     10  O   UNL     1       0.562  11.178  21.685  0.00  0.00    +0.000 OA
ATOM     11  N   UNL     1       0.186  10.558  20.681  0.00  0.00    +0.000 N 
ATOM     12  O   UNL     1      -0.763  10.893  19.959  0.00  0.00    +0.000 OA
ENDBRANCH   3  11
ENDBRANCH   1   6
BRANCH   2  13
ATOM     13  N   UNL     1       4.667   4.625  19.191  0.00  0.00    +0.000 N 
ATOM     14  H   UNL     1       4.323   3.768  19.612  0.00  0.00    +0.000 HD
BRANCH  13  15
ATOM     15  C   UNL     1       5.258   4.525  17.919  0.00  0.00    +0.000 A 
ATOM     16  C   UNL     1       4.503   4.245  16.769  0.00  0.00    +0.000 A 
ATOM     17  C   UNL     1       5.081   4.281  15.496  0.00  0.00    +0.000 A 
ATOM     18  C   UNL     1       6.432   4.615  15.361  0.00  0.00    +0.000 A 
ATOM     19  C   UNL     1       7.212   4.890  16.488  0.00  0.00    +0.000 A 
ATOM     20  C   UNL     1       6.615   4.844  17.747  0.00  0.00    +0.000 A 
ATOM     21  F   UNL     1       7.366   5.128  18.823  0.00  0.00    +0.000 F 
BRANCH  18  22
ATOM     22  N   UNL     1       7.026   4.698  14.020  0.00  0.00    +0.000 N 
ATOM     23  O   UNL     1       7.927   5.527  13.840  0.00  0.00    +0.000 OA
ATOM     24  O   UNL     1       6.592   3.927  13.151  0.00  0.00    +0.000 OA
ENDBRANCH  18  22
ENDBRANCH  13  15
ENDBRANCH   2  13
TORSDOF 5
ENDMDL
MODEL 2
REMARK VINA RESULT:      -7.5      1.056      1.577
REMARK  Name = 
REMARK  5 active torsions:
REMARK  status: ('A' for Active; 'I' for Inactive)
REMARK    1  A    between atoms: N_2  and  C_4
REMARK    2  A    between atoms: C_7  and  N_8
REMARK    3  A    between atoms: N_9  and  N_10
REMARK    4  A    between atoms: N_10  and  C_11
REMARK    5  A    between atoms: C_14  and  N_15
REMARK                            x       y       z     vdW  Elec       q    Type
REMARK                         _______ _______ _______ _____ _____    ______ ____
ROOT
ATOM      1  N   UNL     1       2.933   6.134  18.815  0.00  0.00    +0.000 NA
ATOM      2  N   UNL     1       3.929   5.877  19.514  0.00  0.00    +0.000 NA
ENDROOT
BRANCH   1   6
ATOM      3  C   UNL     1       0.829   9.470  20.347  0.00  0.00    +0.000 A 
ATOM      4  C   UNL     1       1.052   8.338  21.143  0.00  0.00    +0.000 A 
ATOM      5  C   UNL     1       1.766   7.250  20.621  0.00  0.00    +0.000 A 
ATOM      6  C   UNL     1       2.264   7.277  19.309  0.00  0.00    +0.000 A 
ATOM      7  C   UNL     1       2.024   8.430  18.538  0.00  0.00    +0.000 A 
ATOM      8  F   UNL     1       2.463   8.504  17.271  0.00  0.00    +0.000 F 
ATOM      9  C   UNL     1       1.322   9.523  19.041  0.00  0.00    +0.000 A 
BRANCH   3  11
ATOM     10  O   UNL     1       0.401  11.067  21.970  0.00  0.00    +0.000 OA
ATOM     11  N   UNL     1       0.058  10.601  20.874  0.00  0.00    +0.000 N 
ATOM     12  O   UNL     1      -0.889  11.019  20.195  0.00  0.00    +0.000 OA
ENDBRANCH   3  11
ENDBRANCH   1   6
BRANCH   2  13
ATOM     13  N   UNL     1       4.550   4.812  18.981  0.00  0.00    +0.000 N 
ATOM     14  H   UNL     1       4.255   3.884  19.265  0.00  0.00    +0.000 HD
BRANCH  13  15
ATOM     15  C   UNL     1       5.149   4.937  17.715  0.00  0.00    +0.000 A 
ATOM     16  C   UNL     1       6.364   5.616  17.532  0.00  0.00    +0.000 A 
ATOM     17  C   UNL     1       7.015   5.617  16.294  0.00  0.00    +0.000 A 
ATOM     18  C   UNL     1       6.456   4.919  15.220  0.00  0.00    +0.000 A 
ATOM     19  C   UNL     1       5.242   4.240  15.369  0.00  0.00    +0.000 A 
ATOM     20  C   UNL     1       4.610   4.256  16.611  0.00  0.00    +0.000 A 
ATOM     21  F   UNL     1       3.455   3.586  16.752  0.00  0.00    +0.000 F 
BRANCH  18  22
ATOM     22  N   UNL     1       7.163   4.882  13.933  0.00  0.00    +0.000 N 
ATOM     23  O   UNL     1       6.766   4.078  13.081  0.00  0.00    +0.000 OA
ATOM     24  O   UNL     1       8.113   5.662  13.778  0.00  0.00    +0.000 OA
ENDBRANCH  18  22
ENDBRANCH  13  15
ENDBRANCH   2  13
TORSDOF 5
ENDMDL
MODEL 3
REMARK VINA RESULT:      -7.3      1.956      2.517
REMARK  Name = 
REMARK  5 active torsions:
REMARK  status: ('A' for Active; 'I' for Inactive)
REMARK    1  A    between atoms: N_2  and  C_4
REMARK    2  A    between atoms: C_7  and  N_8
REMARK    3  A    between atoms: N_9  and  N_10
REMARK    4  A    between atoms: N_10  and  C_11
REMARK    5  A    between atoms: C_14  and  N_15
REMARK                            x       y       z     vdW  Elec       q    Type
REMARK                         _______ _______ _______ _____ _____    ______ ____
ROOT
ATOM      1  N   UNL     1       2.127   6.840  19.218  0.00  0.00    +0.000 NA
ATOM      2  N   UNL     1       1.976   5.896  20.013  0.00  0.00    +0.000 NA
ENDROOT
BRANCH   1   6
ATOM      3  C   UNL     1       0.713  10.388  21.038  0.00  0.00    +0.000 A 
ATOM      4  C   UNL     1       1.014   9.259  21.812  0.00  0.00    +0.000 A 
ATOM      5  C   UNL     1       1.497   8.099  21.190  0.00  0.00    +0.000 A 
ATOM      6  C   UNL     1       1.687   8.051  19.801  0.00  0.00    +0.000 A 
ATOM      7  C   UNL     1       1.377   9.204  19.055  0.00  0.00    +0.000 A 
ATOM      8  F   UNL     1       1.523   9.210  17.720  0.00  0.00    +0.000 F 
ATOM      9  C   UNL     1       0.902  10.368  19.654  0.00  0.00    +0.000 A 
BRANCH   3  11
ATOM     10  O   UNL     1       0.269  12.663  21.051  0.00  0.00    +0.000 OA
ATOM     11  N   UNL     1       0.180  11.597  21.677  0.00  0.00    +0.000 N 
ATOM     12  O   UNL     1      -0.324  11.480  22.801  0.00  0.00    +0.000 OA
ENDBRANCH   3  11
ENDBRANCH   1   6
BRANCH   2  13
ATOM     13  N   UNL     1       2.446   4.781  19.431  0.00  0.00    +0.000 N 
ATOM     14  H   UNL     1       1.782   4.087  19.102  0.00  0.00    +0.000 HD
BRANCH  13  15
ATOM     15  C   UNL     1       3.701   4.819  18.800  0.00  0.00    +0.000 A 
ATOM     16  C   UNL     1       4.848   5.293  19.457  0.00  0.00    +0.000 A 
ATOM     17  C   UNL     1       6.112   5.200  18.865  0.00  0.00    +0.000 A 
ATOM     18  C   UNL     1       6.242   4.615  17.603  0.00  0.00    +0.000 A 
ATOM     19  C   UNL     1       5.117   4.143  16.920  0.00  0.00    +0.000 A 
ATOM     20  C   UNL     1       3.867   4.249  17.528  0.00  0.00    +0.000 A 
ATOM     21  F   UNL     1       2.794   3.775  16.874  0.00  0.00    +0.000 F 
BRANCH  18  22
ATOM     22  N   UNL     1       7.576   4.477  17.003  0.00  0.00    +0.000 N 
ATOM     23  O   UNL     1       7.700   4.760  15.805  0.00  0.00    +0.000 OA
ATOM     24  O   UNL     1       8.498   4.089  17.735  0.00  0.00    +0.000 OA
ENDBRANCH  18  22
ENDBRANCH  13  15
ENDBRANCH   2  13
TORSDOF 5
ENDMDL
MODEL 4
REMARK VINA RESULT:      -7.3      1.019      1.568
REMARK  Name = 
REMARK  5 active torsions:
REMARK  status: ('A' for Active; 'I' for Inactive)
REMARK    1  A    between atoms: N_2  and  C_4
REMARK    2  A    between atoms: C_7  and  N_8
REMARK    3  A    between atoms: N_9  and  N_10
REMARK    4  A    between atoms: N_10  and  C_11
REMARK    5  A    between atoms: C_14  and  N_15
REMARK                            x       y       z     vdW  Elec       q    Type
REMARK                         _______ _______ _______ _____ _____    ______ ____
ROOT
ATOM      1  N   UNL     1       2.933   5.802  18.766  0.00  0.00    +0.000 NA
ATOM      2  N   UNL     1       4.036   5.696  19.329  0.00  0.00    +0.000 NA
ENDROOT
BRANCH   1   6
ATOM      3  C   UNL     1       1.196   9.529  19.762  0.00  0.00    +0.000 A 
ATOM      4  C   UNL     1       1.757   9.318  18.494  0.00  0.00    +0.000 A 
ATOM      5  C   UNL     1       2.313   8.069  18.180  0.00  0.00    +0.000 A 
ATOM      6  C   UNL     1       2.314   7.024  19.116  0.00  0.00    +0.000 A 
ATOM      7  C   UNL     1       1.741   7.271  20.378  0.00  0.00    +0.000 A 
ATOM      8  F   UNL     1       1.730   6.312  21.319  0.00  0.00    +0.000 F 
ATOM      9  C   UNL     1       1.179   8.502  20.708  0.00  0.00    +0.000 A 
BRANCH   3  11
ATOM     10  O   UNL     1      -0.091  11.394  19.276  0.00  0.00    +0.000 OA
ATOM     11  N   UNL     1       0.639  10.841  20.111  0.00  0.00    +0.000 N 
ATOM     12  O   UNL     1       0.934  11.317  21.215  0.00  0.00    +0.000 OA
ENDBRANCH   3  11
ENDBRANCH   1   6
BRANCH   2  13
ATOM     13  N   UNL     1       4.599   4.544  18.932  0.00  0.00    +0.000 N 
ATOM     14  H   UNL     1       4.219   3.670  19.283  0.00  0.00    +0.000 HD
BRANCH  13  15
ATOM     15  C   UNL     1       5.269   4.503  17.697  0.00  0.00    +0.000 A 
ATOM     16  C   UNL     1       4.638   4.059  16.524  0.00  0.00    +0.000 A 
ATOM     17  C   UNL     1       5.271   4.150  15.281  0.00  0.00    +0.000 A 
ATOM     18  C   UNL     1       6.552   4.705  15.198  0.00  0.00    +0.000 A 
ATOM     19  C   UNL     1       7.210   5.147  16.350  0.00  0.00    +0.000 A 
ATOM     20  C   UNL     1       6.560   5.043  17.578  0.00  0.00    +0.000 A 
ATOM     21  F   UNL     1       7.190   5.487  18.677  0.00  0.00    +0.000 F 
BRANCH  18  22
ATOM     22  N   UNL     1       7.198   4.842  13.886  0.00  0.00    +0.000 N 
ATOM     23  O   UNL     1       8.109   5.671  13.777  0.00  0.00    +0.000 OA
ATOM     24  O   UNL     1       6.793   4.114  12.967  0.00  0.00    +0.000 OA
ENDBRANCH  18  22
ENDBRANCH  13  15
ENDBRANCH   2  13
TORSDOF 5
ENDMDL
MODEL 5
REMARK VINA RESULT:      -7.3      0.993      1.422
REMARK  Name = 
REMARK  5 active torsions:
REMARK  status: ('A' for Active; 'I' for Inactive)
REMARK    1  A    between atoms: N_2  and  C_4
REMARK    2  A    between atoms: C_7  and  N_8
REMARK    3  A    between atoms: N_9  and  N_10
REMARK    4  A    between atoms: N_10  and  C_11
REMARK    5  A    between atoms: C_14  and  N_15
REMARK                            x       y       z     vdW  Elec       q    Type
REMARK                         _______ _______ _______ _____ _____    ______ ____
ROOT
ATOM      1  N   UNL     1       3.111   6.675  19.584  0.00  0.00    +0.000 NA
ATOM      2  N   UNL     1       2.530   5.577  19.547  0.00  0.00    +0.000 NA
ENDROOT
BRANCH   1   6
ATOM      3  C   UNL     1       0.204   9.744  19.763  0.00  0.00    +0.000 A 
ATOM      4  C   UNL     1       0.471   8.945  20.884  0.00  0.00    +0.000 A 
ATOM      5  C   UNL     1       1.450   7.944  20.807  0.00  0.00    +0.000 A 
ATOM      6  C   UNL     1       2.171   7.731  19.623  0.00  0.00    +0.000 A 
ATOM      7  C   UNL     1       1.880   8.552  18.518  0.00  0.00    +0.000 A 
ATOM      8  F   UNL     1       2.527   8.381  17.354  0.00  0.00    +0.000 F 
ATOM      9  C   UNL     1       0.915   9.555  18.576  0.00  0.00    +0.000 A 
BRANCH   3  11
ATOM     10  O   UNL     1      -1.672  10.801  18.908  0.00  0.00    +0.000 OA
ATOM     11  N   UNL     1      -0.839  10.774  19.825  0.00  0.00    +0.000 N 
ATOM     12  O   UNL     1      -0.823  11.553  20.786  0.00  0.00    +0.000 OA
ENDBRANCH   3  11
ENDBRANCH   1   6
BRANCH   2  13
ATOM     13  N   UNL     1       3.462   4.610  19.553  0.00  0.00    +0.000 N 
ATOM     14  H   UNL     1       3.303   3.785  20.123  0.00  0.00    +0.000 HD
BRANCH  13  15
ATOM     15  C   UNL     1       4.303   4.468  18.436  0.00  0.00    +0.000 A 
ATOM     16  C   UNL     1       3.807   4.101  17.174  0.00  0.00    +0.000 A 
ATOM     17  C   UNL     1       4.631   4.094  16.045  0.00  0.00    +0.000 A 
ATOM     18  C   UNL     1       5.972   4.471  16.167  0.00  0.00    +0.000 A 
ATOM     19  C   UNL     1       6.497   4.833  17.412  0.00  0.00    +0.000 A 
ATOM     20  C   UNL     1       5.657   4.828  18.524  0.00  0.00    +0.000 A 
ATOM     21  F   UNL     1       6.164   5.195  19.712  0.00  0.00    +0.000 F 
BRANCH  18  22
ATOM     22  N   UNL     1       6.825   4.508  14.972  0.00  0.00    +0.000 N 
ATOM     23  O   UNL     1       6.542   3.747  14.039  0.00  0.00    +0.000 OA
ATOM     24  O   UNL     1       7.776   5.304  14.970  0.00  0.00    +0.000 OA
ENDBRANCH  18  22
ENDBRANCH  13  15
ENDBRANCH   2  13
TORSDOF 5
ENDMDL
MODEL 6
REMARK VINA RESULT:      -7.2      1.484      1.772
REMARK  Name = 
REMARK  5 active torsions:
REMARK  status: ('A' for Active; 'I' for Inactive)
REMARK    1  A    between atoms: N_2  and  C_4
REMARK    2  A    between atoms: C_7  and  N_8
REMARK    3  A    between atoms: N_9  and  N_10
REMARK    4  A    between atoms: N_10  and  C_11
REMARK    5  A    between atoms: C_14  and  N_15
REMARK                            x       y       z     vdW  Elec       q    Type
REMARK                         _______ _______ _______ _____ _____    ______ ____
ROOT
ATOM      1  N   UNL     1       2.768   6.888  19.610  0.00  0.00    +0.000 NA
ATOM      2  N   UNL     1       2.316   6.119  18.744  0.00  0.00    +0.000 NA
ENDROOT
BRANCH   1   6
ATOM      3  C   UNL     1       0.002  10.009  20.323  0.00  0.00    +0.000 A 
ATOM      4  C   UNL     1       0.253   9.038  21.303  0.00  0.00    +0.000 A 
ATOM      5  C   UNL     1       1.186   8.022  21.051  0.00  0.00    +0.000 A 
ATOM      6  C   UNL     1       1.876   7.963  19.831  0.00  0.00    +0.000 A 
ATOM      7  C   UNL     1       1.601   8.954  18.871  0.00  0.00    +0.000 A 
ATOM      8  F   UNL     1       2.220   8.937  17.679  0.00  0.00    +0.000 F 
ATOM      9  C   UNL     1       0.683   9.975  19.103  0.00  0.00    +0.000 A 
BRANCH   3  11
ATOM     10  O   UNL     1      -1.546  11.564  19.577  0.00  0.00    +0.000 OA
ATOM     11  N   UNL     1      -0.994  11.059  20.565  0.00  0.00    +0.000 N 
ATOM     12  O   UNL     1      -1.219  11.379  21.739  0.00  0.00    +0.000 OA
ENDBRANCH   3  11
ENDBRANCH   1   6
BRANCH   2  13
ATOM     13  N   UNL     1       3.176   5.098  18.601  0.00  0.00    +0.000 N 
ATOM     14  H   UNL     1       2.968   4.219  19.065  0.00  0.00    +0.000 HD
BRANCH  13  15
ATOM     15  C   UNL     1       3.983   5.044  17.451  0.00  0.00    +0.000 A 
ATOM     16  C   UNL     1       4.486   6.204  16.841  0.00  0.00    +0.000 A 
ATOM     17  C   UNL     1       5.395   6.130  15.781  0.00  0.00    +0.000 A 
ATOM     18  C   UNL     1       5.824   4.880  15.326  0.00  0.00    +0.000 A 
ATOM     19  C   UNL     1       5.334   3.706  15.907  0.00  0.00    +0.000 A 
ATOM     20  C   UNL     1       4.426   3.805  16.960  0.00  0.00    +0.000 A 
ATOM     21  F   UNL     1       3.974   2.674  17.526  0.00  0.00    +0.000 F 
BRANCH  18  22
ATOM     22  N   UNL     1       6.814   4.804  14.244  0.00  0.00    +0.000 N 
ATOM     23  O   UNL     1       7.828   5.507  14.340  0.00  0.00    +0.000 OA
ATOM     24  O   UNL     1       6.575   4.036  13.300  0.00  0.00    +0.000 OA
ENDBRANCH  18  22
ENDBRANCH  13  15
ENDBRANCH   2  13
TORSDOF 5
ENDMDL
MODEL 7
REMARK VINA RESULT:      -7.2      1.429      2.004
REMARK  Name = 
REMARK  5 active torsions:
REMARK  status: ('A' for Active; 'I' for Inactive)
REMARK    1  A    between atoms: N_2  and  C_4
REMARK    2  A    between atoms: C_7  and  N_8
REMARK    3  A    between atoms: N_9  and  N_10
REMARK    4  A    between atoms: N_10  and  C_11
REMARK    5  A    between atoms: C_14  and  N_15
REMARK                            x       y       z     vdW  Elec       q    Type
REMARK                         _______ _______ _______ _____ _____    ______ ____
ROOT
ATOM      1  N   UNL     1       3.034   5.776  18.773  0.00  0.00    +0.000 NA
ATOM      2  N   UNL     1       4.155   5.692  19.305  0.00  0.00    +0.000 NA
ENDROOT
BRANCH   1   6
ATOM      3  C   UNL     1       1.004   9.162  20.293  0.00  0.00    +0.000 A 
ATOM      4  C   UNL     1       1.562   9.181  19.007  0.00  0.00    +0.000 A 
ATOM      5  C   UNL     1       2.217   8.041  18.517  0.00  0.00    +0.000 A 
ATOM      6  C   UNL     1       2.320   6.878  19.295  0.00  0.00    +0.000 A 
ATOM      7  C   UNL     1       1.745   6.893  20.580  0.00  0.00    +0.000 A 
ATOM      8  F   UNL     1       1.828   5.814  21.374  0.00  0.00    +0.000 F 
ATOM      9  C   UNL     1       1.086   8.013  21.082  0.00  0.00    +0.000 A 
BRANCH   3  11
ATOM     10  O   UNL     1       0.941  11.003  21.698  0.00  0.00    +0.000 OA
ATOM     11  N   UNL     1       0.342  10.358  20.825  0.00  0.00    +0.000 N 
ATOM     12  O   UNL     1      -0.773  10.649  20.374  0.00  0.00    +0.000 OA
ENDBRANCH   3  11
ENDBRANCH   1   6
BRANCH   2  13
ATOM     13  N   UNL     1       4.807   4.660  18.748  0.00  0.00    +0.000 N 
ATOM     14  H   UNL     1       4.553   3.717  19.025  0.00  0.00    +0.000 HD
BRANCH  13  15
ATOM     15  C   UNL     1       5.378   4.823  17.474  0.00  0.00    +0.000 A 
ATOM     16  C   UNL     1       6.599   5.491  17.287  0.00  0.00    +0.000 A 
ATOM     17  C   UNL     1       7.220   5.529  16.035  0.00  0.00    +0.000 A 
ATOM     18  C   UNL     1       6.625   4.880  14.949  0.00  0.00    +0.000 A 
ATOM     19  C   UNL     1       5.405   4.214  15.102  0.00  0.00    +0.000 A 
ATOM     20  C   UNL     1       4.802   4.193  16.358  0.00  0.00    +0.000 A 
ATOM     21  F   UNL     1       3.641   3.535  16.502  0.00  0.00    +0.000 F 
BRANCH  18  22
ATOM     22  N   UNL     1       7.301   4.882  13.645  0.00  0.00    +0.000 N 
ATOM     23  O   UNL     1       8.255   5.655  13.492  0.00  0.00    +0.000 OA
ATOM     24  O   UNL     1       6.878   4.103  12.778  0.00  0.00    +0.000 OA
ENDBRANCH  18  22
ENDBRANCH  13  15
ENDBRANCH   2  13
TORSDOF 5
ENDMDL
MODEL 8
REMARK VINA RESULT:      -7.2      1.406      2.181
REMARK  Name = 
REMARK  5 active torsions:
REMARK  status: ('A' for Active; 'I' for Inactive)
REMARK    1  A    between atoms: N_2  and  C_4
REMARK    2  A    between atoms: C_7  and  N_8
REMARK    3  A    between atoms: N_9  and  N_10
REMARK    4  A    between atoms: N_10  and  C_11
REMARK    5  A    between atoms: C_14  and  N_15
REMARK                            x       y       z     vdW  Elec       q    Type
REMARK                         _______ _______ _______ _____ _____    ______ ____
ROOT
ATOM      1  N   UNL     1       2.884   6.168  18.688  0.00  0.00    +0.000 NA
ATOM      2  N   UNL     1       3.823   5.880  19.449  0.00  0.00    +0.000 NA
ENDROOT
BRANCH   1   6
ATOM      3  C   UNL     1       0.938   9.668  20.053  0.00  0.00    +0.000 A 
ATOM      4  C   UNL     1       1.494   9.615  18.767  0.00  0.00    +0.000 A 
ATOM      5  C   UNL     1       2.120   8.439  18.330  0.00  0.00    +0.000 A 
ATOM      6  C   UNL     1       2.197   7.310  19.160  0.00  0.00    +0.000 A 
ATOM      7  C   UNL     1       1.626   7.398  20.443  0.00  0.00    +0.000 A 
ATOM      8  F   UNL     1       1.685   6.354  21.286  0.00  0.00    +0.000 F 
ATOM      9  C   UNL     1       0.995   8.554  20.895  0.00  0.00    +0.000 A 
BRANCH   3  11
ATOM     10  O   UNL     1      -0.524  11.446  19.790  0.00  0.00    +0.000 OA
ATOM     11  N   UNL     1       0.306  10.903  20.532  0.00  0.00    +0.000 N 
ATOM     12  O   UNL     1       0.644  11.329  21.644  0.00  0.00    +0.000 OA
ENDBRANCH   3  11
ENDBRANCH   1   6
BRANCH   2  13
ATOM     13  N   UNL     1       4.467   4.819  18.937  0.00  0.00    +0.000 N 
ATOM     14  H   UNL     1       4.181   3.890  19.229  0.00  0.00    +0.000 HD
BRANCH  13  15
ATOM     15  C   UNL     1       5.081   4.938  17.678  0.00  0.00    +0.000 A 
ATOM     16  C   UNL     1       6.270   5.663  17.497  0.00  0.00    +0.000 A 
ATOM     17  C   UNL     1       6.940   5.661  16.270  0.00  0.00    +0.000 A 
ATOM     18  C   UNL     1       6.428   4.914  15.205  0.00  0.00    +0.000 A 
ATOM     19  C   UNL     1       5.241   4.189  15.352  0.00  0.00    +0.000 A 
ATOM     20  C   UNL     1       4.589   4.209  16.584  0.00  0.00    +0.000 A 
ATOM     21  F   UNL     1       3.460   3.495  16.723  0.00  0.00    +0.000 F 
BRANCH  18  22
ATOM     22  N   UNL     1       7.158   4.876  13.931  0.00  0.00    +0.000 N 
ATOM     23  O   UNL     1       6.765   4.082  13.066  0.00  0.00    +0.000 OA
ATOM     24  O   UNL     1       8.121   5.645  13.797  0.00  0.00    +0.000 OA
ENDBRANCH  18  22
ENDBRANCH  13  15
ENDBRANCH   2  13
TORSDOF 5
ENDMDL
MODEL 9
REMARK VINA RESULT:      -7.2      1.482      1.948
REMARK  Name = 
REMARK  5 active torsions:
REMARK  status: ('A' for Active; 'I' for Inactive)
REMARK    1  A    between atoms: N_2  and  C_4
REMARK    2  A    between atoms: C_7  and  N_8
REMARK    3  A    between atoms: N_9  and  N_10
REMARK    4  A    between atoms: N_10  and  C_11
REMARK    5  A    between atoms: C_14  and  N_15
REMARK                            x       y       z     vdW  Elec       q    Type
REMARK                         _______ _______ _______ _____ _____    ______ ____
ROOT
ATOM      1  N   UNL     1       3.068   6.836  19.307  0.00  0.00    +0.000 NA
ATOM      2  N   UNL     1       2.520   5.745  19.542  0.00  0.00    +0.000 NA
ENDROOT
BRANCH   1   6
ATOM      3  C   UNL     1       0.292  10.026  19.158  0.00  0.00    +0.000 A 
ATOM      4  C   UNL     1       0.963   9.607  18.000  0.00  0.00    +0.000 A 
ATOM      5  C   UNL     1       1.867   8.538  18.070  0.00  0.00    +0.000 A 
ATOM      6  C   UNL     1       2.109   7.875  19.283  0.00  0.00    +0.000 A 
ATOM      7  C   UNL     1       1.417   8.320  20.424  0.00  0.00    +0.000 A 
ATOM      8  F   UNL     1       1.622   7.734  21.615  0.00  0.00    +0.000 F 
ATOM      9  C   UNL     1       0.511   9.377  20.375  0.00  0.00    +0.000 A 
BRANCH   3  11
ATOM     10  O   UNL     1      -1.833  10.918  18.917  0.00  0.00    +0.000 OA
ATOM     11  N   UNL     1      -0.633  11.164  19.102  0.00  0.00    +0.000 N 
ATOM     12  O   UNL     1      -0.159  12.299  19.240  0.00  0.00    +0.000 OA
ENDBRANCH   3  11
ENDBRANCH   1   6
BRANCH   2  13
ATOM     13  N   UNL     1       3.474   4.801  19.596  0.00  0.00    +0.000 N 
ATOM     14  H   UNL     1       3.338   4.007  20.214  0.00  0.00    +0.000 HD
BRANCH  13  15
ATOM     15  C   UNL     1       4.310   4.614  18.481  0.00  0.00    +0.000 A 
ATOM     16  C   UNL     1       3.807   4.202  17.237  0.00  0.00    +0.000 A 
ATOM     17  C   UNL     1       4.627   4.149  16.105  0.00  0.00    +0.000 A 
ATOM     18  C   UNL     1       5.969   4.524  16.207  0.00  0.00    +0.000 A 
ATOM     19  C   UNL     1       6.501   4.930  17.435  0.00  0.00    +0.000 A 
ATOM     20  C   UNL     1       5.666   4.971  18.550  0.00  0.00    +0.000 A 
ATOM     21  F   UNL     1       6.179   5.380  19.722  0.00  0.00    +0.000 F 
BRANCH  18  22
ATOM     22  N   UNL     1       6.818   4.512  15.008  0.00  0.00    +0.000 N 
ATOM     23  O   UNL     1       7.783   5.286  14.979  0.00  0.00    +0.000 OA
ATOM     24  O   UNL     1       6.517   3.724  14.100  0.00  0.00    +0.000 OA
ENDBRANCH  18  22
ENDBRANCH  13  15
ENDBRANCH   2  13
TORSDOF 5
ENDMDL
