MODEL 1
REMARK VINA RESULT:      -8.0      0.000      0.000
REMARK  Name = 
REMARK  6 active torsions:
REMARK  status: ('A' for Active; 'I' for Inactive)
REMARK    1  A    between atoms: C_1  and  O_2
REMARK    2  A    between atoms: O_2  and  C_3
REMARK    3  A    between atoms: C_5  and  C_6
REMARK    4  A    between atoms: C_29  and  O_30
REMARK    5  A    between atoms: O_30  and  C_31
REMARK    6  A    between atoms: C_32  and  O_33
REMARK                            x       y       z     vdW  Elec       q    Type
REMARK                         _______ _______ _______ _____ _____    ______ ____
ROOT
ATOM      1  C   UNK A   2      -0.395  11.420  18.216  0.00  0.00    +0.000 C 
ATOM      2  C   UNK A   2       0.321  12.727  18.426  0.00  0.00    +0.000 A 
ATOM      3  N   UNK A   2       1.606  12.989  18.035  0.00  0.00    +0.000 N 
ATOM      4  C   UNK A   2       1.976  14.248  18.453  0.00  0.00    +0.000 A 
ATOM      5  C   UNK A   2       3.197  14.922  18.313  0.00  0.00    +0.000 A 
ATOM      6  C   UNK A   2       3.295  16.209  18.852  0.00  0.00    +0.000 A 
ATOM      7  C   UNK A   2       2.212  16.799  19.504  0.00  0.00    +0.000 A 
ATOM      8  C   UNK A   2       0.999  16.114  19.633  0.00  0.00    +0.000 A 
ATOM      9  C   UNK A   2       0.876  14.816  19.101  0.00  0.00    +0.000 A 
ATOM     10  C   UNK A   2      -0.166  13.851  19.065  0.00  0.00    +0.000 A 
ATOM     11  C   UNK A   2      -1.555  13.900  19.605  0.00  0.00    +0.000 C 
ATOM     12  C   UNK A   2      -2.117  12.462  19.752  0.00  0.00    +0.000 C 
ATOM     13  C   UNK A   2      -3.586  12.574  20.185  0.00  0.00    +0.000 C 
ATOM     14  O   UNK A   2      -3.913  13.213  21.186  0.00  0.00    +0.000 OA
ATOM     15  N   PRO A   1      -4.517  12.010  19.352  0.00  0.00    +0.000 N 
ATOM     16  CD  PRO A   1      -5.934  12.316  19.456  0.00  0.00    +0.000 C 
ATOM     17  CG  PRO A   1      -6.491  12.018  18.066  0.00  0.00    +0.000 C 
ATOM     18  CB  PRO A   1      -5.252  12.073  17.167  0.00  0.00    +0.000 C 
ATOM     19  CA  PRO A   1      -4.205  11.423  18.065  0.00  0.00    +0.000 C 
ATOM     20  C   PRO A   1      -2.766  11.503  17.552  0.00  0.00    +0.000 C 
ATOM     21  O   PRO A   1      -2.493  11.235  16.383  0.00  0.00    +0.000 OA
ATOM     22  N   UNK A   2      -1.817  11.627  18.556  0.00  0.00    +0.000 N 
ATOM     23  H   UNK A   2       2.218  12.344  17.550  0.00  0.00    +0.000 HD
ENDROOT
BRANCH   1  26
ATOM     24  C   UNK A   2       1.770   8.425  19.340  0.00  0.00    +0.000 A 
ATOM     25  C   UNK A   2       1.191   9.430  18.550  0.00  0.00    +0.000 A 
ATOM     26  C   UNK A   2       0.169  10.262  19.035  0.00  0.00    +0.000 A 
ATOM     27  C   UNK A   2      -0.289  10.038  20.342  0.00  0.00    +0.000 A 
ATOM     28  C   UNK A   2       0.258   9.026  21.144  0.00  0.00    +0.000 A 
ATOM     29  C   UNK A   2       1.298   8.229  20.645  0.00  0.00    +0.000 A 
BRANCH  24  31
ATOM     30  C   UNK A   2       2.424   6.431  18.174  0.00  0.00    +0.000 C 
ATOM     31  O   UNK A   2       2.732   7.729  18.654  0.00  0.00    +0.000 OA
ENDBRANCH  24  31
BRANCH  28  32
ATOM     32  O   UNK A   2      -0.392   8.858  22.340  0.00  0.00    +0.000 OA
ATOM     33  C   UNK A   2      -0.669  10.015  23.120  0.00  0.00    +0.000 C 
ENDBRANCH  28  32
BRANCH  29  34
ATOM     34  O   UNK A   2       1.819   7.215  21.395  0.00  0.00    +0.000 OA
ATOM     35  H   UNK A   2       1.054   6.704  21.694  0.00  0.00    +0.000 HD
ENDBRANCH  29  34
ENDBRANCH   1  26
TORSDOF 4
ENDMDL
MODEL 2
REMARK VINA RESULT:      -8.0      0.307      2.269
REMARK  Name = 
REMARK  6 active torsions:
REMARK  status: ('A' for Active; 'I' for Inactive)
REMARK    1  A    between atoms: C_1  and  O_2
REMARK    2  A    between atoms: O_2  and  C_3
REMARK    3  A    between atoms: C_5  and  C_6
REMARK    4  A    between atoms: C_29  and  O_30
REMARK    5  A    between atoms: O_30  and  C_31
REMARK    6  A    between atoms: C_32  and  O_33
REMARK                            x       y       z     vdW  Elec       q    Type
REMARK                         _______ _______ _______ _____ _____    ______ ____
ROOT
ATOM      1  C   UNK A   2      -0.154  11.302  18.215  0.00  0.00    +0.000 C 
ATOM      2  C   UNK A   2       0.587  12.606  18.341  0.00  0.00    +0.000 A 
ATOM      3  N   UNK A   2       1.872  12.821  17.921  0.00  0.00    +0.000 N 
ATOM      4  C   UNK A   2       2.269  14.095  18.263  0.00  0.00    +0.000 A 
ATOM      5  C   UNK A   2       3.501  14.738  18.071  0.00  0.00    +0.000 A 
ATOM      6  C   UNK A   2       3.628  16.051  18.534  0.00  0.00    +0.000 A 
ATOM      7  C   UNK A   2       2.563  16.697  19.163  0.00  0.00    +0.000 A 
ATOM      8  C   UNK A   2       1.340  16.043  19.345  0.00  0.00    +0.000 A 
ATOM      9  C   UNK A   2       1.188  14.720  18.889  0.00  0.00    +0.000 A 
ATOM     10  C   UNK A   2       0.128  13.773  18.921  0.00  0.00    +0.000 A 
ATOM     11  C   UNK A   2      -1.253  13.878  19.472  0.00  0.00    +0.000 C 
ATOM     12  C   UNK A   2      -1.838  12.462  19.708  0.00  0.00    +0.000 C 
ATOM     13  C   UNK A   2      -3.300  12.625  20.149  0.00  0.00    +0.000 C 
ATOM     14  O   UNK A   2      -3.604  13.326  21.115  0.00  0.00    +0.000 OA
ATOM     15  N   PRO A   1      -4.251  12.032  19.361  0.00  0.00    +0.000 N 
ATOM     16  CD  PRO A   1      -5.661  12.369  19.463  0.00  0.00    +0.000 C 
ATOM     17  CG  PRO A   1      -6.240  12.002  18.098  0.00  0.00    +0.000 C 
ATOM     18  CB  PRO A   1      -5.011  11.983  17.184  0.00  0.00    +0.000 C 
ATOM     19  CA  PRO A   1      -3.965  11.366  18.106  0.00  0.00    +0.000 C 
ATOM     20  C   PRO A   1      -2.532  11.391  17.573  0.00  0.00    +0.000 C 
ATOM     21  O   PRO A   1      -2.277  11.052  16.418  0.00  0.00    +0.000 OA
ATOM     22  N   UNK A   2      -1.568  11.555  18.558  0.00  0.00    +0.000 N 
ATOM     23  H   UNK A   2       2.467  12.138  17.468  0.00  0.00    +0.000 HD
ENDROOT
BRANCH   1  26
ATOM     24  C   UNK A   2       0.381   8.871  21.168  0.00  0.00    +0.000 A 
ATOM     25  C   UNK A   2      -0.064   9.957  20.398  0.00  0.00    +0.000 A 
ATOM     26  C   UNK A   2       0.399  10.182  19.092  0.00  0.00    +0.000 A 
ATOM     27  C   UNK A   2       1.359   9.298  18.578  0.00  0.00    +0.000 A 
ATOM     28  C   UNK A   2       1.835   8.217  19.336  0.00  0.00    +0.000 A 
ATOM     29  C   UNK A   2       1.334   7.998  20.627  0.00  0.00    +0.000 A 
BRANCH  24  31
ATOM     30  C   UNK A   2      -0.494  10.099  23.036  0.00  0.00    +0.000 C 
ATOM     31  O   UNK A   2      -0.193   8.861  22.414  0.00  0.00    +0.000 OA
ENDBRANCH  24  31
BRANCH  28  32
ATOM     32  O   UNK A   2       2.862   7.533  18.736  0.00  0.00    +0.000 OA
ATOM     33  C   UNK A   2       2.598   6.225  18.246  0.00  0.00    +0.000 C 
ENDBRANCH  28  32
BRANCH  29  34
ATOM     34  O   UNK A   2       1.810   6.976  21.394  0.00  0.00    +0.000 OA
ATOM     35  H   UNK A   2       1.107   6.792  22.034  0.00  0.00    +0.000 HD
ENDBRANCH  29  34
ENDBRANCH   1  26
TORSDOF 4
ENDMDL
MODEL 3
REMARK VINA RESULT:      -7.9      1.709      5.702
REMARK  Name = 
REMARK  6 active torsions:
REMARK  status: ('A' for Active; 'I' for Inactive)
REMARK    1  A    between atoms: C_1  and  O_2
REMARK    2  A    between atoms: O_2  and  C_3
REMARK    3  A    between atoms: C_5  and  C_6
REMARK    4  A    between atoms: C_29  and  O_30
REMARK    5  A    between atoms: O_30  and  C_31
REMARK    6  A    between atoms: C_32  and  O_33
REMARK                            x       y       z     vdW  Elec       q    Type
REMARK                         _______ _______ _______ _____ _____    ______ ____
ROOT
ATOM      1  C   UNK A   2      -1.048  12.160  19.870  0.00  0.00    +0.000 C 
ATOM      2  C   UNK A   2      -0.170  13.331  19.520  0.00  0.00    +0.000 A 
ATOM      3  N   UNK A   2      -0.505  14.646  19.706  0.00  0.00    +0.000 N 
ATOM      4  C   UNK A   2       0.488  15.458  19.203  0.00  0.00    +0.000 A 
ATOM      5  C   UNK A   2       0.563  16.856  19.139  0.00  0.00    +0.000 A 
ATOM      6  C   UNK A   2       1.702  17.420  18.556  0.00  0.00    +0.000 A 
ATOM      7  C   UNK A   2       2.727  16.616  18.058  0.00  0.00    +0.000 A 
ATOM      8  C   UNK A   2       2.638  15.222  18.131  0.00  0.00    +0.000 A 
ATOM      9  C   UNK A   2       1.500  14.630  18.711  0.00  0.00    +0.000 A 
ATOM     10  C   UNK A   2       1.078  13.290  18.929  0.00  0.00    +0.000 A 
ATOM     11  C   UNK A   2       1.743  11.996  18.603  0.00  0.00    +0.000 C 
ATOM     12  C   UNK A   2       0.696  10.853  18.581  0.00  0.00    +0.000 C 
ATOM     13  C   UNK A   2       1.448   9.531  18.371  0.00  0.00    +0.000 C 
ATOM     14  O   UNK A   2       2.205   9.369  17.413  0.00  0.00    +0.000 OA
ATOM     15  N   PRO A   1       1.308   8.581  19.349  0.00  0.00    +0.000 N 
ATOM     16  CD  PRO A   1       2.199   7.437  19.450  0.00  0.00    +0.000 C 
ATOM     17  CG  PRO A   1       2.115   7.018  20.916  0.00  0.00    +0.000 C 
ATOM     18  CB  PRO A   1       1.594   8.276  21.617  0.00  0.00    +0.000 C 
ATOM     19  CA  PRO A   1       0.592   8.794  20.591  0.00  0.00    +0.000 C 
ATOM     20  C   PRO A   1       0.024  10.184  20.880  0.00  0.00    +0.000 C 
ATOM     21  O   PRO A   1      -0.383  10.483  22.002  0.00  0.00    +0.000 OA
ATOM     22  N   UNK A   2      -0.234  10.935  19.742  0.00  0.00    +0.000 N 
ATOM     23  H   UNK A   2      -1.369  14.983  20.112  0.00  0.00    +0.000 HD
ENDROOT
BRANCH   1  26
ATOM     24  C   UNK A   2      -3.407  11.488  16.887  0.00  0.00    +0.000 A 
ATOM     25  C   UNK A   2      -2.247  11.686  17.652  0.00  0.00    +0.000 A 
ATOM     26  C   UNK A   2      -2.302  12.041  19.009  0.00  0.00    +0.000 A 
ATOM     27  C   UNK A   2      -3.568  12.227  19.584  0.00  0.00    +0.000 A 
ATOM     28  C   UNK A   2      -4.742  12.055  18.835  0.00  0.00    +0.000 A 
ATOM     29  C   UNK A   2      -4.658  11.672  17.488  0.00  0.00    +0.000 A 
BRANCH  24  31
ATOM     30  C   UNK A   2      -3.035   9.796  15.224  0.00  0.00    +0.000 C 
ATOM     31  O   UNK A   2      -3.111  11.165  15.587  0.00  0.00    +0.000 OA
ENDBRANCH  24  31
BRANCH  28  32
ATOM     32  O   UNK A   2      -5.884  12.404  19.511  0.00  0.00    +0.000 OA
ATOM     33  C   UNK A   2      -5.869  12.330  20.932  0.00  0.00    +0.000 C 
ENDBRANCH  28  32
BRANCH  29  34
ATOM     34  O   UNK A   2      -5.786  11.536  16.732  0.00  0.00    +0.000 OA
ATOM     35  H   UNK A   2      -6.477  11.270  17.356  0.00  0.00    +0.000 HD
ENDBRANCH  29  34
ENDBRANCH   1  26
TORSDOF 4
ENDMDL
MODEL 4
REMARK VINA RESULT:      -7.9      1.759      6.155
REMARK  Name = 
REMARK  6 active torsions:
REMARK  status: ('A' for Active; 'I' for Inactive)
REMARK    1  A    between atoms: C_1  and  O_2
REMARK    2  A    between atoms: O_2  and  C_3
REMARK    3  A    between atoms: C_5  and  C_6
REMARK    4  A    between atoms: C_29  and  O_30
REMARK    5  A    between atoms: O_30  and  C_31
REMARK    6  A    between atoms: C_32  and  O_33
REMARK                            x       y       z     vdW  Elec       q    Type
REMARK                         _______ _______ _______ _____ _____    ______ ____
ROOT
ATOM      1  C   UNK A   2      -1.551  12.333  20.074  0.00  0.00    +0.000 C 
ATOM      2  C   UNK A   2      -0.764  13.563  19.712  0.00  0.00    +0.000 A 
ATOM      3  N   UNK A   2      -1.184  14.851  19.913  0.00  0.00    +0.000 N 
ATOM      4  C   UNK A   2      -0.261  15.732  19.395  0.00  0.00    +0.000 A 
ATOM      5  C   UNK A   2      -0.284  17.132  19.338  0.00  0.00    +0.000 A 
ATOM      6  C   UNK A   2       0.802  17.776  18.736  0.00  0.00    +0.000 A 
ATOM      7  C   UNK A   2       1.870  17.047  18.213  0.00  0.00    +0.000 A 
ATOM      8  C   UNK A   2       1.879  15.650  18.279  0.00  0.00    +0.000 A 
ATOM      9  C   UNK A   2       0.796  14.978  18.878  0.00  0.00    +0.000 A 
ATOM     10  C   UNK A   2       0.472  13.611  19.097  0.00  0.00    +0.000 A 
ATOM     11  C   UNK A   2       1.218  12.368  18.751  0.00  0.00    +0.000 C 
ATOM     12  C   UNK A   2       0.252  11.155  18.743  0.00  0.00    +0.000 C 
ATOM     13  C   UNK A   2       1.090   9.889  18.510  0.00  0.00    +0.000 C 
ATOM     14  O   UNK A   2       1.836   9.784  17.536  0.00  0.00    +0.000 OA
ATOM     15  N   PRO A   1       1.035   8.927  19.485  0.00  0.00    +0.000 N 
ATOM     16  CD  PRO A   1       2.005   7.848  19.562  0.00  0.00    +0.000 C 
ATOM     17  CG  PRO A   1       1.980   7.417  21.027  0.00  0.00    +0.000 C 
ATOM     18  CB  PRO A   1       1.387   8.633  21.745  0.00  0.00    +0.000 C 
ATOM     19  CA  PRO A   1       0.332   9.085  20.742  0.00  0.00    +0.000 C 
ATOM     20  C   PRO A   1      -0.326  10.431  21.050  0.00  0.00    +0.000 C 
ATOM     21  O   PRO A   1      -0.729  10.697  22.182  0.00  0.00    +0.000 OA
ATOM     22  N   UNK A   2      -0.657  11.167  19.922  0.00  0.00    +0.000 N 
ATOM     23  H   UNK A   2      -2.062  15.125  20.338  0.00  0.00    +0.000 HD
ENDROOT
BRANCH   1  26
ATOM     24  C   UNK A   2      -5.242  12.306  18.934  0.00  0.00    +0.000 A 
ATOM     25  C   UNK A   2      -4.094  12.406  19.737  0.00  0.00    +0.000 A 
ATOM     26  C   UNK A   2      -2.811  12.131  19.236  0.00  0.00    +0.000 A 
ATOM     27  C   UNK A   2      -2.707  11.716  17.900  0.00  0.00    +0.000 A 
ATOM     28  C   UNK A   2      -3.841  11.589  17.085  0.00  0.00    +0.000 A 
ATOM     29  C   UNK A   2      -5.107  11.898  17.602  0.00  0.00    +0.000 A 
BRANCH  24  31
ATOM     30  C   UNK A   2      -6.985  11.587  20.420  0.00  0.00    +0.000 C 
ATOM     31  O   UNK A   2      -6.381  12.604  19.638  0.00  0.00    +0.000 OA
ENDBRANCH  24  31
BRANCH  28  32
ATOM     32  O   UNK A   2      -3.576  11.048  15.852  0.00  0.00    +0.000 OA
ATOM     33  C   UNK A   2      -2.768   9.879  15.794  0.00  0.00    +0.000 C 
ENDBRANCH  28  32
BRANCH  29  34
ATOM     34  O   UNK A   2      -6.227  11.745  16.837  0.00  0.00    +0.000 OA
ATOM     35  H   UNK A   2      -6.630  10.919  17.142  0.00  0.00    +0.000 HD
ENDBRANCH  29  34
ENDBRANCH   1  26
TORSDOF 4
ENDMDL
MODEL 5
REMARK VINA RESULT:      -7.8      1.826      5.792
REMARK  Name = 
REMARK  6 active torsions:
REMARK  status: ('A' for Active; 'I' for Inactive)
REMARK    1  A    between atoms: C_1  and  O_2
REMARK    2  A    between atoms: O_2  and  C_3
REMARK    3  A    between atoms: C_5  and  C_6
REMARK    4  A    between atoms: C_29  and  O_30
REMARK    5  A    between atoms: O_30  and  C_31
REMARK    6  A    between atoms: C_32  and  O_33
REMARK                            x       y       z     vdW  Elec       q    Type
REMARK                         _______ _______ _______ _____ _____    ______ ____
ROOT
ATOM      1  C   UNK A   2      -1.868  12.552  20.280  0.00  0.00    +0.000 C 
ATOM      2  C   UNK A   2      -1.110  13.791  19.887  0.00  0.00    +0.000 A 
ATOM      3  N   UNK A   2      -1.549  15.074  20.080  0.00  0.00    +0.000 N 
ATOM      4  C   UNK A   2      -0.651  15.964  19.531  0.00  0.00    +0.000 A 
ATOM      5  C   UNK A   2      -0.700  17.362  19.457  0.00  0.00    +0.000 A 
ATOM      6  C   UNK A   2       0.361  18.017  18.824  0.00  0.00    +0.000 A 
ATOM      7  C   UNK A   2       1.431  17.300  18.289  0.00  0.00    +0.000 A 
ATOM      8  C   UNK A   2       1.466  15.904  18.374  0.00  0.00    +0.000 A 
ATOM      9  C   UNK A   2       0.409  15.221  19.003  0.00  0.00    +0.000 A 
ATOM     10  C   UNK A   2       0.113  13.852  19.247  0.00  0.00    +0.000 A 
ATOM     11  C   UNK A   2       0.874  12.618  18.901  0.00  0.00    +0.000 C 
ATOM     12  C   UNK A   2      -0.071  11.388  18.929  0.00  0.00    +0.000 C 
ATOM     13  C   UNK A   2       0.784  10.134  18.696  0.00  0.00    +0.000 C 
ATOM     14  O   UNK A   2       1.513  10.029  17.709  0.00  0.00    +0.000 OA
ATOM     15  N   PRO A   1       0.766   9.185  19.684  0.00  0.00    +0.000 N 
ATOM     16  CD  PRO A   1       1.756   8.123  19.755  0.00  0.00    +0.000 C 
ATOM     17  CG  PRO A   1       1.768   7.712  21.226  0.00  0.00    +0.000 C 
ATOM     18  CB  PRO A   1       1.168   8.926  21.940  0.00  0.00    +0.000 C 
ATOM     19  CA  PRO A   1       0.085   9.347  20.953  0.00  0.00    +0.000 C 
ATOM     20  C   PRO A   1      -0.589  10.686  21.257  0.00  0.00    +0.000 C 
ATOM     21  O   PRO A   1      -0.975  10.959  22.393  0.00  0.00    +0.000 OA
ATOM     22  N   UNK A   2      -0.956  11.400  20.126  0.00  0.00    +0.000 N 
ATOM     23  H   UNK A   2      -2.422  15.339  20.518  0.00  0.00    +0.000 HD
ENDROOT
BRANCH   1  26
ATOM     24  C   UNK A   2      -4.295  11.447  17.487  0.00  0.00    +0.000 A 
ATOM     25  C   UNK A   2      -3.117  11.746  18.189  0.00  0.00    +0.000 A 
ATOM     26  C   UNK A   2      -3.140  12.317  19.472  0.00  0.00    +0.000 A 
ATOM     27  C   UNK A   2      -4.392  12.616  20.030  0.00  0.00    +0.000 A 
ATOM     28  C   UNK A   2      -5.583  12.346  19.340  0.00  0.00    +0.000 A 
ATOM     29  C   UNK A   2      -5.532  11.749  18.072  0.00  0.00    +0.000 A 
BRANCH  24  31
ATOM     30  C   UNK A   2      -2.679  10.785  15.840  0.00  0.00    +0.000 C 
ATOM     31  O   UNK A   2      -4.030  10.913  16.252  0.00  0.00    +0.000 OA
ENDBRANCH  24  31
BRANCH  28  32
ATOM     32  O   UNK A   2      -6.705  12.820  19.970  0.00  0.00    +0.000 OA
ATOM     33  C   UNK A   2      -7.155  12.141  21.136  0.00  0.00    +0.000 C 
ENDBRANCH  28  32
BRANCH  29  34
ATOM     34  O   UNK A   2      -6.676  11.512  17.368  0.00  0.00    +0.000 OA
ATOM     35  H   UNK A   2      -7.396  11.721  17.980  0.00  0.00    +0.000 HD
ENDBRANCH  29  34
ENDBRANCH   1  26
TORSDOF 4
ENDMDL
MODEL 6
REMARK VINA RESULT:      -7.7      2.764      6.505
REMARK  Name = 
REMARK  6 active torsions:
REMARK  status: ('A' for Active; 'I' for Inactive)
REMARK    1  A    between atoms: C_1  and  O_2
REMARK    2  A    between atoms: O_2  and  C_3
REMARK    3  A    between atoms: C_5  and  C_6
REMARK    4  A    between atoms: C_29  and  O_30
REMARK    5  A    between atoms: O_30  and  C_31
REMARK    6  A    between atoms: C_32  and  O_33
REMARK                            x       y       z     vdW  Elec       q    Type
REMARK                         _______ _______ _______ _____ _____    ______ ____
ROOT
ATOM      1  C   UNK A   2      -1.083  12.324  18.956  0.00  0.00    +0.000 C 
ATOM      2  C   UNK A   2      -0.184  11.120  19.027  0.00  0.00    +0.000 A 
ATOM      3  N   UNK A   2       0.254  10.404  17.945  0.00  0.00    +0.000 N 
ATOM      4  C   UNK A   2       0.990   9.319  18.368  0.00  0.00    +0.000 A 
ATOM      5  C   UNK A   2       1.600   8.298  17.625  0.00  0.00    +0.000 A 
ATOM      6  C   UNK A   2       2.286   7.304  18.329  0.00  0.00    +0.000 A 
ATOM      7  C   UNK A   2       2.361   7.330  19.722  0.00  0.00    +0.000 A 
ATOM      8  C   UNK A   2       1.749   8.357  20.448  0.00  0.00    +0.000 A 
ATOM      9  C   UNK A   2       1.050   9.369  19.763  0.00  0.00    +0.000 A 
ATOM     10  C   UNK A   2       0.316  10.518  20.165  0.00  0.00    +0.000 A 
ATOM     11  C   UNK A   2       0.035  11.065  21.523  0.00  0.00    +0.000 C 
ATOM     12  C   UNK A   2      -1.188  12.017  21.468  0.00  0.00    +0.000 C 
ATOM     13  C   UNK A   2      -1.354  12.651  22.857  0.00  0.00    +0.000 C 
ATOM     14  O   UNK A   2      -1.460  11.957  23.869  0.00  0.00    +0.000 OA
ATOM     15  N   PRO A   1      -1.283  14.018  22.922  0.00  0.00    +0.000 N 
ATOM     16  CD  PRO A   1      -1.095  14.723  24.179  0.00  0.00    +0.000 C 
ATOM     17  CG  PRO A   1      -0.474  16.059  23.775  0.00  0.00    +0.000 C 
ATOM     18  CB  PRO A   1       0.111  15.776  22.389  0.00  0.00    +0.000 C 
ATOM     19  CA  PRO A   1      -0.961  14.869  21.794  0.00  0.00    +0.000 C 
ATOM     20  C   PRO A   1      -0.593  14.212  20.463  0.00  0.00    +0.000 C 
ATOM     21  O   PRO A   1      -0.091  14.866  19.550  0.00  0.00    +0.000 OA
ATOM     22  N   UNK A   2      -1.117  12.938  20.300  0.00  0.00    +0.000 N 
ATOM     23  H   UNK A   2       0.037  10.606  16.977  0.00  0.00    +0.000 HD
ENDROOT
BRANCH   1  26
ATOM     24  C   UNK A   2      -4.934  12.046  18.845  0.00  0.00    +0.000 A 
ATOM     25  C   UNK A   2      -3.623  12.245  19.308  0.00  0.00    +0.000 A 
ATOM     26  C   UNK A   2      -2.504  12.016  18.493  0.00  0.00    +0.000 A 
ATOM     27  C   UNK A   2      -2.730  11.543  17.191  0.00  0.00    +0.000 A 
ATOM     28  C   UNK A   2      -4.029  11.317  16.713  0.00  0.00    +0.000 A 
ATOM     29  C   UNK A   2      -5.131  11.582  17.539  0.00  0.00    +0.000 A 
BRANCH  24  31
ATOM     30  C   UNK A   2      -5.416  12.547  21.143  0.00  0.00    +0.000 C 
ATOM     31  O   UNK A   2      -5.863  12.316  19.817  0.00  0.00    +0.000 OA
ENDBRANCH  24  31
BRANCH  28  32
ATOM     32  O   UNK A   2      -4.066  10.733  15.472  0.00  0.00    +0.000 OA
ATOM     33  C   UNK A   2      -2.865  10.164  14.964  0.00  0.00    +0.000 C 
ENDBRANCH  28  32
BRANCH  29  34
ATOM     34  O   UNK A   2      -6.401  11.333  17.106  0.00  0.00    +0.000 OA
ATOM     35  H   UNK A   2      -6.930  11.253  17.912  0.00  0.00    +0.000 HD
ENDBRANCH  29  34
ENDBRANCH   1  26
TORSDOF 4
ENDMDL
MODEL 7
REMARK VINA RESULT:      -7.7      2.738      6.088
REMARK  Name = 
REMARK  6 active torsions:
REMARK  status: ('A' for Active; 'I' for Inactive)
REMARK    1  A    between atoms: C_1  and  O_2
REMARK    2  A    between atoms: O_2  and  C_3
REMARK    3  A    between atoms: C_5  and  C_6
REMARK    4  A    between atoms: C_29  and  O_30
REMARK    5  A    between atoms: O_30  and  C_31
REMARK    6  A    between atoms: C_32  and  O_33
REMARK                            x       y       z     vdW  Elec       q    Type
REMARK                         _______ _______ _______ _____ _____    ______ ____
ROOT
ATOM      1  C   UNK A   2      -0.971  12.326  18.899  0.00  0.00    +0.000 C 
ATOM      2  C   UNK A   2      -0.097  11.104  18.989  0.00  0.00    +0.000 A 
ATOM      3  N   UNK A   2       0.350  10.379  17.916  0.00  0.00    +0.000 N 
ATOM      4  C   UNK A   2       1.055   9.280  18.355  0.00  0.00    +0.000 A 
ATOM      5  C   UNK A   2       1.661   8.248  17.626  0.00  0.00    +0.000 A 
ATOM      6  C   UNK A   2       2.311   7.240  18.344  0.00  0.00    +0.000 A 
ATOM      7  C   UNK A   2       2.355   7.264  19.738  0.00  0.00    +0.000 A 
ATOM      8  C   UNK A   2       1.748   8.303  20.451  0.00  0.00    +0.000 A 
ATOM      9  C   UNK A   2       1.085   9.329  19.751  0.00  0.00    +0.000 A 
ATOM     10  C   UNK A   2       0.365  10.492  20.138  0.00  0.00    +0.000 A 
ATOM     11  C   UNK A   2       0.064  11.045  21.489  0.00  0.00    +0.000 C 
ATOM     12  C   UNK A   2      -1.137  12.021  21.407  0.00  0.00    +0.000 C 
ATOM     13  C   UNK A   2      -1.322  12.657  22.793  0.00  0.00    +0.000 C 
ATOM     14  O   UNK A   2      -1.463  11.966  23.802  0.00  0.00    +0.000 OA
ATOM     15  N   PRO A   1      -1.225  14.023  22.860  0.00  0.00    +0.000 N 
ATOM     16  CD  PRO A   1      -1.051  14.724  24.121  0.00  0.00    +0.000 C 
ATOM     17  CG  PRO A   1      -0.395  16.048  23.732  0.00  0.00    +0.000 C 
ATOM     18  CB  PRO A   1       0.215  15.753  22.359  0.00  0.00    +0.000 C 
ATOM     19  CA  PRO A   1      -0.861  14.867  21.741  0.00  0.00    +0.000 C 
ATOM     20  C   PRO A   1      -0.477  14.204  20.417  0.00  0.00    +0.000 C 
ATOM     21  O   PRO A   1       0.059  14.848  19.516  0.00  0.00    +0.000 OA
ATOM     22  N   UNK A   2      -1.022  12.941  20.242  0.00  0.00    +0.000 N 
ATOM     23  H   UNK A   2       0.158  10.586  16.944  0.00  0.00    +0.000 HD
ENDROOT
BRANCH   1  26
ATOM     24  C   UNK A   2      -3.940  11.207  16.697  0.00  0.00    +0.000 A 
ATOM     25  C   UNK A   2      -2.644  11.550  17.116  0.00  0.00    +0.000 A 
ATOM     26  C   UNK A   2      -2.387  12.046  18.404  0.00  0.00    +0.000 A 
ATOM     27  C   UNK A   2      -3.479  12.223  19.266  0.00  0.00    +0.000 A 
ATOM     28  C   UNK A   2      -4.785  11.907  18.863  0.00  0.00    +0.000 A 
ATOM     29  C   UNK A   2      -5.011  11.387  17.581  0.00  0.00    +0.000 A 
BRANCH  24  31
ATOM     30  C   UNK A   2      -2.817  10.076  14.901  0.00  0.00    +0.000 C 
ATOM     31  O   UNK A   2      -3.953  10.763  15.399  0.00  0.00    +0.000 OA
ENDBRANCH  24  31
BRANCH  28  32
ATOM     32  O   UNK A   2      -5.745  12.263  19.776  0.00  0.00    +0.000 OA
ATOM     33  C   UNK A   2      -5.317  12.741  21.046  0.00  0.00    +0.000 C 
ENDBRANCH  28  32
BRANCH  29  34
ATOM     34  O   UNK A   2      -6.278  11.108  17.156  0.00  0.00    +0.000 OA
ATOM     35  H   UNK A   2      -6.789  11.908  17.348  0.00  0.00    +0.000 HD
ENDBRANCH  29  34
ENDBRANCH   1  26
TORSDOF 4
ENDMDL
MODEL 8
REMARK VINA RESULT:      -7.5      3.712      6.494
REMARK  Name = 
REMARK  6 active torsions:
REMARK  status: ('A' for Active; 'I' for Inactive)
REMARK    1  A    between atoms: C_1  and  O_2
REMARK    2  A    between atoms: O_2  and  C_3
REMARK    3  A    between atoms: C_5  and  C_6
REMARK    4  A    between atoms: C_29  and  O_30
REMARK    5  A    between atoms: O_30  and  C_31
REMARK    6  A    between atoms: C_32  and  O_33
REMARK                            x       y       z     vdW  Elec       q    Type
REMARK                         _______ _______ _______ _____ _____    ______ ____
ROOT
ATOM      1  C   UNK A   2      -2.601  12.870  21.327  0.00  0.00    +0.000 C 
ATOM      2  C   UNK A   2      -2.816  12.180  20.007  0.00  0.00    +0.000 A 
ATOM      3  N   UNK A   2      -1.889  11.398  19.371  0.00  0.00    +0.000 N 
ATOM      4  C   UNK A   2      -2.378  10.992  18.149  0.00  0.00    +0.000 A 
ATOM      5  C   UNK A   2      -1.774  10.217  17.149  0.00  0.00    +0.000 A 
ATOM      6  C   UNK A   2      -2.512   9.964  15.989  0.00  0.00    +0.000 A 
ATOM      7  C   UNK A   2      -3.806  10.464  15.836  0.00  0.00    +0.000 A 
ATOM      8  C   UNK A   2      -4.395  11.233  16.845  0.00  0.00    +0.000 A 
ATOM      9  C   UNK A   2      -3.672  11.505  18.021  0.00  0.00    +0.000 A 
ATOM     10  C   UNK A   2      -3.940  12.242  19.207  0.00  0.00    +0.000 A 
ATOM     11  C   UNK A   2      -5.149  13.009  19.621  0.00  0.00    +0.000 C 
ATOM     12  C   UNK A   2      -4.779  14.019  20.737  0.00  0.00    +0.000 C 
ATOM     13  C   UNK A   2      -6.077  14.687  21.216  0.00  0.00    +0.000 C 
ATOM     14  O   UNK A   2      -6.834  15.255  20.428  0.00  0.00    +0.000 OA
ATOM     15  N   PRO A   1      -6.394  14.537  22.541  0.00  0.00    +0.000 N 
ATOM     16  CD  PRO A   1      -7.722  14.823  23.056  0.00  0.00    +0.000 C 
ATOM     17  CG  PRO A   1      -7.826  13.985  24.328  0.00  0.00    +0.000 C 
ATOM     18  CB  PRO A   1      -6.754  12.909  24.133  0.00  0.00    +0.000 C 
ATOM     19  CA  PRO A   1      -5.643  13.713  23.466  0.00  0.00    +0.000 C 
ATOM     20  C   PRO A   1      -4.473  12.887  22.930  0.00  0.00    +0.000 C 
ATOM     21  O   PRO A   1      -3.955  12.003  23.611  0.00  0.00    +0.000 OA
ATOM     22  N   UNK A   2      -3.906  13.401  21.773  0.00  0.00    +0.000 N 
ATOM     23  H   UNK A   2      -0.962  11.182  19.717  0.00  0.00    +0.000 HD
ENDROOT
BRANCH   1  26
ATOM     24  C   UNK A   2      -0.320  15.716  20.056  0.00  0.00    +0.000 A 
ATOM     25  C   UNK A   2      -1.197  14.620  20.082  0.00  0.00    +0.000 A 
ATOM     26  C   UNK A   2      -1.573  13.996  21.283  0.00  0.00    +0.000 A 
ATOM     27  C   UNK A   2      -1.014  14.484  22.474  0.00  0.00    +0.000 A 
ATOM     28  C   UNK A   2      -0.120  15.564  22.472  0.00  0.00    +0.000 A 
ATOM     29  C   UNK A   2       0.216  16.187  21.261  0.00  0.00    +0.000 A 
BRANCH  24  31
ATOM     30  C   UNK A   2      -0.820  17.256  18.284  0.00  0.00    +0.000 C 
ATOM     31  O   UNK A   2      -0.084  16.148  18.776  0.00  0.00    +0.000 OA
ENDBRANCH  24  31
BRANCH  28  32
ATOM     32  O   UNK A   2       0.431  15.826  23.701  0.00  0.00    +0.000 OA
ATOM     33  C   UNK A   2      -0.207  16.792  24.527  0.00  0.00    +0.000 C 
ENDBRANCH  28  32
BRANCH  29  34
ATOM     34  O   UNK A   2       1.113  17.215  21.233  0.00  0.00    +0.000 OA
ATOM     35  H   UNK A   2       1.844  16.896  20.684  0.00  0.00    +0.000 HD
ENDBRANCH  29  34
ENDBRANCH   1  26
TORSDOF 4
ENDMDL
MODEL 9
REMARK VINA RESULT:      -7.5      3.662      6.676
REMARK  Name = 
REMARK  6 active torsions:
REMARK  status: ('A' for Active; 'I' for Inactive)
REMARK    1  A    between atoms: C_1  and  O_2
REMARK    2  A    between atoms: O_2  and  C_3
REMARK    3  A    between atoms: C_5  and  C_6
REMARK    4  A    between atoms: C_29  and  O_30
REMARK    5  A    between atoms: O_30  and  C_31
REMARK    6  A    between atoms: C_32  and  O_33
REMARK                            x       y       z     vdW  Elec       q    Type
REMARK                         _______ _______ _______ _____ _____    ______ ____
ROOT
ATOM      1  C   UNK A   2      -2.574  12.824  21.338  0.00  0.00    +0.000 C 
ATOM      2  C   UNK A   2      -2.790  12.156  20.007  0.00  0.00    +0.000 A 
ATOM      3  N   UNK A   2      -1.854  11.409  19.343  0.00  0.00    +0.000 N 
ATOM      4  C   UNK A   2      -2.351  11.015  18.120  0.00  0.00    +0.000 A 
ATOM      5  C   UNK A   2      -1.743  10.274  17.097  0.00  0.00    +0.000 A 
ATOM      6  C   UNK A   2      -2.491  10.027  15.942  0.00  0.00    +0.000 A 
ATOM      7  C   UNK A   2      -3.797  10.500  15.816  0.00  0.00    +0.000 A 
ATOM      8  C   UNK A   2      -4.390  11.235  16.848  0.00  0.00    +0.000 A 
ATOM      9  C   UNK A   2      -3.657  11.500  18.020  0.00  0.00    +0.000 A 
ATOM     10  C   UNK A   2      -3.927  12.208  19.223  0.00  0.00    +0.000 A 
ATOM     11  C   UNK A   2      -5.147  12.938  19.669  0.00  0.00    +0.000 C 
ATOM     12  C   UNK A   2      -4.785  13.934  20.800  0.00  0.00    +0.000 C 
ATOM     13  C   UNK A   2      -6.091  14.562  21.309  0.00  0.00    +0.000 C 
ATOM     14  O   UNK A   2      -6.872  15.127  20.543  0.00  0.00    +0.000 OA
ATOM     15  N   PRO A   1      -6.386  14.379  22.635  0.00  0.00    +0.000 N 
ATOM     16  CD  PRO A   1      -7.714  14.624  23.173  0.00  0.00    +0.000 C 
ATOM     17  CG  PRO A   1      -7.781  13.758  24.429  0.00  0.00    +0.000 C 
ATOM     18  CB  PRO A   1      -6.687  12.711  24.199  0.00  0.00    +0.000 C 
ATOM     19  CA  PRO A   1      -5.605  13.554  23.534  0.00  0.00    +0.000 C 
ATOM     20  C   PRO A   1      -4.423  12.766  22.965  0.00  0.00    +0.000 C 
ATOM     21  O   PRO A   1      -3.876  11.881  23.621  0.00  0.00    +0.000 OA
ATOM     22  N   UNK A   2      -3.884  13.316  21.812  0.00  0.00    +0.000 N 
ATOM     23  H   UNK A   2      -0.918  11.208  19.673  0.00  0.00    +0.000 HD
ENDROOT
BRANCH   1  26
ATOM     24  C   UNK A   2       0.003  15.488  22.424  0.00  0.00    +0.000 A 
ATOM     25  C   UNK A   2      -0.986  14.493  22.468  0.00  0.00    +0.000 A 
ATOM     26  C   UNK A   2      -1.572  13.975  21.302  0.00  0.00    +0.000 A 
ATOM     27  C   UNK A   2      -1.160  14.509  20.072  0.00  0.00    +0.000 A 
ATOM     28  C   UNK A   2      -0.189  15.519  20.004  0.00  0.00    +0.000 A 
ATOM     29  C   UNK A   2       0.401  15.998  21.182  0.00  0.00    +0.000 A 
BRANCH  24  31
ATOM     30  C   UNK A   2      -0.453  16.632  24.486  0.00  0.00    +0.000 C 
ATOM     31  O   UNK A   2       0.416  15.851  23.681  0.00  0.00    +0.000 OA
ENDBRANCH  24  31
BRANCH  28  32
ATOM     32  O   UNK A   2      -0.001  16.018  18.740  0.00  0.00    +0.000 OA
ATOM     33  C   UNK A   2      -0.791  17.130  18.335  0.00  0.00    +0.000 C 
ENDBRANCH  28  32
BRANCH  29  34
ATOM     34  O   UNK A   2       1.320  17.006  21.140  0.00  0.00    +0.000 OA
ATOM     35  H   UNK A   2       0.853  17.757  20.747  0.00  0.00    +0.000 HD
ENDBRANCH  29  34
ENDBRANCH   1  26
TORSDOF 4
ENDMDL
