MODEL 1
REMARK VINA RESULT:      -8.2      0.000      0.000
REMARK  Name = 
REMARK  5 active torsions:
REMARK  status: ('A' for Active; 'I' for Inactive)
REMARK    1  A    between atoms: C_1  and  C_2
REMARK    2  A    between atoms: C_2  and  C_4
REMARK    3  A    between atoms: C_4  and  C_5
REMARK    4  A    between atoms: C_12  and  C_13
REMARK    5  A    between atoms: C_13  and  C_14
REMARK                            x       y       z     vdW  Elec       q    Type
REMARK                         _______ _______ _______ _____ _____    ______ ____
ROOT
ATOM      1  C   UNL     1       5.725   4.748  16.473  0.00  0.00    +0.000 C 
ATOM      2  N   UNL     1       6.962   4.502  17.268  0.00  0.00    +0.000 NA
ATOM      3  S   UNL     1       7.177   5.568  18.564  0.00  0.00    +0.000 S 
ATOM      4  O   UNL     1       7.389   6.869  17.974  0.00  0.00    +0.000 OA
ATOM      5  O   UNL     1       8.156   4.961  19.431  0.00  0.00    +0.000 OA
ATOM      6  O   UNL     1       5.730   5.552  19.294  0.00  0.00    +0.000 OA
ATOM      7  C   UNL     1       4.587   5.718  18.468  0.00  0.00    +0.000 C 
ATOM      8  C   UNL     1       4.493   4.596  17.417  0.00  0.00    +0.000 C 
ATOM      9  H   UNL     1       7.825   4.523  16.722  0.00  0.00    +0.000 HD
ENDROOT
BRANCH   1  10
ATOM     10  C   UNL     1       5.781   3.849  15.227  0.00  0.00    +0.000 C 
BRANCH  10  12
ATOM     11  C   UNL     1       6.466   3.777  12.745  0.00  0.00    +0.000 C 
ATOM     12  C   UNL     1       6.649   4.394  14.109  0.00  0.00    +0.000 C 
ATOM     13  O   UNL     1       7.513   5.249  14.301  0.00  0.00    +0.000 OA
ENDBRANCH  10  12
ENDBRANCH   1  10
BRANCH   8  14
ATOM     14  C   UNL     1       4.376   3.206  18.094  0.00  0.00    +0.000 C 
BRANCH  14  15
ATOM     15  C   UNL     1       3.252   3.082  19.106  0.00  0.00    +0.000 A 
ATOM     16  C   UNL     1       3.512   2.808  20.457  0.00  0.00    +0.000 A 
ATOM     17  C   UNL     1       2.471   2.748  21.387  0.00  0.00    +0.000 A 
ATOM     18  C   UNL     1       1.154   2.961  20.985  0.00  0.00    +0.000 A 
ATOM     19  C   UNL     1       0.877   3.221  19.645  0.00  0.00    +0.000 A 
ATOM     20  C   UNL     1       1.916   3.277  18.712  0.00  0.00    +0.000 A 
ENDBRANCH  14  15
ENDBRANCH   8  14
TORSDOF 4
ENDMDL
MODEL 2
REMARK VINA RESULT:      -8.1      0.213      1.124
REMARK  Name = 
REMARK  5 active torsions:
REMARK  status: ('A' for Active; 'I' for Inactive)
REMARK    1  A    between atoms: C_1  and  C_2
REMARK    2  A    between atoms: C_2  and  C_4
REMARK    3  A    between atoms: C_4  and  C_5
REMARK    4  A    between atoms: C_12  and  C_13
REMARK    5  A    between atoms: C_13  and  C_14
REMARK                            x       y       z     vdW  Elec       q    Type
REMARK                         _______ _______ _______ _____ _____    ______ ____
ROOT
ATOM      1  C   UNL     1       5.602   4.743  16.304  0.00  0.00    +0.000 C 
ATOM      2  N   UNL     1       6.857   4.439  17.048  0.00  0.00    +0.000 NA
ATOM      3  S   UNL     1       7.175   5.491  18.333  0.00  0.00    +0.000 S 
ATOM      4  O   UNL     1       7.423   6.782  17.735  0.00  0.00    +0.000 OA
ATOM      5  O   UNL     1       8.159   4.838  19.160  0.00  0.00    +0.000 OA
ATOM      6  O   UNL     1       5.759   5.541  19.121  0.00  0.00    +0.000 OA
ATOM      7  C   UNL     1       4.592   5.762  18.342  0.00  0.00    +0.000 C 
ATOM      8  C   UNL     1       4.403   4.647  17.297  0.00  0.00    +0.000 C 
ATOM      9  H   UNL     1       7.698   4.419  16.467  0.00  0.00    +0.000 HD
ENDROOT
BRANCH   1  10
ATOM     10  C   UNL     1       5.566   3.844  15.057  0.00  0.00    +0.000 C 
BRANCH  10  12
ATOM     11  C   UNL     1       6.322   3.594  12.607  0.00  0.00    +0.000 C 
ATOM     12  C   UNL     1       6.449   4.324  13.922  0.00  0.00    +0.000 C 
ATOM     13  O   UNL     1       7.282   5.217  14.065  0.00  0.00    +0.000 OA
ENDBRANCH  10  12
ENDBRANCH   1  10
BRANCH   8  14
ATOM     14  C   UNL     1       4.250   3.264  17.978  0.00  0.00    +0.000 C 
BRANCH  14  15
ATOM     15  C   UNL     1       3.175   3.195  19.048  0.00  0.00    +0.000 A 
ATOM     16  C   UNL     1       1.827   3.442  18.745  0.00  0.00    +0.000 A 
ATOM     17  C   UNL     1       0.841   3.325  19.729  0.00  0.00    +0.000 A 
ATOM     18  C   UNL     1       1.183   2.959  21.029  0.00  0.00    +0.000 A 
ATOM     19  C   UNL     1       2.518   2.724  21.349  0.00  0.00    +0.000 A 
ATOM     20  C   UNL     1       3.506   2.845  20.368  0.00  0.00    +0.000 A 
ENDBRANCH  14  15
ENDBRANCH   8  14
TORSDOF 4
ENDMDL
MODEL 3
REMARK VINA RESULT:      -7.7      2.313      3.532
REMARK  Name = 
REMARK  5 active torsions:
REMARK  status: ('A' for Active; 'I' for Inactive)
REMARK    1  A    between atoms: C_1  and  C_2
REMARK    2  A    between atoms: C_2  and  C_4
REMARK    3  A    between atoms: C_4  and  C_5
REMARK    4  A    between atoms: C_12  and  C_13
REMARK    5  A    between atoms: C_13  and  C_14
REMARK                            x       y       z     vdW  Elec       q    Type
REMARK                         _______ _______ _______ _____ _____    ______ ____
ROOT
ATOM      1  C   UNL     1       4.801   6.099  17.931  0.00  0.00    +0.000 C 
ATOM      2  N   UNL     1       5.444   5.525  16.716  0.00  0.00    +0.000 NA
ATOM      3  S   UNL     1       7.134   5.477  16.782  0.00  0.00    +0.000 S 
ATOM      4  O   UNL     1       7.567   6.855  16.794  0.00  0.00    +0.000 OA
ATOM      5  O   UNL     1       7.556   4.559  15.753  0.00  0.00    +0.000 OA
ATOM      6  O   UNL     1       7.424   4.824  18.237  0.00  0.00    +0.000 OA
ATOM      7  C   UNL     1       6.721   5.370  19.343  0.00  0.00    +0.000 C 
ATOM      8  C   UNL     1       5.199   5.226  19.161  0.00  0.00    +0.000 C 
ATOM      9  H   UNL     1       5.196   5.996  15.844  0.00  0.00    +0.000 HD
ENDROOT
BRANCH   1  10
ATOM     10  C   UNL     1       3.302   6.267  17.634  0.00  0.00    +0.000 C 
BRANCH  10  12
ATOM     11  C   UNL     1       2.310   8.641  17.749  0.00  0.00    +0.000 C 
ATOM     12  C   UNL     1       2.625   7.346  18.456  0.00  0.00    +0.000 C 
ATOM     13  O   UNL     1       2.397   7.216  19.658  0.00  0.00    +0.000 OA
ENDBRANCH  10  12
ENDBRANCH   1  10
BRANCH   8  14
ATOM     14  C   UNL     1       4.789   3.736  19.043  0.00  0.00    +0.000 C 
BRANCH  14  15
ATOM     15  C   UNL     1       3.335   3.447  19.366  0.00  0.00    +0.000 A 
ATOM     16  C   UNL     1       2.731   3.948  20.529  0.00  0.00    +0.000 A 
ATOM     17  C   UNL     1       1.376   3.717  20.787  0.00  0.00    +0.000 A 
ATOM     18  C   UNL     1       0.603   2.984  19.889  0.00  0.00    +0.000 A 
ATOM     19  C   UNL     1       1.191   2.468  18.737  0.00  0.00    +0.000 A 
ATOM     20  C   UNL     1       2.546   2.694  18.479  0.00  0.00    +0.000 A 
ENDBRANCH  14  15
ENDBRANCH   8  14
TORSDOF 4
ENDMDL
MODEL 4
REMARK VINA RESULT:      -7.7      2.310      3.608
REMARK  Name = 
REMARK  5 active torsions:
REMARK  status: ('A' for Active; 'I' for Inactive)
REMARK    1  A    between atoms: C_1  and  C_2
REMARK    2  A    between atoms: C_2  and  C_4
REMARK    3  A    between atoms: C_4  and  C_5
REMARK    4  A    between atoms: C_12  and  C_13
REMARK    5  A    between atoms: C_13  and  C_14
REMARK                            x       y       z     vdW  Elec       q    Type
REMARK                         _______ _______ _______ _____ _____    ______ ____
ROOT
ATOM      1  C   UNL     1       4.811   6.134  17.878  0.00  0.00    +0.000 C 
ATOM      2  N   UNL     1       5.465   5.534  16.681  0.00  0.00    +0.000 NA
ATOM      3  S   UNL     1       7.153   5.473  16.770  0.00  0.00    +0.000 S 
ATOM      4  O   UNL     1       7.598   6.848  16.766  0.00  0.00    +0.000 OA
ATOM      5  O   UNL     1       7.580   4.536  15.762  0.00  0.00    +0.000 OA
ATOM      6  O   UNL     1       7.418   4.842  18.240  0.00  0.00    +0.000 OA
ATOM      7  C   UNL     1       6.706   5.412  19.328  0.00  0.00    +0.000 C 
ATOM      8  C   UNL     1       5.185   5.278  19.127  0.00  0.00    +0.000 C 
ATOM      9  H   UNL     1       5.232   5.993  15.798  0.00  0.00    +0.000 HD
ENDROOT
BRANCH   1  10
ATOM     10  C   UNL     1       3.317   6.309  17.559  0.00  0.00    +0.000 C 
BRANCH  10  12
ATOM     11  C   UNL     1       2.221   7.507  19.559  0.00  0.00    +0.000 C 
ATOM     12  C   UNL     1       2.705   7.573  18.131  0.00  0.00    +0.000 C 
ATOM     13  O   UNL     1       2.541   8.590  17.460  0.00  0.00    +0.000 OA
ENDBRANCH  10  12
ENDBRANCH   1  10
BRANCH   8  14
ATOM     14  C   UNL     1       4.764   3.790  19.029  0.00  0.00    +0.000 C 
BRANCH  14  15
ATOM     15  C   UNL     1       3.299   3.520  19.319  0.00  0.00    +0.000 A 
ATOM     16  C   UNL     1       2.510   2.755  18.447  0.00  0.00    +0.000 A 
ATOM     17  C   UNL     1       1.176   2.472  18.752  0.00  0.00    +0.000 A 
ATOM     18  C   UNL     1       0.608   2.946  19.933  0.00  0.00    +0.000 A 
ATOM     19  C   UNL     1       1.373   3.719  20.803  0.00  0.00    +0.000 A 
ATOM     20  C   UNL     1       2.706   4.007  20.496  0.00  0.00    +0.000 A 
ENDBRANCH  14  15
ENDBRANCH   8  14
TORSDOF 4
ENDMDL
MODEL 5
REMARK VINA RESULT:      -7.4      2.621      4.600
REMARK  Name = 
REMARK  5 active torsions:
REMARK  status: ('A' for Active; 'I' for Inactive)
REMARK    1  A    between atoms: C_1  and  C_2
REMARK    2  A    between atoms: C_2  and  C_4
REMARK    3  A    between atoms: C_4  and  C_5
REMARK    4  A    between atoms: C_12  and  C_13
REMARK    5  A    between atoms: C_13  and  C_14
REMARK                            x       y       z     vdW  Elec       q    Type
REMARK                         _______ _______ _______ _____ _____    ______ ____
ROOT
ATOM      1  C   UNL     1       4.708   3.967  17.776  0.00  0.00    +0.000 C 
ATOM      2  N   UNL     1       5.899   3.961  18.671  0.00  0.00    +0.000 NA
ATOM      3  S   UNL     1       7.150   4.983  18.169  0.00  0.00    +0.000 S 
ATOM      4  O   UNL     1       7.638   4.427  16.927  0.00  0.00    +0.000 OA
ATOM      5  O   UNL     1       8.013   5.161  19.309  0.00  0.00    +0.000 OA
ATOM      6  O   UNL     1       6.381   6.374  17.853  0.00  0.00    +0.000 OA
ATOM      7  C   UNL     1       5.209   6.300  17.054  0.00  0.00    +0.000 C 
ATOM      8  C   UNL     1       4.137   5.417  17.721  0.00  0.00    +0.000 C 
ATOM      9  H   UNL     1       6.312   3.038  18.819  0.00  0.00    +0.000 HD
ENDROOT
BRANCH   1  10
ATOM     10  C   UNL     1       3.763   2.849  18.245  0.00  0.00    +0.000 C 
BRANCH  10  12
ATOM     11  C   UNL     1       2.879   2.944  20.663  0.00  0.00    +0.000 C 
ATOM     12  C   UNL     1       3.937   2.461  19.701  0.00  0.00    +0.000 C 
ATOM     13  O   UNL     1       4.919   1.843  20.106  0.00  0.00    +0.000 OA
ENDBRANCH  10  12
ENDBRANCH   1  10
BRANCH   8  14
ATOM     14  C   UNL     1       3.721   5.991  19.099  0.00  0.00    +0.000 C 
BRANCH  14  15
ATOM     15  C   UNL     1       2.762   7.166  19.037  0.00  0.00    +0.000 A 
ATOM     16  C   UNL     1       2.030   7.571  20.163  0.00  0.00    +0.000 A 
ATOM     17  C   UNL     1       1.190   8.687  20.106  0.00  0.00    +0.000 A 
ATOM     18  C   UNL     1       1.068   9.417  18.925  0.00  0.00    +0.000 A 
ATOM     19  C   UNL     1       1.778   9.020  17.794  0.00  0.00    +0.000 A 
ATOM     20  C   UNL     1       2.615   7.902  17.849  0.00  0.00    +0.000 A 
ENDBRANCH  14  15
ENDBRANCH   8  14
TORSDOF 4
ENDMDL
MODEL 6
REMARK VINA RESULT:      -7.3      1.107      1.141
REMARK  Name = 
REMARK  5 active torsions:
REMARK  status: ('A' for Active; 'I' for Inactive)
REMARK    1  A    between atoms: C_1  and  C_2
REMARK    2  A    between atoms: C_2  and  C_4
REMARK    3  A    between atoms: C_4  and  C_5
REMARK    4  A    between atoms: C_12  and  C_13
REMARK    5  A    between atoms: C_13  and  C_14
REMARK                            x       y       z     vdW  Elec       q    Type
REMARK                         _______ _______ _______ _____ _____    ______ ____
ROOT
ATOM      1  C   UNL     1       6.042   4.948  15.830  0.00  0.00    +0.000 C 
ATOM      2  N   UNL     1       7.190   5.094  16.770  0.00  0.00    +0.000 NA
ATOM      3  S   UNL     1       7.145   6.501  17.708  0.00  0.00    +0.000 S 
ATOM      4  O   UNL     1       7.304   7.598  16.781  0.00  0.00    +0.000 OA
ATOM      5  O   UNL     1       8.063   6.292  18.799  0.00  0.00    +0.000 OA
ATOM      6  O   UNL     1       5.626   6.512  18.276  0.00  0.00    +0.000 OA
ATOM      7  C   UNL     1       4.583   6.293  17.339  0.00  0.00    +0.000 C 
ATOM      8  C   UNL     1       4.723   4.916  16.662  0.00  0.00    +0.000 C 
ATOM      9  H   UNL     1       8.108   5.067  16.322  0.00  0.00    +0.000 HD
ENDROOT
BRANCH   1  10
ATOM     10  C   UNL     1       6.334   3.748  14.915  0.00  0.00    +0.000 C 
BRANCH  10  12
ATOM     11  C   UNL     1       5.572   3.450  12.473  0.00  0.00    +0.000 C 
ATOM     12  C   UNL     1       6.508   4.112  13.453  0.00  0.00    +0.000 C 
ATOM     13  O   UNL     1       7.406   4.854  13.061  0.00  0.00    +0.000 OA
ENDBRANCH  10  12
ENDBRANCH   1  10
BRANCH   8  14
ATOM     14  C   UNL     1       4.655   3.773  17.705  0.00  0.00    +0.000 C 
BRANCH  14  15
ATOM     15  C   UNL     1       3.374   3.726  18.518  0.00  0.00    +0.000 A 
ATOM     16  C   UNL     1       3.328   4.199  19.838  0.00  0.00    +0.000 A 
ATOM     17  C   UNL     1       2.129   4.197  20.557  0.00  0.00    +0.000 A 
ATOM     18  C   UNL     1       0.957   3.726  19.970  0.00  0.00    +0.000 A 
ATOM     19  C   UNL     1       0.988   3.239  18.665  0.00  0.00    +0.000 A 
ATOM     20  C   UNL     1       2.187   3.236  17.947  0.00  0.00    +0.000 A 
ENDBRANCH  14  15
ENDBRANCH   8  14
TORSDOF 4
ENDMDL
MODEL 7
REMARK VINA RESULT:      -7.3      0.964      1.019
REMARK  Name = 
REMARK  5 active torsions:
REMARK  status: ('A' for Active; 'I' for Inactive)
REMARK    1  A    between atoms: C_1  and  C_2
REMARK    2  A    between atoms: C_2  and  C_4
REMARK    3  A    between atoms: C_4  and  C_5
REMARK    4  A    between atoms: C_12  and  C_13
REMARK    5  A    between atoms: C_13  and  C_14
REMARK                            x       y       z     vdW  Elec       q    Type
REMARK                         _______ _______ _______ _____ _____    ______ ____
ROOT
ATOM      1  C   UNL     1       5.717   5.897  16.265  0.00  0.00    +0.000 C 
ATOM      2  N   UNL     1       6.955   5.167  16.660  0.00  0.00    +0.000 NA
ATOM      3  S   UNL     1       7.436   5.430  18.260  0.00  0.00    +0.000 S 
ATOM      4  O   UNL     1       7.807   6.824  18.337  0.00  0.00    +0.000 OA
ATOM      5  O   UNL     1       8.369   4.380  18.583  0.00  0.00    +0.000 OA
ATOM      6  O   UNL     1       6.064   5.207  19.094  0.00  0.00    +0.000 OA
ATOM      7  C   UNL     1       4.903   5.872  18.621  0.00  0.00    +0.000 C 
ATOM      8  C   UNL     1       4.551   5.428  17.189  0.00  0.00    +0.000 C 
ATOM      9  H   UNL     1       7.767   5.365  16.071  0.00  0.00    +0.000 HD
ENDROOT
BRANCH   1  10
ATOM     10  C   UNL     1       5.534   5.726  14.748  0.00  0.00    +0.000 C 
BRANCH  10  12
ATOM     11  C   UNL     1       6.345   3.615  13.514  0.00  0.00    +0.000 C 
ATOM     12  C   UNL     1       6.667   4.981  14.068  0.00  0.00    +0.000 C 
ATOM     13  O   UNL     1       7.813   5.423  14.021  0.00  0.00    +0.000 OA
ENDBRANCH  10  12
ENDBRANCH   1  10
BRANCH   8  14
ATOM     14  C   UNL     1       4.266   3.905  17.132  0.00  0.00    +0.000 C 
BRANCH  14  15
ATOM     15  C   UNL     1       3.166   3.427  18.062  0.00  0.00    +0.000 A 
ATOM     16  C   UNL     1       3.446   2.608  19.166  0.00  0.00    +0.000 A 
ATOM     17  C   UNL     1       2.430   2.218  20.043  0.00  0.00    +0.000 A 
ATOM     18  C   UNL     1       1.119   2.640  19.834  0.00  0.00    +0.000 A 
ATOM     19  C   UNL     1       0.821   3.442  18.735  0.00  0.00    +0.000 A 
ATOM     20  C   UNL     1       1.835   3.829  17.854  0.00  0.00    +0.000 A 
ENDBRANCH  14  15
ENDBRANCH   8  14
TORSDOF 4
ENDMDL
MODEL 8
REMARK VINA RESULT:      -7.3      2.254      3.726
REMARK  Name = 
REMARK  5 active torsions:
REMARK  status: ('A' for Active; 'I' for Inactive)
REMARK    1  A    between atoms: C_1  and  C_2
REMARK    2  A    between atoms: C_2  and  C_4
REMARK    3  A    between atoms: C_4  and  C_5
REMARK    4  A    between atoms: C_12  and  C_13
REMARK    5  A    between atoms: C_13  and  C_14
REMARK                            x       y       z     vdW  Elec       q    Type
REMARK                         _______ _______ _______ _____ _____    ______ ____
ROOT
ATOM      1  C   UNL     1       4.774   6.562  17.597  0.00  0.00    +0.000 C 
ATOM      2  N   UNL     1       5.433   6.011  16.379  0.00  0.00    +0.000 NA
ATOM      3  S   UNL     1       7.087   5.707  16.562  0.00  0.00    +0.000 S 
ATOM      4  O   UNL     1       7.707   6.998  16.746  0.00  0.00    +0.000 OA
ATOM      5  O   UNL     1       7.463   4.834  15.478  0.00  0.00    +0.000 OA
ATOM      6  O   UNL     1       7.155   4.888  17.960  0.00  0.00    +0.000 OA
ATOM      7  C   UNL     1       6.443   5.430  19.062  0.00  0.00    +0.000 C 
ATOM      8  C   UNL     1       4.937   5.531  18.757  0.00  0.00    +0.000 C 
ATOM      9  H   UNL     1       5.330   6.591  15.544  0.00  0.00    +0.000 HD
ENDROOT
BRANCH   1  10
ATOM     10  C   UNL     1       3.345   6.976  17.211  0.00  0.00    +0.000 C 
BRANCH  10  12
ATOM     11  C   UNL     1       2.202   9.175  17.912  0.00  0.00    +0.000 C 
ATOM     12  C   UNL     1       2.622   7.773  18.279  0.00  0.00    +0.000 C 
ATOM     13  O   UNL     1       2.438   7.340  19.415  0.00  0.00    +0.000 OA
ENDBRANCH  10  12
ENDBRANCH   1  10
BRANCH   8  14
ATOM     14  C   UNL     1       4.334   4.135  18.458  0.00  0.00    +0.000 C 
BRANCH  14  15
ATOM     15  C   UNL     1       3.206   3.717  19.383  0.00  0.00    +0.000 A 
ATOM     16  C   UNL     1       1.863   3.944  19.046  0.00  0.00    +0.000 A 
ATOM     17  C   UNL     1       0.832   3.507  19.884  0.00  0.00    +0.000 A 
ATOM     18  C   UNL     1       1.125   2.836  21.069  0.00  0.00    +0.000 A 
ATOM     19  C   UNL     1       2.453   2.615  21.425  0.00  0.00    +0.000 A 
ATOM     20  C   UNL     1       3.485   3.055  20.591  0.00  0.00    +0.000 A 
ENDBRANCH  14  15
ENDBRANCH   8  14
TORSDOF 4
ENDMDL
MODEL 9
REMARK VINA RESULT:      -7.2      2.934      4.690
REMARK  Name = 
REMARK  5 active torsions:
REMARK  status: ('A' for Active; 'I' for Inactive)
REMARK    1  A    between atoms: C_1  and  C_2
REMARK    2  A    between atoms: C_2  and  C_4
REMARK    3  A    between atoms: C_4  and  C_5
REMARK    4  A    between atoms: C_12  and  C_13
REMARK    5  A    between atoms: C_13  and  C_14
REMARK                            x       y       z     vdW  Elec       q    Type
REMARK                         _______ _______ _______ _____ _____    ______ ____
ROOT
ATOM      1  C   UNL     1       3.938   4.280  17.072  0.00  0.00    +0.000 C 
ATOM      2  N   UNL     1       5.097   3.859  17.909  0.00  0.00    +0.000 NA
ATOM      3  S   UNL     1       6.537   4.675  17.561  0.00  0.00    +0.000 S 
ATOM      4  O   UNL     1       6.904   4.275  16.222  0.00  0.00    +0.000 OA
ATOM      5  O   UNL     1       7.413   4.452  18.684  0.00  0.00    +0.000 OA
ATOM      6  O   UNL     1       6.078   6.230  17.536  0.00  0.00    +0.000 OA
ATOM      7  C   UNL     1       4.922   6.551  16.779  0.00  0.00    +0.000 C 
ATOM      8  C   UNL     1       3.685   5.801  17.307  0.00  0.00    +0.000 C 
ATOM      9  H   UNL     1       5.307   2.859  17.868  0.00  0.00    +0.000 HD
ENDROOT
BRANCH   1  10
ATOM     10  C   UNL     1       2.777   3.314  17.359  0.00  0.00    +0.000 C 
BRANCH  10  12
ATOM     11  C   UNL     1       2.464   2.649  19.827  0.00  0.00    +0.000 C 
ATOM     12  C   UNL     1       3.053   2.327  18.476  0.00  0.00    +0.000 C 
ATOM     13  O   UNL     1       3.776   1.344  18.325  0.00  0.00    +0.000 OA
ENDBRANCH  10  12
ENDBRANCH   1  10
BRANCH   8  14
ATOM     14  C   UNL     1       3.392   6.177  18.781  0.00  0.00    +0.000 C 
BRANCH  14  15
ATOM     15  C   UNL     1       2.516   7.404  18.964  0.00  0.00    +0.000 A 
ATOM     16  C   UNL     1       2.231   8.264  17.893  0.00  0.00    +0.000 A 
ATOM     17  C   UNL     1       1.381   9.361  18.064  0.00  0.00    +0.000 A 
ATOM     18  C   UNL     1       0.801   9.615  19.305  0.00  0.00    +0.000 A 
ATOM     19  C   UNL     1       1.084   8.779  20.382  0.00  0.00    +0.000 A 
ATOM     20  C   UNL     1       1.937   7.685  20.214  0.00  0.00    +0.000 A 
ENDBRANCH  14  15
ENDBRANCH   8  14
TORSDOF 4
ENDMDL
