MODEL 1
REMARK VINA RESULT:      -8.3      0.000      0.000
REMARK  Name = 
REMARK  4 active torsions:
REMARK  status: ('A' for Active; 'I' for Inactive)
REMARK    1  A    between atoms: C_1  and  C_2
REMARK    2  A    between atoms: C_5  and  C_7
REMARK    3  A    between atoms: C_17  and  O_18
REMARK    4  A    between atoms: C_17  and  C_19
REMARK                            x       y       z     vdW  Elec       q    Type
REMARK                         _______ _______ _______ _____ _____    ______ ____
ROOT
ATOM      1  C   UNL     1       6.927   6.335  18.189  0.00  0.00    +0.000 C 
ATOM      2  C   UNL     1       6.286   6.203  16.788  0.00  0.00    +0.000 C 
ATOM      3  C   UNL     1       4.804   6.537  16.944  0.00  0.00    +0.000 C 
ATOM      4  N   UNL     1       3.992   5.478  17.536  0.00  0.00    +0.000 N 
ATOM      5  C   UNL     1       2.758   5.695  18.190  0.00  0.00    +0.000 C 
ATOM      6  O   UNL     1       2.034   4.765  18.543  0.00  0.00    +0.000 OA
ATOM      7  C   UNL     1       4.239   4.102  17.088  0.00  0.00    +0.000 C 
ATOM      8  C   UNL     1       5.706   3.758  16.866  0.00  0.00    +0.000 C 
ATOM      9  C   UNL     1       6.518   4.826  16.106  0.00  0.00    +0.000 C 
ENDROOT
BRANCH   5  10
ATOM     10  C   UNL     1       2.292   7.069  18.536  0.00  0.00    +0.000 A 
ATOM     11  C   UNL     1       2.086   8.079  17.590  0.00  0.00    +0.000 A 
ATOM     12  C   UNL     1       1.719   9.363  17.995  0.00  0.00    +0.000 A 
ATOM     13  C   UNL     1       1.457   9.626  19.341  0.00  0.00    +0.000 A 
ATOM     14 CL   UNL     1       1.002  11.236  19.769  0.00  0.00    +0.000 Cl
ATOM     15  C   UNL     1       1.559   8.595  20.280  0.00  0.00    +0.000 A 
ATOM     16 CL   UNL     1       1.167   8.825  21.947  0.00  0.00    +0.000 Cl
ATOM     17  C   UNL     1       1.988   7.325  19.880  0.00  0.00    +0.000 A 
ENDBRANCH   5  10
BRANCH   9  18
ATOM     18  C   UNL     1       6.344   4.830  14.531  0.00  0.00    +0.000 C 
ATOM     19  C   UNL     1       5.716   3.595  13.860  0.00  0.00    +0.000 C 
ATOM     20  C   UNL     1       5.775   3.617  12.334  0.00  0.00    +0.000 C 
ATOM     21  O   UNL     1       7.091   3.890  11.870  0.00  0.00    +0.000 OA
ATOM     22  C   UNL     1       7.529   5.174  12.298  0.00  0.00    +0.000 C 
ATOM     23  C   UNL     1       7.670   5.193  13.812  0.00  0.00    +0.000 C 
ENDBRANCH   9  18
BRANCH   9  24
ATOM     24  O   UNL     1       7.920   4.505  16.276  0.00  0.00    +0.000 OA
ATOM     25  H   UNL     1       8.106   4.369  17.220  0.00  0.00    +0.000 HD
ENDBRANCH   9  24
TORSDOF 3
ENDMDL
MODEL 2
REMARK VINA RESULT:      -7.6      3.845      7.652
REMARK  Name = 
REMARK  4 active torsions:
REMARK  status: ('A' for Active; 'I' for Inactive)
REMARK    1  A    between atoms: C_1  and  C_2
REMARK    2  A    between atoms: C_5  and  C_7
REMARK    3  A    between atoms: C_17  and  O_18
REMARK    4  A    between atoms: C_17  and  C_19
REMARK                            x       y       z     vdW  Elec       q    Type
REMARK                         _______ _______ _______ _____ _____    ______ ____
ROOT
ATOM      1  C   UNL     1       2.233   3.567  17.828  0.00  0.00    +0.000 C 
ATOM      2  C   UNL     1       2.550   5.077  17.932  0.00  0.00    +0.000 C 
ATOM      3  C   UNL     1       3.865   5.306  17.190  0.00  0.00    +0.000 C 
ATOM      4  N   UNL     1       5.062   4.892  17.914  0.00  0.00    +0.000 N 
ATOM      5  C   UNL     1       6.293   4.574  17.298  0.00  0.00    +0.000 C 
ATOM      6  O   UNL     1       7.319   4.374  17.949  0.00  0.00    +0.000 OA
ATOM      7  C   UNL     1       5.134   5.209  19.346  0.00  0.00    +0.000 C 
ATOM      8  C   UNL     1       3.821   5.047  20.100  0.00  0.00    +0.000 C 
ATOM      9  C   UNL     1       2.583   5.624  19.386  0.00  0.00    +0.000 C 
ENDROOT
BRANCH   5  10
ATOM     10  C   UNL     1       6.403   4.409  15.819  0.00  0.00    +0.000 A 
ATOM     11  C   UNL     1       5.531   3.622  15.060  0.00  0.00    +0.000 A 
ATOM     12  C   UNL     1       5.739   3.456  13.690  0.00  0.00    +0.000 A 
ATOM     13  C   UNL     1       6.761   4.153  13.046  0.00  0.00    +0.000 A 
ATOM     14 CL   UNL     1       6.956   3.904  11.349  0.00  0.00    +0.000 Cl
ATOM     15  C   UNL     1       7.574   5.024  13.780  0.00  0.00    +0.000 A 
ATOM     16 CL   UNL     1       8.802   5.985  13.036  0.00  0.00    +0.000 Cl
ATOM     17  C   UNL     1       7.402   5.141  15.163  0.00  0.00    +0.000 A 
ENDBRANCH   5  10
BRANCH   9  18
ATOM     18  C   UNL     1       2.388   7.192  19.507  0.00  0.00    +0.000 C 
ATOM     19  C   UNL     1       1.438   7.731  20.592  0.00  0.00    +0.000 C 
ATOM     20  C   UNL     1       1.169   9.231  20.496  0.00  0.00    +0.000 C 
ATOM     21  O   UNL     1       0.775   9.604  19.181  0.00  0.00    +0.000 OA
ATOM     22  C   UNL     1       1.807   9.330  18.241  0.00  0.00    +0.000 C 
ATOM     23  C   UNL     1       2.026   7.828  18.139  0.00  0.00    +0.000 C 
ENDBRANCH   9  18
BRANCH   9  24
ATOM     24  O   UNL     1       1.413   5.099  20.057  0.00  0.00    +0.000 OA
ATOM     25  H   UNL     1       0.902   5.834  20.437  0.00  0.00    +0.000 HD
ENDBRANCH   9  24
TORSDOF 3
ENDMDL
MODEL 3
REMARK VINA RESULT:      -7.0      5.457      8.756
REMARK  Name = 
REMARK  4 active torsions:
REMARK  status: ('A' for Active; 'I' for Inactive)
REMARK    1  A    between atoms: C_1  and  C_2
REMARK    2  A    between atoms: C_5  and  C_7
REMARK    3  A    between atoms: C_17  and  O_18
REMARK    4  A    between atoms: C_17  and  C_19
REMARK                            x       y       z     vdW  Elec       q    Type
REMARK                         _______ _______ _______ _____ _____    ______ ____
ROOT
ATOM      1  C   UNL     1      -1.776   9.951  18.250  0.00  0.00    +0.000 C 
ATOM      2  C   UNL     1      -0.473  10.783  18.198  0.00  0.00    +0.000 C 
ATOM      3  C   UNL     1       0.644   9.892  18.738  0.00  0.00    +0.000 C 
ATOM      4  N   UNL     1       0.667   9.742  20.189  0.00  0.00    +0.000 N 
ATOM      5  C   UNL     1       1.269   8.657  20.866  0.00  0.00    +0.000 C 
ATOM      6  O   UNL     1       1.398   8.641  22.090  0.00  0.00    +0.000 OA
ATOM      7  C   UNL     1       0.432  10.944  20.999  0.00  0.00    +0.000 C 
ATOM      8  C   UNL     1      -0.635  11.881  20.453  0.00  0.00    +0.000 C 
ATOM      9  C   UNL     1      -0.556  12.147  18.937  0.00  0.00    +0.000 C 
ENDROOT
BRANCH   5  10
ATOM     10  C   UNL     1       1.732   7.443  20.133  0.00  0.00    +0.000 A 
ATOM     11  C   UNL     1       2.473   7.489  18.947  0.00  0.00    +0.000 A 
ATOM     12  C   UNL     1       2.810   6.312  18.277  0.00  0.00    +0.000 A 
ATOM     13  C   UNL     1       2.495   5.072  18.836  0.00  0.00    +0.000 A 
ATOM     14 CL   UNL     1       2.947   3.658  17.955  0.00  0.00    +0.000 Cl
ATOM     15  C   UNL     1       1.845   5.016  20.074  0.00  0.00    +0.000 A 
ATOM     16 CL   UNL     1       1.502   3.520  20.867  0.00  0.00    +0.000 Cl
ATOM     17  C   UNL     1       1.455   6.198  20.713  0.00  0.00    +0.000 A 
ENDBRANCH   5  10
BRANCH   9  18
ATOM     18  C   UNL     1       0.525  13.213  18.481  0.00  0.00    +0.000 C 
ATOM     19  C   UNL     1       2.010  12.809  18.513  0.00  0.00    +0.000 C 
ATOM     20  C   UNL     1       2.976  13.962  18.248  0.00  0.00    +0.000 C 
ATOM     21  O   UNL     1       2.688  15.080  19.078  0.00  0.00    +0.000 OA
ATOM     22  C   UNL     1       1.386  15.591  18.816  0.00  0.00    +0.000 C 
ATOM     23  C   UNL     1       0.339  14.564  19.220  0.00  0.00    +0.000 C 
ENDBRANCH   9  18
BRANCH   9  24
ATOM     24  O   UNL     1      -1.805  12.763  18.540  0.00  0.00    +0.000 OA
ATOM     25  H   UNL     1      -1.895  12.715  17.573  0.00  0.00    +0.000 HD
ENDBRANCH   9  24
TORSDOF 3
ENDMDL
MODEL 4
REMARK VINA RESULT:      -7.0      0.852      1.528
REMARK  Name = 
REMARK  4 active torsions:
REMARK  status: ('A' for Active; 'I' for Inactive)
REMARK    1  A    between atoms: C_1  and  C_2
REMARK    2  A    between atoms: C_5  and  C_7
REMARK    3  A    between atoms: C_17  and  O_18
REMARK    4  A    between atoms: C_17  and  C_19
REMARK                            x       y       z     vdW  Elec       q    Type
REMARK                         _______ _______ _______ _____ _____    ______ ____
ROOT
ATOM      1  C   UNL     1       6.789   5.572  18.791  0.00  0.00    +0.000 C 
ATOM      2  C   UNL     1       6.200   5.709  17.367  0.00  0.00    +0.000 C 
ATOM      3  C   UNL     1       4.728   6.082  17.531  0.00  0.00    +0.000 C 
ATOM      4  N   UNL     1       3.850   4.978  17.908  0.00  0.00    +0.000 N 
ATOM      5  C   UNL     1       2.601   5.141  18.549  0.00  0.00    +0.000 C 
ATOM      6  O   UNL     1       1.825   4.200  18.716  0.00  0.00    +0.000 OA
ATOM      7  C   UNL     1       4.058   3.687  17.241  0.00  0.00    +0.000 C 
ATOM      8  C   UNL     1       5.516   3.316  17.011  0.00  0.00    +0.000 C 
ATOM      9  C   UNL     1       6.402   4.456  16.470  0.00  0.00    +0.000 C 
ENDROOT
BRANCH   5  10
ATOM     10  C   UNL     1       2.179   6.458  19.108  0.00  0.00    +0.000 A 
ATOM     11  C   UNL     1       1.841   6.657  20.451  0.00  0.00    +0.000 A 
ATOM     12  C   UNL     1       1.385   7.901  20.889  0.00  0.00    +0.000 A 
ATOM     13  C   UNL     1       1.356   8.986  20.012  0.00  0.00    +0.000 A 
ATOM     14 CL   UNL     1       0.785  10.496  20.623  0.00  0.00    +0.000 Cl
ATOM     15  C   UNL     1       1.792   8.821  18.693  0.00  0.00    +0.000 A 
ATOM     16 CL   UNL     1       1.866  10.137  17.576  0.00  0.00    +0.000 Cl
ATOM     17  C   UNL     1       2.190   7.558  18.241  0.00  0.00    +0.000 A 
ENDBRANCH   5  10
BRANCH   9  18
ATOM     18  C   UNL     1       6.290   4.733  14.913  0.00  0.00    +0.000 C 
ATOM     19  C   UNL     1       5.593   3.683  14.030  0.00  0.00    +0.000 C 
ATOM     20  C   UNL     1       5.713   3.950  12.531  0.00  0.00    +0.000 C 
ATOM     21  O   UNL     1       7.064   4.182  12.153  0.00  0.00    +0.000 OA
ATOM     22  C   UNL     1       7.586   5.337  12.800  0.00  0.00    +0.000 C 
ATOM     23  C   UNL     1       7.669   5.094  14.299  0.00  0.00    +0.000 C 
ENDBRANCH   9  18
BRANCH   9  24
ATOM     24  O   UNL     1       7.781   4.045  16.628  0.00  0.00    +0.000 OA
ATOM     25  H   UNL     1       7.861   3.100  16.418  0.00  0.00    +0.000 HD
ENDBRANCH   9  24
TORSDOF 3
ENDMDL
MODEL 5
REMARK VINA RESULT:      -7.0      3.841      7.581
REMARK  Name = 
REMARK  4 active torsions:
REMARK  status: ('A' for Active; 'I' for Inactive)
REMARK    1  A    between atoms: C_1  and  C_2
REMARK    2  A    between atoms: C_5  and  C_7
REMARK    3  A    between atoms: C_17  and  O_18
REMARK    4  A    between atoms: C_17  and  C_19
REMARK                            x       y       z     vdW  Elec       q    Type
REMARK                         _______ _______ _______ _____ _____    ______ ____
ROOT
ATOM      1  C   UNL     1       2.813   3.362  17.130  0.00  0.00    +0.000 C 
ATOM      2  C   UNL     1       3.053   4.854  17.457  0.00  0.00    +0.000 C 
ATOM      3  C   UNL     1       4.373   5.246  16.795  0.00  0.00    +0.000 C 
ATOM      4  N   UNL     1       5.571   4.786  17.489  0.00  0.00    +0.000 N 
ATOM      5  C   UNL     1       6.831   4.616  16.871  0.00  0.00    +0.000 C 
ATOM      6  O   UNL     1       7.849   4.372  17.518  0.00  0.00    +0.000 OA
ATOM      7  C   UNL     1       5.594   4.899  18.953  0.00  0.00    +0.000 C 
ATOM      8  C   UNL     1       4.274   4.571  19.636  0.00  0.00    +0.000 C 
ATOM      9  C   UNL     1       3.025   5.188  18.974  0.00  0.00    +0.000 C 
ENDROOT
BRANCH   5  10
ATOM     10  C   UNL     1       6.983   4.670  15.388  0.00  0.00    +0.000 A 
ATOM     11  C   UNL     1       7.923   5.473  14.734  0.00  0.00    +0.000 A 
ATOM     12  C   UNL     1       7.960   5.527  13.339  0.00  0.00    +0.000 A 
ATOM     13  C   UNL     1       7.124   4.704  12.584  0.00  0.00    +0.000 A 
ATOM     14 CL   UNL     1       7.228   4.820  10.864  0.00  0.00    +0.000 Cl
ATOM     15  C   UNL     1       6.253   3.821  13.230  0.00  0.00    +0.000 A 
ATOM     16 CL   UNL     1       5.253   2.712  12.362  0.00  0.00    +0.000 Cl
ATOM     17  C   UNL     1       6.175   3.814  14.627  0.00  0.00    +0.000 A 
ENDBRANCH   5  10
BRANCH   9  18
ATOM     18  C   UNL     1       2.751   6.712  19.311  0.00  0.00    +0.000 C 
ATOM     19  C   UNL     1       1.820   7.047  20.490  0.00  0.00    +0.000 C 
ATOM     20  C   UNL     1       1.466   8.528  20.605  0.00  0.00    +0.000 C 
ATOM     21  O   UNL     1       0.998   9.046  19.366  0.00  0.00    +0.000 OA
ATOM     22  C   UNL     1       2.003   8.960  18.363  0.00  0.00    +0.000 C 
ATOM     23  C   UNL     1       2.298   7.500  18.053  0.00  0.00    +0.000 C 
ENDBRANCH   9  18
BRANCH   9  24
ATOM     24  O   UNL     1       1.867   4.520  19.529  0.00  0.00    +0.000 OA
ATOM     25  H   UNL     1       1.720   3.683  19.056  0.00  0.00    +0.000 HD
ENDBRANCH   9  24
TORSDOF 3
ENDMDL
MODEL 6
REMARK VINA RESULT:      -6.8      4.825      8.448
REMARK  Name = 
REMARK  4 active torsions:
REMARK  status: ('A' for Active; 'I' for Inactive)
REMARK    1  A    between atoms: C_1  and  C_2
REMARK    2  A    between atoms: C_5  and  C_7
REMARK    3  A    between atoms: C_17  and  O_18
REMARK    4  A    between atoms: C_17  and  C_19
REMARK                            x       y       z     vdW  Elec       q    Type
REMARK                         _______ _______ _______ _____ _____    ______ ____
ROOT
ATOM      1  C   UNL     1       0.988  10.129  21.499  0.00  0.00    +0.000 C 
ATOM      2  C   UNL     1       0.079   9.995  20.255  0.00  0.00    +0.000 C 
ATOM      3  C   UNL     1       0.513   8.727  19.522  0.00  0.00    +0.000 C 
ATOM      4  N   UNL     1       1.743   8.853  18.747  0.00  0.00    +0.000 N 
ATOM      5  C   UNL     1       2.568   7.765  18.384  0.00  0.00    +0.000 C 
ATOM      6  O   UNL     1       3.513   7.892  17.606  0.00  0.00    +0.000 OA
ATOM      7  C   UNL     1       1.926  10.078  17.958  0.00  0.00    +0.000 C 
ATOM      8  C   UNL     1       1.447  11.352  18.640  0.00  0.00    +0.000 C 
ATOM      9  C   UNL     1       0.073  11.245  19.331  0.00  0.00    +0.000 C 
ENDROOT
BRANCH   5  10
ATOM     10  C   UNL     1       2.369   6.408  18.972  0.00  0.00    +0.000 A 
ATOM     11  C   UNL     1       2.058   6.184  20.317  0.00  0.00    +0.000 A 
ATOM     12  C   UNL     1       1.958   4.883  20.813  0.00  0.00    +0.000 A 
ATOM     13  C   UNL     1       2.070   3.793  19.949  0.00  0.00    +0.000 A 
ATOM     14 CL   UNL     1       1.930   2.213  20.631  0.00  0.00    +0.000 Cl
ATOM     15  C   UNL     1       2.277   4.010  18.583  0.00  0.00    +0.000 A 
ATOM     16 CL   UNL     1       2.339   2.714  17.443  0.00  0.00    +0.000 Cl
ATOM     17  C   UNL     1       2.438   5.313  18.100  0.00  0.00    +0.000 A 
ENDBRANCH   5  10
BRANCH   9  18
ATOM     18  C   UNL     1      -1.187  11.354  18.376  0.00  0.00    +0.000 C 
ATOM     19  C   UNL     1      -2.537  11.772  18.988  0.00  0.00    +0.000 C 
ATOM     20  C   UNL     1      -3.719  11.656  18.029  0.00  0.00    +0.000 C 
ATOM     21  O   UNL     1      -3.764  10.374  17.415  0.00  0.00    +0.000 OA
ATOM     22  C   UNL     1      -2.599  10.141  16.631  0.00  0.00    +0.000 C 
ATOM     23  C   UNL     1      -1.378  10.065  17.534  0.00  0.00    +0.000 C 
ENDBRANCH   9  18
BRANCH   9  24
ATOM     24  O   UNL     1      -0.070  12.401  20.191  0.00  0.00    +0.000 OA
ATOM     25  H   UNL     1       0.122  13.206  19.682  0.00  0.00    +0.000 HD
ENDBRANCH   9  24
TORSDOF 3
ENDMDL
MODEL 7
REMARK VINA RESULT:      -6.6      5.413      8.826
REMARK  Name = 
REMARK  4 active torsions:
REMARK  status: ('A' for Active; 'I' for Inactive)
REMARK    1  A    between atoms: C_1  and  C_2
REMARK    2  A    between atoms: C_5  and  C_7
REMARK    3  A    between atoms: C_17  and  O_18
REMARK    4  A    between atoms: C_17  and  C_19
REMARK                            x       y       z     vdW  Elec       q    Type
REMARK                         _______ _______ _______ _____ _____    ______ ____
ROOT
ATOM      1  C   UNL     1      -1.753   9.881  18.230  0.00  0.00    +0.000 C 
ATOM      2  C   UNL     1      -0.468  10.741  18.205  0.00  0.00    +0.000 C 
ATOM      3  C   UNL     1       0.650   9.884  18.795  0.00  0.00    +0.000 C 
ATOM      4  N   UNL     1       0.630   9.760  20.249  0.00  0.00    +0.000 N 
ATOM      5  C   UNL     1       1.233   8.701  20.964  0.00  0.00    +0.000 C 
ATOM      6  O   UNL     1       1.323   8.709  22.191  0.00  0.00    +0.000 OA
ATOM      7  C   UNL     1       0.343  10.970  21.030  0.00  0.00    +0.000 C 
ATOM      8  C   UNL     1      -0.727  11.873  20.434  0.00  0.00    +0.000 C 
ATOM      9  C   UNL     1      -0.605  12.115  18.916  0.00  0.00    +0.000 C 
ENDROOT
BRANCH   5  10
ATOM     10  C   UNL     1       1.746   7.485  20.268  0.00  0.00    +0.000 A 
ATOM     11  C   UNL     1       1.408   6.179  20.639  0.00  0.00    +0.000 A 
ATOM     12  C   UNL     1       1.984   5.087  19.987  0.00  0.00    +0.000 A 
ATOM     13  C   UNL     1       2.827   5.288  18.894  0.00  0.00    +0.000 A 
ATOM     14 CL   UNL     1       3.499   3.891  18.134  0.00  0.00    +0.000 Cl
ATOM     15  C   UNL     1       3.088   6.588  18.450  0.00  0.00    +0.000 A 
ATOM     16 CL   UNL     1       4.051   6.910  17.053  0.00  0.00    +0.000 Cl
ATOM     17  C   UNL     1       2.559   7.682  19.144  0.00  0.00    +0.000 A 
ENDBRANCH   5  10
BRANCH   9  18
ATOM     18  C   UNL     1       0.467  13.197  18.476  0.00  0.00    +0.000 C 
ATOM     19  C   UNL     1       1.955  12.805  18.499  0.00  0.00    +0.000 C 
ATOM     20  C   UNL     1       2.911  13.970  18.251  0.00  0.00    +0.000 C 
ATOM     21  O   UNL     1       2.616  15.072  19.100  0.00  0.00    +0.000 OA
ATOM     22  C   UNL     1       1.309  15.576  18.848  0.00  0.00    +0.000 C 
ATOM     23  C   UNL     1       0.271  14.535  19.237  0.00  0.00    +0.000 C 
ENDBRANCH   9  18
BRANCH   9  24
ATOM     24  O   UNL     1      -1.854  12.696  18.468  0.00  0.00    +0.000 OA
ATOM     25  H   UNL     1      -1.671  13.370  17.793  0.00  0.00    +0.000 HD
ENDBRANCH   9  24
TORSDOF 3
ENDMDL
MODEL 8
REMARK VINA RESULT:      -6.5      3.892      7.683
REMARK  Name = 
REMARK  4 active torsions:
REMARK  status: ('A' for Active; 'I' for Inactive)
REMARK    1  A    between atoms: C_1  and  C_2
REMARK    2  A    between atoms: C_5  and  C_7
REMARK    3  A    between atoms: C_17  and  O_18
REMARK    4  A    between atoms: C_17  and  C_19
REMARK                            x       y       z     vdW  Elec       q    Type
REMARK                         _______ _______ _______ _____ _____    ______ ____
ROOT
ATOM      1  C   UNL     1       2.735   2.351  17.694  0.00  0.00    +0.000 C 
ATOM      2  C   UNL     1       2.598   3.889  17.787  0.00  0.00    +0.000 C 
ATOM      3  C   UNL     1       3.777   4.486  17.022  0.00  0.00    +0.000 C 
ATOM      4  N   UNL     1       5.054   4.447  17.727  0.00  0.00    +0.000 N 
ATOM      5  C   UNL     1       6.314   4.498  17.091  0.00  0.00    +0.000 C 
ATOM      6  O   UNL     1       7.363   4.613  17.725  0.00  0.00    +0.000 OA
ATOM      7  C   UNL     1       5.051   4.784  19.156  0.00  0.00    +0.000 C 
ATOM      8  C   UNL     1       3.855   4.251  19.933  0.00  0.00    +0.000 C 
ATOM      9  C   UNL     1       2.491   4.433  19.238  0.00  0.00    +0.000 C 
ENDROOT
BRANCH   5  10
ATOM     10  C   UNL     1       6.445   4.360  15.611  0.00  0.00    +0.000 A 
ATOM     11  C   UNL     1       5.600   3.565  14.829  0.00  0.00    +0.000 A 
ATOM     12  C   UNL     1       5.827   3.426  13.459  0.00  0.00    +0.000 A 
ATOM     13  C   UNL     1       6.840   4.158  12.838  0.00  0.00    +0.000 A 
ATOM     14 CL   UNL     1       7.061   3.940  11.140  0.00  0.00    +0.000 Cl
ATOM     15  C   UNL     1       7.624   5.035  13.595  0.00  0.00    +0.000 A 
ATOM     16 CL   UNL     1       8.837   6.037  12.882  0.00  0.00    +0.000 Cl
ATOM     17  C   UNL     1       7.434   5.125  14.979  0.00  0.00    +0.000 A 
ENDBRANCH   5  10
BRANCH   9  18
ATOM     18  C   UNL     1       1.847   5.877  19.357  0.00  0.00    +0.000 C 
ATOM     19  C   UNL     1       2.462   7.024  18.535  0.00  0.00    +0.000 C 
ATOM     20  C   UNL     1       1.899   8.403  18.870  0.00  0.00    +0.000 C 
ATOM     21  O   UNL     1       1.927   8.649  20.270  0.00  0.00    +0.000 OA
ATOM     22  C   UNL     1       1.115   7.713  20.970  0.00  0.00    +0.000 C 
ATOM     23  C   UNL     1       1.706   6.318  20.838  0.00  0.00    +0.000 C 
ENDBRANCH   9  18
BRANCH   9  24
ATOM     24  O   UNL     1       1.536   3.594  19.932  0.00  0.00    +0.000 OA
ATOM     25  H   UNL     1       1.000   4.143  20.528  0.00  0.00    +0.000 HD
ENDBRANCH   9  24
TORSDOF 3
ENDMDL
MODEL 9
REMARK VINA RESULT:      -6.5      2.751      4.263
REMARK  Name = 
REMARK  4 active torsions:
REMARK  status: ('A' for Active; 'I' for Inactive)
REMARK    1  A    between atoms: C_1  and  C_2
REMARK    2  A    between atoms: C_5  and  C_7
REMARK    3  A    between atoms: C_17  and  O_18
REMARK    4  A    between atoms: C_17  and  C_19
REMARK                            x       y       z     vdW  Elec       q    Type
REMARK                         _______ _______ _______ _____ _____    ______ ____
ROOT
ATOM      1  C   UNL     1       1.541   4.232  18.748  0.00  0.00    +0.000 C 
ATOM      2  C   UNL     1       2.968   4.725  19.083  0.00  0.00    +0.000 C 
ATOM      3  C   UNL     1       2.854   6.208  19.431  0.00  0.00    +0.000 C 
ATOM      4  N   UNL     1       2.695   7.100  18.287  0.00  0.00    +0.000 N 
ATOM      5  C   UNL     1       2.124   8.391  18.360  0.00  0.00    +0.000 C 
ATOM      6  O   UNL     1       2.144   9.169  17.407  0.00  0.00    +0.000 OA
ATOM      7  C   UNL     1       3.521   6.838  17.102  0.00  0.00    +0.000 C 
ATOM      8  C   UNL     1       3.701   5.364  16.765  0.00  0.00    +0.000 C 
ATOM      9  C   UNL     1       4.016   4.454  17.968  0.00  0.00    +0.000 C 
ENDROOT
BRANCH   5  10
ATOM     10  C   UNL     1       1.416   8.860  19.586  0.00  0.00    +0.000 A 
ATOM     11  C   UNL     1       1.521   8.230  20.831  0.00  0.00    +0.000 A 
ATOM     12  C   UNL     1       0.772   8.683  21.918  0.00  0.00    +0.000 A 
ATOM     13  C   UNL     1      -0.015   9.829  21.799  0.00  0.00    +0.000 A 
ATOM     14 CL   UNL     1      -0.911  10.333  23.186  0.00  0.00    +0.000 Cl
ATOM     15  C   UNL     1      -0.045  10.525  20.587  0.00  0.00    +0.000 A 
ATOM     16 CL   UNL     1      -0.926  11.998  20.391  0.00  0.00    +0.000 Cl
ATOM     17  C   UNL     1       0.659  10.034  19.481  0.00  0.00    +0.000 A 
ENDBRANCH   5  10
BRANCH   9  18
ATOM     18  C   UNL     1       5.523   4.462  18.461  0.00  0.00    +0.000 C 
ATOM     19  C   UNL     1       5.948   5.516  19.499  0.00  0.00    +0.000 C 
ATOM     20  C   UNL     1       7.453   5.567  19.756  0.00  0.00    +0.000 C 
ATOM     21  O   UNL     1       8.184   5.661  18.539  0.00  0.00    +0.000 OA
ATOM     22  C   UNL     1       7.964   4.518  17.721  0.00  0.00    +0.000 C 
ATOM     23  C   UNL     1       6.512   4.481  17.266  0.00  0.00    +0.000 C 
ENDBRANCH   9  18
BRANCH   9  24
ATOM     24  O   UNL     1       3.824   3.085  17.537  0.00  0.00    +0.000 OA
ATOM     25  H   UNL     1       2.951   2.775  17.830  0.00  0.00    +0.000 HD
ENDBRANCH   9  24
TORSDOF 3
ENDMDL
