MODEL 1
REMARK VINA RESULT:      -7.6      0.000      0.000
REMARK  Name = 
REMARK  10 active torsions:
REMARK  status: ('A' for Active; 'I' for Inactive)
REMARK    1  A    between atoms: C_1  and  N_2
REMARK    2  A    between atoms: N_2  and  C_10
REMARK    3  A    between atoms: C_3  and  C_5
REMARK    4  A    between atoms: C_5  and  C_6
REMARK    5  A    between atoms: C_6  and  C_7
REMARK    6  A    between atoms: C_7  and  O_9
REMARK    7  A    between atoms: C_13  and  C_14
REMARK    8  A    between atoms: C_14  and  N_15
REMARK    9  A    between atoms: C_14  and  C_16
REMARK   10  A    between atoms: C_16  and  C_17
REMARK                            x       y       z     vdW  Elec       q    Type
REMARK                         _______ _______ _______ _____ _____    ______ ____
ROOT
ATOM      1  C   UNL     1       2.326   6.762  18.335  0.00  0.00    +0.000 C 
ATOM      2  C   UNL     1       2.229   7.136  19.822  0.00  0.00    +0.000 C 
ATOM      3  C   UNL     1       1.281   8.320  20.055  0.00  0.00    +0.000 C 
ATOM      4  C   UNL     1       1.663   9.550  19.206  0.00  0.00    +0.000 C 
ATOM      5  C   UNL     1       1.766   9.160  17.719  0.00  0.00    +0.000 C 
ATOM      6  C   UNL     1       2.711   7.988  17.495  0.00  0.00    +0.000 C 
ENDROOT
BRANCH   1   8
ATOM      7  C   UNL     1       4.651   5.779  18.424  0.00  0.00    +0.000 C 
ATOM      8  N   UNL     1       3.231   5.611  18.110  0.00  0.00    +0.000 N 
ATOM      9  C   UNL     1       2.670   4.406  17.688  0.00  0.00    +0.000 C 
ATOM     10  O   UNL     1       1.463   4.262  17.497  0.00  0.00    +0.000 OA
BRANCH   9  11
ATOM     11  C   UNL     1       3.631   3.253  17.454  0.00  0.00    +0.000 C 
BRANCH  11  12
ATOM     12  C   UNL     1       3.366   2.078  18.377  0.00  0.00    +0.000 C 
BRANCH  12  13
ATOM     13  C   UNL     1       3.862   2.373  19.769  0.00  0.00    +0.000 C 
ATOM     14  O   UNL     1       3.151   2.563  20.742  0.00  0.00    +0.000 OA
BRANCH  13  15
ATOM     15  O   UNL     1       5.213   2.407  19.841  0.00  0.00    +0.000 OA
ATOM     16  H   UNL     1       5.553   3.120  20.415  0.00  0.00    +0.000 HD
ENDBRANCH  13  15
ENDBRANCH  12  13
ENDBRANCH  11  12
ENDBRANCH   9  11
ENDBRANCH   1   8
BRANCH   4  17
ATOM     17  C   UNL     1       0.743  10.799  19.407  0.00  0.00    +0.000 C 
BRANCH  17  18
ATOM     18  N   UNL     1       0.802  11.768  18.308  0.00  0.00    +0.000 NA
ATOM     19  H   UNL     1       1.296  11.387  17.505  0.00  0.00    +0.000 HD
ATOM     20  H   UNL     1       1.269  12.630  18.576  0.00  0.00    +0.000 HD
ENDBRANCH  17  18
BRANCH  17  21
ATOM     21  C   UNL     1      -0.728  10.391  19.690  0.00  0.00    +0.000 C 
BRANCH  21  22
ATOM     22  C   UNL     1      -1.733  10.536  18.565  0.00  0.00    +0.000 A 
ATOM     23  C   UNL     1      -1.664   9.796  17.378  0.00  0.00    +0.000 A 
ATOM     24  C   UNL     1      -2.578  10.030  16.352  0.00  0.00    +0.000 A 
ATOM     25  F   UNL     1      -2.492   9.321  15.220  0.00  0.00    +0.000 F 
ATOM     26  C   UNL     1      -3.572  10.995  16.478  0.00  0.00    +0.000 A 
ATOM     27  C   UNL     1      -3.663  11.729  17.657  0.00  0.00    +0.000 A 
ATOM     28  C   UNL     1      -2.748  11.497  18.682  0.00  0.00    +0.000 A 
ATOM     29  F   UNL     1      -2.853  12.224  19.805  0.00  0.00    +0.000 F 
ENDBRANCH  21  22
ENDBRANCH  17  21
ENDBRANCH   4  17
TORSDOF 9
ENDMDL
MODEL 2
REMARK VINA RESULT:      -7.3      0.821      1.024
REMARK  Name = 
REMARK  10 active torsions:
REMARK  status: ('A' for Active; 'I' for Inactive)
REMARK    1  A    between atoms: C_1  and  N_2
REMARK    2  A    between atoms: N_2  and  C_10
REMARK    3  A    between atoms: C_3  and  C_5
REMARK    4  A    between atoms: C_5  and  C_6
REMARK    5  A    between atoms: C_6  and  C_7
REMARK    6  A    between atoms: C_7  and  O_9
REMARK    7  A    between atoms: C_13  and  C_14
REMARK    8  A    between atoms: C_14  and  N_15
REMARK    9  A    between atoms: C_14  and  C_16
REMARK   10  A    between atoms: C_16  and  C_17
REMARK                            x       y       z     vdW  Elec       q    Type
REMARK                         _______ _______ _______ _____ _____    ______ ____
ROOT
ATOM      1  C   UNL     1       2.310   6.619  18.487  0.00  0.00    +0.000 C 
ATOM      2  C   UNL     1       2.221   6.798  20.010  0.00  0.00    +0.000 C 
ATOM      3  C   UNL     1       1.222   7.895  20.401  0.00  0.00    +0.000 C 
ATOM      4  C   UNL     1       1.529   9.239  19.711  0.00  0.00    +0.000 C 
ATOM      5  C   UNL     1       1.625   9.045  18.185  0.00  0.00    +0.000 C 
ATOM      6  C   UNL     1       2.621   7.959  17.804  0.00  0.00    +0.000 C 
ENDROOT
BRANCH   1   8
ATOM      7  C   UNL     1       4.692   5.794  18.329  0.00  0.00    +0.000 C 
ATOM      8  N   UNL     1       3.265   5.552  18.107  0.00  0.00    +0.000 N 
ATOM      9  C   UNL     1       2.750   4.346  17.635  0.00  0.00    +0.000 C 
ATOM     10  O   UNL     1       1.543   4.134  17.522  0.00  0.00    +0.000 OA
BRANCH   9  11
ATOM     11  C   UNL     1       3.760   3.281  17.242  0.00  0.00    +0.000 C 
BRANCH  11  12
ATOM     12  C   UNL     1       3.591   1.998  18.034  0.00  0.00    +0.000 C 
BRANCH  12  13
ATOM     13  C   UNL     1       3.770   2.255  19.508  0.00  0.00    +0.000 C 
ATOM     14  O   UNL     1       4.845   2.323  20.083  0.00  0.00    +0.000 OA
BRANCH  13  15
ATOM     15  O   UNL     1       2.592   2.410  20.154  0.00  0.00    +0.000 OA
ATOM     16  H   UNL     1       1.814   2.328  19.568  0.00  0.00    +0.000 HD
ENDBRANCH  13  15
ENDBRANCH  12  13
ENDBRANCH  11  12
ENDBRANCH   9  11
ENDBRANCH   1   8
BRANCH   4  17
ATOM     17  C   UNL     1       0.555  10.405  20.079  0.00  0.00    +0.000 C 
BRANCH  17  18
ATOM     18  N   UNL     1       1.081  11.327  21.092  0.00  0.00    +0.000 NA
ATOM     19  H   UNL     1       0.529  11.291  21.946  0.00  0.00    +0.000 HD
ATOM     20  H   UNL     1       1.088  12.291  20.771  0.00  0.00    +0.000 HD
ENDBRANCH  17  18
BRANCH  17  21
ATOM     21  C   UNL     1       0.095  11.190  18.820  0.00  0.00    +0.000 C 
BRANCH  21  22
ATOM     22  C   UNL     1      -1.324  10.980  18.334  0.00  0.00    +0.000 A 
ATOM     23  C   UNL     1      -1.649  10.137  17.262  0.00  0.00    +0.000 A 
ATOM     24  C   UNL     1      -2.967  10.045  16.818  0.00  0.00    +0.000 A 
ATOM     25  F   UNL     1      -3.258   9.242  15.787  0.00  0.00    +0.000 F 
ATOM     26  C   UNL     1      -3.984  10.780  17.418  0.00  0.00    +0.000 A 
ATOM     27  C   UNL     1      -3.681  11.611  18.492  0.00  0.00    +0.000 A 
ATOM     28  C   UNL     1      -2.363  11.706  18.936  0.00  0.00    +0.000 A 
ATOM     29  F   UNL     1      -2.096  12.520  19.968  0.00  0.00    +0.000 F 
ENDBRANCH  21  22
ENDBRANCH  17  21
ENDBRANCH   4  17
TORSDOF 9
ENDMDL
MODEL 3
REMARK VINA RESULT:      -7.3      2.238      3.309
REMARK  Name = 
REMARK  10 active torsions:
REMARK  status: ('A' for Active; 'I' for Inactive)
REMARK    1  A    between atoms: C_1  and  N_2
REMARK    2  A    between atoms: N_2  and  C_10
REMARK    3  A    between atoms: C_3  and  C_5
REMARK    4  A    between atoms: C_5  and  C_6
REMARK    5  A    between atoms: C_6  and  C_7
REMARK    6  A    between atoms: C_7  and  O_9
REMARK    7  A    between atoms: C_13  and  C_14
REMARK    8  A    between atoms: C_14  and  N_15
REMARK    9  A    between atoms: C_14  and  C_16
REMARK   10  A    between atoms: C_16  and  C_17
REMARK                            x       y       z     vdW  Elec       q    Type
REMARK                         _______ _______ _______ _____ _____    ______ ____
ROOT
ATOM      1  C   UNL     1       2.923   6.981  18.897  0.00  0.00    +0.000 C 
ATOM      2  C   UNL     1       2.236   7.821  17.809  0.00  0.00    +0.000 C 
ATOM      3  C   UNL     1       1.743   9.169  18.352  0.00  0.00    +0.000 C 
ATOM      4  C   UNL     1       0.822   9.004  19.578  0.00  0.00    +0.000 C 
ATOM      5  C   UNL     1       1.519   8.153  20.658  0.00  0.00    +0.000 C 
ATOM      6  C   UNL     1       2.001   6.816  20.114  0.00  0.00    +0.000 C 
ENDROOT
BRANCH   1   8
ATOM      7  C   UNL     1       2.435   4.613  18.169  0.00  0.00    +0.000 C 
ATOM      8  N   UNL     1       3.412   5.685  18.373  0.00  0.00    +0.000 N 
ATOM      9  C   UNL     1       4.758   5.580  18.025  0.00  0.00    +0.000 C 
ATOM     10  O   UNL     1       5.550   6.515  18.137  0.00  0.00    +0.000 OA
BRANCH   9  11
ATOM     11  C   UNL     1       5.224   4.231  17.505  0.00  0.00    +0.000 C 
BRANCH  11  12
ATOM     12  C   UNL     1       5.642   4.283  16.047  0.00  0.00    +0.000 C 
BRANCH  12  13
ATOM     13  C   UNL     1       7.089   4.686  15.922  0.00  0.00    +0.000 C 
ATOM     14  O   UNL     1       7.536   5.438  15.072  0.00  0.00    +0.000 OA
BRANCH  13  15
ATOM     15  O   UNL     1       7.868   4.118  16.871  0.00  0.00    +0.000 OA
ATOM     16  H   UNL     1       8.044   3.170  16.713  0.00  0.00    +0.000 HD
ENDBRANCH  13  15
ENDBRANCH  12  13
ENDBRANCH  11  12
ENDBRANCH   9  11
ENDBRANCH   1   8
BRANCH   4  17
ATOM     17  C   UNL     1       0.272  10.342  20.172  0.00  0.00    +0.000 C 
BRANCH  17  18
ATOM     18  N   UNL     1       1.207  11.027  21.070  0.00  0.00    +0.000 NA
ATOM     19  H   UNL     1       0.835  11.088  22.015  0.00  0.00    +0.000 HD
ATOM     20  H   UNL     1       1.419  11.972  20.762  0.00  0.00    +0.000 HD
ENDBRANCH  17  18
BRANCH  17  21
ATOM     21  C   UNL     1      -0.216  11.309  19.059  0.00  0.00    +0.000 C 
BRANCH  21  22
ATOM     22  C   UNL     1      -1.675  11.248  18.656  0.00  0.00    +0.000 A 
ATOM     23  C   UNL     1      -2.669  12.028  19.261  0.00  0.00    +0.000 A 
ATOM     24  C   UNL     1      -4.004  11.871  18.893  0.00  0.00    +0.000 A 
ATOM     25  F   UNL     1      -4.942  12.618  19.488  0.00  0.00    +0.000 F 
ATOM     26  C   UNL     1      -4.383  10.944  17.928  0.00  0.00    +0.000 A 
ATOM     27  C   UNL     1      -3.406  10.171  17.307  0.00  0.00    +0.000 A 
ATOM     28  C   UNL     1      -2.071  10.326  17.675  0.00  0.00    +0.000 A 
ATOM     29  F   UNL     1      -1.150   9.562  17.068  0.00  0.00    +0.000 F 
ENDBRANCH  21  22
ENDBRANCH  17  21
ENDBRANCH   4  17
TORSDOF 9
ENDMDL
MODEL 4
REMARK VINA RESULT:      -7.2      1.990      2.654
REMARK  Name = 
REMARK  10 active torsions:
REMARK  status: ('A' for Active; 'I' for Inactive)
REMARK    1  A    between atoms: C_1  and  N_2
REMARK    2  A    between atoms: N_2  and  C_10
REMARK    3  A    between atoms: C_3  and  C_5
REMARK    4  A    between atoms: C_5  and  C_6
REMARK    5  A    between atoms: C_6  and  C_7
REMARK    6  A    between atoms: C_7  and  O_9
REMARK    7  A    between atoms: C_13  and  C_14
REMARK    8  A    between atoms: C_14  and  N_15
REMARK    9  A    between atoms: C_14  and  C_16
REMARK   10  A    between atoms: C_16  and  C_17
REMARK                            x       y       z     vdW  Elec       q    Type
REMARK                         _______ _______ _______ _____ _____    ______ ____
ROOT
ATOM      1  C   UNL     1       2.934   7.280  18.769  0.00  0.00    +0.000 C 
ATOM      2  C   UNL     1       2.392   7.990  17.519  0.00  0.00    +0.000 C 
ATOM      3  C   UNL     1       1.921   9.417  17.830  0.00  0.00    +0.000 C 
ATOM      4  C   UNL     1       0.885   9.455  18.971  0.00  0.00    +0.000 C 
ATOM      5  C   UNL     1       1.436   8.732  20.216  0.00  0.00    +0.000 C 
ATOM      6  C   UNL     1       1.897   7.316  19.901  0.00  0.00    +0.000 C 
ENDROOT
BRANCH   1   8
ATOM      7  C   UNL     1       2.540   4.786  18.855  0.00  0.00    +0.000 C 
ATOM      8  N   UNL     1       3.401   5.906  18.469  0.00  0.00    +0.000 N 
ATOM      9  C   UNL     1       4.595   5.756  17.765  0.00  0.00    +0.000 C 
ATOM     10  O   UNL     1       5.270   6.712  17.386  0.00  0.00    +0.000 OA
BRANCH   9  11
ATOM     11  C   UNL     1       5.048   4.333  17.488  0.00  0.00    +0.000 C 
BRANCH  11  12
ATOM     12  C   UNL     1       5.837   4.213  16.197  0.00  0.00    +0.000 C 
BRANCH  12  13
ATOM     13  C   UNL     1       7.251   4.699  16.391  0.00  0.00    +0.000 C 
ATOM     14  O   UNL     1       8.066   4.200  17.150  0.00  0.00    +0.000 OA
BRANCH  13  15
ATOM     15  O   UNL     1       7.539   5.773  15.620  0.00  0.00    +0.000 OA
ATOM     16  H   UNL     1       7.966   5.539  14.773  0.00  0.00    +0.000 HD
ENDBRANCH  13  15
ENDBRANCH  12  13
ENDBRANCH  11  12
ENDBRANCH   9  11
ENDBRANCH   1   8
BRANCH   4  17
ATOM     17  C   UNL     1       0.352  10.881  19.329  0.00  0.00    +0.000 C 
BRANCH  17  18
ATOM     18  N   UNL     1       0.684  11.910  18.337  0.00  0.00    +0.000 NA
ATOM     19  H   UNL     1       0.003  12.666  18.346  0.00  0.00    +0.000 HD
ATOM     20  H   UNL     1       0.720  11.540  17.392  0.00  0.00    +0.000 HD
ENDBRANCH  17  18
BRANCH  17  21
ATOM     21  C   UNL     1      -1.175  10.872  19.608  0.00  0.00    +0.000 C 
BRANCH  21  22
ATOM     22  C   UNL     1      -2.112  10.789  18.420  0.00  0.00    +0.000 A 
ATOM     23  C   UNL     1      -1.847  10.005  17.290  0.00  0.00    +0.000 A 
ATOM     24  C   UNL     1      -2.716  10.030  16.200  0.00  0.00    +0.000 A 
ATOM     25  F   UNL     1      -2.443   9.281  15.124  0.00  0.00    +0.000 F 
ATOM     26  C   UNL     1      -3.856  10.828  16.203  0.00  0.00    +0.000 A 
ATOM     27  C   UNL     1      -4.140  11.602  17.324  0.00  0.00    +0.000 A 
ATOM     28  C   UNL     1      -3.271  11.580  18.413  0.00  0.00    +0.000 A 
ATOM     29  F   UNL     1      -3.564  12.342  19.478  0.00  0.00    +0.000 F 
ENDBRANCH  21  22
ENDBRANCH  17  21
ENDBRANCH   4  17
TORSDOF 9
ENDMDL
MODEL 5
REMARK VINA RESULT:      -7.1      2.380      3.025
REMARK  Name = 
REMARK  10 active torsions:
REMARK  status: ('A' for Active; 'I' for Inactive)
REMARK    1  A    between atoms: C_1  and  N_2
REMARK    2  A    between atoms: N_2  and  C_10
REMARK    3  A    between atoms: C_3  and  C_5
REMARK    4  A    between atoms: C_5  and  C_6
REMARK    5  A    between atoms: C_6  and  C_7
REMARK    6  A    between atoms: C_7  and  O_9
REMARK    7  A    between atoms: C_13  and  C_14
REMARK    8  A    between atoms: C_14  and  N_15
REMARK    9  A    between atoms: C_14  and  C_16
REMARK   10  A    between atoms: C_16  and  C_17
REMARK                            x       y       z     vdW  Elec       q    Type
REMARK                         _______ _______ _______ _____ _____    ______ ____
ROOT
ATOM      1  C   UNL     1       2.791   7.381  18.718  0.00  0.00    +0.000 C 
ATOM      2  C   UNL     1       2.034   8.308  17.754  0.00  0.00    +0.000 C 
ATOM      3  C   UNL     1       1.559   9.591  18.448  0.00  0.00    +0.000 C 
ATOM      4  C   UNL     1       0.711   9.298  19.702  0.00  0.00    +0.000 C 
ATOM      5  C   UNL     1       1.476   8.361  20.656  0.00  0.00    +0.000 C 
ATOM      6  C   UNL     1       1.940   7.088  19.962  0.00  0.00    +0.000 C 
ENDROOT
BRANCH   1   8
ATOM      7  C   UNL     1       2.379   4.978  18.056  0.00  0.00    +0.000 C 
ATOM      8  N   UNL     1       3.262   6.147  18.047  0.00  0.00    +0.000 N 
ATOM      9  C   UNL     1       4.482   6.188  17.375  0.00  0.00    +0.000 C 
ATOM     10  O   UNL     1       5.179   7.201  17.318  0.00  0.00    +0.000 OA
BRANCH   9  11
ATOM     11  C   UNL     1       4.939   4.899  16.712  0.00  0.00    +0.000 C 
BRANCH  11  12
ATOM     12  C   UNL     1       5.270   5.086  15.243  0.00  0.00    +0.000 C 
BRANCH  12  13
ATOM     13  C   UNL     1       6.589   4.438  14.909  0.00  0.00    +0.000 C 
ATOM     14  O   UNL     1       7.676   4.798  15.333  0.00  0.00    +0.000 OA
BRANCH  13  15
ATOM     15  O   UNL     1       6.451   3.387  14.069  0.00  0.00    +0.000 OA
ATOM     16  H   UNL     1       7.133   3.355  13.370  0.00  0.00    +0.000 HD
ENDBRANCH  13  15
ENDBRANCH  12  13
ENDBRANCH  11  12
ENDBRANCH   9  11
ENDBRANCH   1   8
BRANCH   4  17
ATOM     17  C   UNL     1       0.182  10.566  20.449  0.00  0.00    +0.000 C 
BRANCH  17  18
ATOM     18  N   UNL     1       1.167  11.192  21.337  0.00  0.00    +0.000 NA
ATOM     19  H   UNL     1       1.675  10.495  21.876  0.00  0.00    +0.000 HD
ATOM     20  H   UNL     1       0.741  11.838  21.994  0.00  0.00    +0.000 HD
ENDBRANCH  17  18
BRANCH  17  21
ATOM     21  C   UNL     1      -0.401  11.614  19.463  0.00  0.00    +0.000 C 
BRANCH  21  22
ATOM     22  C   UNL     1      -1.737  11.312  18.815  0.00  0.00    +0.000 A 
ATOM     23  C   UNL     1      -1.881  10.435  17.732  0.00  0.00    +0.000 A 
ATOM     24  C   UNL     1      -3.128  10.257  17.135  0.00  0.00    +0.000 A 
ATOM     25  F   UNL     1      -3.247   9.422  16.095  0.00  0.00    +0.000 F 
ATOM     26  C   UNL     1      -4.251  10.940  17.592  0.00  0.00    +0.000 A 
ATOM     27  C   UNL     1      -4.127  11.805  18.675  0.00  0.00    +0.000 A 
ATOM     28  C   UNL     1      -2.880  11.985  19.272  0.00  0.00    +0.000 A 
ATOM     29  F   UNL     1      -2.786  12.830  20.309  0.00  0.00    +0.000 F 
ENDBRANCH  21  22
ENDBRANCH  17  21
ENDBRANCH   4  17
TORSDOF 9
ENDMDL
MODEL 6
REMARK VINA RESULT:      -7.1      2.262      3.130
REMARK  Name = 
REMARK  10 active torsions:
REMARK  status: ('A' for Active; 'I' for Inactive)
REMARK    1  A    between atoms: C_1  and  N_2
REMARK    2  A    between atoms: N_2  and  C_10
REMARK    3  A    between atoms: C_3  and  C_5
REMARK    4  A    between atoms: C_5  and  C_6
REMARK    5  A    between atoms: C_6  and  C_7
REMARK    6  A    between atoms: C_7  and  O_9
REMARK    7  A    between atoms: C_13  and  C_14
REMARK    8  A    between atoms: C_14  and  N_15
REMARK    9  A    between atoms: C_14  and  C_16
REMARK   10  A    between atoms: C_16  and  C_17
REMARK                            x       y       z     vdW  Elec       q    Type
REMARK                         _______ _______ _______ _____ _____    ______ ____
ROOT
ATOM      1  C   UNL     1       2.962   6.712  18.146  0.00  0.00    +0.000 C 
ATOM      2  C   UNL     1       2.795   6.685  19.673  0.00  0.00    +0.000 C 
ATOM      3  C   UNL     1       1.541   7.445  20.126  0.00  0.00    +0.000 C 
ATOM      4  C   UNL     1       1.513   8.894  19.599  0.00  0.00    +0.000 C 
ATOM      5  C   UNL     1       1.689   8.908  18.068  0.00  0.00    +0.000 C 
ATOM      6  C   UNL     1       2.937   8.157  17.626  0.00  0.00    +0.000 C 
ENDROOT
BRANCH   1   8
ATOM      7  C   UNL     1       5.468   6.621  17.848  0.00  0.00    +0.000 C 
ATOM      8  N   UNL     1       4.165   5.969  17.705  0.00  0.00    +0.000 N 
ATOM      9  C   UNL     1       4.001   4.660  17.253  0.00  0.00    +0.000 C 
ATOM     10  O   UNL     1       2.905   4.103  17.207  0.00  0.00    +0.000 OA
BRANCH   9  11
ATOM     11  C   UNL     1       5.255   3.935  16.796  0.00  0.00    +0.000 C 
BRANCH  11  12
ATOM     12  C   UNL     1       5.614   4.246  15.355  0.00  0.00    +0.000 C 
BRANCH  12  13
ATOM     13  C   UNL     1       7.041   4.721  15.253  0.00  0.00    +0.000 C 
ATOM     14  O   UNL     1       7.514   5.323  14.302  0.00  0.00    +0.000 OA
BRANCH  13  15
ATOM     15  O   UNL     1       7.770   4.409  16.349  0.00  0.00    +0.000 OA
ATOM     16  H   UNL     1       7.479   3.587  16.788  0.00  0.00    +0.000 HD
ENDBRANCH  13  15
ENDBRANCH  12  13
ENDBRANCH  11  12
ENDBRANCH   9  11
ENDBRANCH   1   8
BRANCH   4  17
ATOM     17  C   UNL     1       0.266   9.729  20.038  0.00  0.00    +0.000 C 
BRANCH  17  18
ATOM     18  N   UNL     1       0.379  10.315  21.378  0.00  0.00    +0.000 NA
ATOM     19  H   UNL     1       1.343  10.308  21.704  0.00  0.00    +0.000 HD
ATOM     20  H   UNL     1      -0.182   9.820  22.066  0.00  0.00    +0.000 HD
ENDBRANCH  17  18
BRANCH  17  21
ATOM     21  C   UNL     1      -0.088  10.825  18.997  0.00  0.00    +0.000 C 
BRANCH  21  22
ATOM     22  C   UNL     1      -1.537  10.961  18.575  0.00  0.00    +0.000 A 
ATOM     23  C   UNL     1      -2.438  11.833  19.202  0.00  0.00    +0.000 A 
ATOM     24  C   UNL     1      -3.776  11.856  18.813  0.00  0.00    +0.000 A 
ATOM     25  F   UNL     1      -4.625  12.689  19.428  0.00  0.00    +0.000 F 
ATOM     26  C   UNL     1      -4.249  11.023  17.804  0.00  0.00    +0.000 A 
ATOM     27  C   UNL     1      -3.365  10.162  17.162  0.00  0.00    +0.000 A 
ATOM     28  C   UNL     1      -2.027  10.136  17.552  0.00  0.00    +0.000 A 
ATOM     29  F   UNL     1      -1.197   9.290  16.923  0.00  0.00    +0.000 F 
ENDBRANCH  21  22
ENDBRANCH  17  21
ENDBRANCH   4  17
TORSDOF 9
ENDMDL
MODEL 7
REMARK VINA RESULT:      -7.0      4.511      8.334
REMARK  Name = 
REMARK  10 active torsions:
REMARK  status: ('A' for Active; 'I' for Inactive)
REMARK    1  A    between atoms: C_1  and  N_2
REMARK    2  A    between atoms: N_2  and  C_10
REMARK    3  A    between atoms: C_3  and  C_5
REMARK    4  A    between atoms: C_5  and  C_6
REMARK    5  A    between atoms: C_6  and  C_7
REMARK    6  A    between atoms: C_7  and  O_9
REMARK    7  A    between atoms: C_13  and  C_14
REMARK    8  A    between atoms: C_14  and  N_15
REMARK    9  A    between atoms: C_14  and  C_16
REMARK   10  A    between atoms: C_16  and  C_17
REMARK                            x       y       z     vdW  Elec       q    Type
REMARK                         _______ _______ _______ _____ _____    ______ ____
ROOT
ATOM      1  C   UNL     1       1.131  10.057  19.584  0.00  0.00    +0.000 C 
ATOM      2  C   UNL     1       1.021   8.722  20.335  0.00  0.00    +0.000 C 
ATOM      3  C   UNL     1       2.131   7.742  19.929  0.00  0.00    +0.000 C 
ATOM      4  C   UNL     1       2.177   7.510  18.406  0.00  0.00    +0.000 C 
ATOM      5  C   UNL     1       2.279   8.857  17.664  0.00  0.00    +0.000 C 
ATOM      6  C   UNL     1       1.173   9.821  18.067  0.00  0.00    +0.000 C 
ENDROOT
BRANCH   1   8
ATOM      7  C   UNL     1      -1.296  10.753  19.517  0.00  0.00    +0.000 C 
ATOM      8  N   UNL     1       0.068  11.009  19.983  0.00  0.00    +0.000 N 
ATOM      9  C   UNL     1       0.407  12.050  20.847  0.00  0.00    +0.000 C 
ATOM     10  O   UNL     1       1.545  12.208  21.286  0.00  0.00    +0.000 OA
BRANCH   9  11
ATOM     11  C   UNL     1      -0.706  13.013  21.222  0.00  0.00    +0.000 C 
BRANCH  11  12
ATOM     12  C   UNL     1      -0.978  13.036  22.715  0.00  0.00    +0.000 C 
BRANCH  12  13
ATOM     13  C   UNL     1      -1.809  11.847  23.122  0.00  0.00    +0.000 C 
ATOM     14  O   UNL     1      -3.028  11.834  23.192  0.00  0.00    +0.000 OA
BRANCH  13  15
ATOM     15  O   UNL     1      -1.055  10.761  23.410  0.00  0.00    +0.000 OA
ATOM     16  H   UNL     1      -0.648  10.795  24.297  0.00  0.00    +0.000 HD
ENDBRANCH  13  15
ENDBRANCH  12  13
ENDBRANCH  11  12
ENDBRANCH   9  11
ENDBRANCH   1   8
BRANCH   4  17
ATOM     17  C   UNL     1       3.279   6.509  17.926  0.00  0.00    +0.000 C 
BRANCH  17  18
ATOM     18  N   UNL     1       4.475   7.155  17.376  0.00  0.00    +0.000 NA
ATOM     19  H   UNL     1       5.177   6.468  17.109  0.00  0.00    +0.000 HD
ATOM     20  H   UNL     1       4.908   7.795  18.036  0.00  0.00    +0.000 HD
ENDBRANCH  17  18
BRANCH  17  21
ATOM     21  C   UNL     1       3.672   5.507  19.045  0.00  0.00    +0.000 C 
BRANCH  21  22
ATOM     22  C   UNL     1       2.752   4.330  19.297  0.00  0.00    +0.000 A 
ATOM     23  C   UNL     1       2.214   4.035  20.557  0.00  0.00    +0.000 A 
ATOM     24  C   UNL     1       1.433   2.895  20.737  0.00  0.00    +0.000 A 
ATOM     25  F   UNL     1       0.934   2.623  21.949  0.00  0.00    +0.000 F 
ATOM     26  C   UNL     1       1.170   2.027  19.682  0.00  0.00    +0.000 A 
ATOM     27  C   UNL     1       1.685   2.313  18.421  0.00  0.00    +0.000 A 
ATOM     28  C   UNL     1       2.468   3.451  18.241  0.00  0.00    +0.000 A 
ATOM     29  F   UNL     1       2.959   3.699  17.017  0.00  0.00    +0.000 F 
ENDBRANCH  21  22
ENDBRANCH  17  21
ENDBRANCH   4  17
TORSDOF 9
ENDMDL
MODEL 8
REMARK VINA RESULT:      -7.0      2.651      3.122
REMARK  Name = 
REMARK  10 active torsions:
REMARK  status: ('A' for Active; 'I' for Inactive)
REMARK    1  A    between atoms: C_1  and  N_2
REMARK    2  A    between atoms: N_2  and  C_10
REMARK    3  A    between atoms: C_3  and  C_5
REMARK    4  A    between atoms: C_5  and  C_6
REMARK    5  A    between atoms: C_6  and  C_7
REMARK    6  A    between atoms: C_7  and  O_9
REMARK    7  A    between atoms: C_13  and  C_14
REMARK    8  A    between atoms: C_14  and  N_15
REMARK    9  A    between atoms: C_14  and  C_16
REMARK   10  A    between atoms: C_16  and  C_17
REMARK                            x       y       z     vdW  Elec       q    Type
REMARK                         _______ _______ _______ _____ _____    ______ ____
ROOT
ATOM      1  C   UNL     1       3.489   6.353  17.901  0.00  0.00    +0.000 C 
ATOM      2  C   UNL     1       3.377   6.196  19.425  0.00  0.00    +0.000 C 
ATOM      3  C   UNL     1       2.082   6.811  19.972  0.00  0.00    +0.000 C 
ATOM      4  C   UNL     1       1.918   8.288  19.562  0.00  0.00    +0.000 C 
ATOM      5  C   UNL     1       2.041   8.434  18.032  0.00  0.00    +0.000 C 
ATOM      6  C   UNL     1       3.330   7.826  17.498  0.00  0.00    +0.000 C 
ENDROOT
BRANCH   1   8
ATOM      7  C   UNL     1       5.983   6.495  17.527  0.00  0.00    +0.000 C 
ATOM      8  N   UNL     1       4.733   5.748  17.370  0.00  0.00    +0.000 N 
ATOM      9  C   UNL     1       4.660   4.469  16.822  0.00  0.00    +0.000 C 
ATOM     10  O   UNL     1       3.613   3.826  16.763  0.00  0.00    +0.000 OA
BRANCH   9  11
ATOM     11  C   UNL     1       5.953   3.888  16.274  0.00  0.00    +0.000 C 
BRANCH  11  12
ATOM     12  C   UNL     1       5.936   3.752  14.763  0.00  0.00    +0.000 C 
BRANCH  12  13
ATOM     13  C   UNL     1       6.951   4.672  14.135  0.00  0.00    +0.000 C 
ATOM     14  O   UNL     1       7.628   5.487  14.740  0.00  0.00    +0.000 OA
BRANCH  13  15
ATOM     15  O   UNL     1       7.044   4.503  12.796  0.00  0.00    +0.000 OA
ATOM     16  H   UNL     1       7.309   3.599  12.535  0.00  0.00    +0.000 HD
ENDBRANCH  13  15
ENDBRANCH  12  13
ENDBRANCH  11  12
ENDBRANCH   9  11
ENDBRANCH   1   8
BRANCH   4  17
ATOM     17  C   UNL     1       0.623   8.980  20.099  0.00  0.00    +0.000 C 
BRANCH  17  18
ATOM     18  N   UNL     1       0.601   9.161  21.555  0.00  0.00    +0.000 NA
ATOM     19  H   UNL     1      -0.351   9.250  21.902  0.00  0.00    +0.000 HD
ATOM     20  H   UNL     1       1.114   9.986  21.851  0.00  0.00    +0.000 HD
ENDBRANCH  17  18
BRANCH  17  21
ATOM     21  C   UNL     1       0.352  10.331  19.383  0.00  0.00    +0.000 C 
BRANCH  21  22
ATOM     22  C   UNL     1      -0.992  10.520  18.710  0.00  0.00    +0.000 A 
ATOM     23  C   UNL     1      -1.361   9.850  17.536  0.00  0.00    +0.000 A 
ATOM     24  C   UNL     1      -2.585  10.124  16.928  0.00  0.00    +0.000 A 
ATOM     25  F   UNL     1      -2.917   9.482  15.801  0.00  0.00    +0.000 F 
ATOM     26  C   UNL     1      -3.463  11.062  17.463  0.00  0.00    +0.000 A 
ATOM     27  C   UNL     1      -3.117  11.726  18.636  0.00  0.00    +0.000 A 
ATOM     28  C   UNL     1      -1.893  11.454  19.244  0.00  0.00    +0.000 A 
ATOM     29  F   UNL     1      -1.580  12.114  20.369  0.00  0.00    +0.000 F 
ENDBRANCH  21  22
ENDBRANCH  17  21
ENDBRANCH   4  17
TORSDOF 9
ENDMDL
MODEL 9
REMARK VINA RESULT:      -7.0      1.374      1.879
REMARK  Name = 
REMARK  10 active torsions:
REMARK  status: ('A' for Active; 'I' for Inactive)
REMARK    1  A    between atoms: C_1  and  N_2
REMARK    2  A    between atoms: N_2  and  C_10
REMARK    3  A    between atoms: C_3  and  C_5
REMARK    4  A    between atoms: C_5  and  C_6
REMARK    5  A    between atoms: C_6  and  C_7
REMARK    6  A    between atoms: C_7  and  O_9
REMARK    7  A    between atoms: C_13  and  C_14
REMARK    8  A    between atoms: C_14  and  N_15
REMARK    9  A    between atoms: C_14  and  C_16
REMARK   10  A    between atoms: C_16  and  C_17
REMARK                            x       y       z     vdW  Elec       q    Type
REMARK                         _______ _______ _______ _____ _____    ______ ____
ROOT
ATOM      1  C   UNL     1       2.651   7.158  19.590  0.00  0.00    +0.000 C 
ATOM      2  C   UNL     1       2.184   7.619  18.200  0.00  0.00    +0.000 C 
ATOM      3  C   UNL     1       1.791   9.103  18.191  0.00  0.00    +0.000 C 
ATOM      4  C   UNL     1       0.731   9.433  19.261  0.00  0.00    +0.000 C 
ATOM      5  C   UNL     1       1.207   8.958  20.648  0.00  0.00    +0.000 C 
ATOM      6  C   UNL     1       1.591   7.485  20.651  0.00  0.00    +0.000 C 
ENDROOT
BRANCH   1   8
ATOM      7  C   UNL     1       2.150   4.774  20.257  0.00  0.00    +0.000 C 
ATOM      8  N   UNL     1       3.044   5.729  19.598  0.00  0.00    +0.000 N 
ATOM      9  C   UNL     1       4.198   5.359  18.910  0.00  0.00    +0.000 C 
ATOM     10  O   UNL     1       4.899   6.167  18.300  0.00  0.00    +0.000 OA
BRANCH   9  11
ATOM     11  C   UNL     1       4.576   3.889  18.953  0.00  0.00    +0.000 C 
BRANCH  11  12
ATOM     12  C   UNL     1       4.169   3.146  17.694  0.00  0.00    +0.000 C 
BRANCH  12  13
ATOM     13  C   UNL     1       3.345   1.930  18.037  0.00  0.00    +0.000 C 
ATOM     14  O   UNL     1       2.126   1.900  18.084  0.00  0.00    +0.000 OA
BRANCH  13  15
ATOM     15  O   UNL     1       4.109   0.843  18.293  0.00  0.00    +0.000 OA
ATOM     16  H   UNL     1       5.056   1.052  18.408  0.00  0.00    +0.000 HD
ENDBRANCH  13  15
ENDBRANCH  12  13
ENDBRANCH  11  12
ENDBRANCH   9  11
ENDBRANCH   1   8
BRANCH   4  17
ATOM     17  C   UNL     1       0.275  10.928  19.295  0.00  0.00    +0.000 C 
BRANCH  17  18
ATOM     18  N   UNL     1       0.664  11.700  18.110  0.00  0.00    +0.000 NA
ATOM     19  H   UNL     1      -0.081  11.713  17.417  0.00  0.00    +0.000 HD
ATOM     20  H   UNL     1       1.495  11.327  17.661  0.00  0.00    +0.000 HD
ENDBRANCH  17  18
BRANCH  17  21
ATOM     21  C   UNL     1      -1.251  11.059  19.549  0.00  0.00    +0.000 C 
BRANCH  21  22
ATOM     22  C   UNL     1      -2.183  10.901  18.364  0.00  0.00    +0.000 A 
ATOM     23  C   UNL     1      -1.897  10.073  17.271  0.00  0.00    +0.000 A 
ATOM     24  C   UNL     1      -2.763  10.029  16.179  0.00  0.00    +0.000 A 
ATOM     25  F   UNL     1      -2.469   9.239  15.139  0.00  0.00    +0.000 F 
ATOM     26  C   UNL     1      -3.920  10.799  16.145  0.00  0.00    +0.000 A 
ATOM     27  C   UNL     1      -4.226  11.617  17.229  0.00  0.00    +0.000 A 
ATOM     28  C   UNL     1      -3.360  11.663  18.320  0.00  0.00    +0.000 A 
ATOM     29  F   UNL     1      -3.673  12.466  19.348  0.00  0.00    +0.000 F 
ENDBRANCH  21  22
ENDBRANCH  17  21
ENDBRANCH   4  17
TORSDOF 9
ENDMDL
