MODEL 1
REMARK VINA RESULT:      -8.7      0.000      0.000
REMARK  Name = 
REMARK  3 active torsions:
REMARK  status: ('A' for Active; 'I' for Inactive)
REMARK    1  A    between atoms: C_1  and  N_2
REMARK    2  A    between atoms: C_4  and  C_5
REMARK    3  A    between atoms: C_12  and  N_13
REMARK                            x       y       z     vdW  Elec       q    Type
REMARK                         _______ _______ _______ _____ _____    ______ ____
ROOT
ATOM      1  C   UNL     1      -0.138  10.732  21.864  0.00  0.00    +0.000 A 
ATOM      2  C   UNL     1       0.655   9.864  22.582  0.00  0.00    +0.000 A 
ATOM      3  C   UNL     1       1.345   8.865  21.898  0.00  0.00    +0.000 A 
ATOM      4  C   UNL     1       1.214   8.745  20.520  0.00  0.00    +0.000 A 
ATOM      5  N   UNL     1       1.730   7.670  19.814  0.00  0.00    +0.000 N 
ATOM      6  C   UNL     1       2.288   7.963  18.492  0.00  0.00    +0.000 C 
ATOM      7  C   UNL     1       2.214   6.751  17.569  0.00  0.00    +0.000 C 
ATOM      8  C   UNL     1       2.626   5.435  18.237  0.00  0.00    +0.000 C 
ATOM      9  C   UNL     1       1.849   5.241  19.541  0.00  0.00    +0.000 C 
ATOM     10  C   UNL     1       2.002   6.413  20.497  0.00  0.00    +0.000 C 
ATOM     11  N   UNL     1       0.487   9.667  19.855  0.00  0.00    +0.000 NA
ATOM     12  N   UNL     1      -0.203  10.654  20.521  0.00  0.00    +0.000 NA
ENDROOT
BRANCH   8  13
ATOM     13  N   UNL     1       4.076   5.261  18.385  0.00  0.00    +0.000 N 
ATOM     14  C   UNL     1       4.780   5.381  19.556  0.00  0.00    +0.000 A 
ATOM     15  C   UNL     1       6.110   5.173  19.302  0.00  0.00    +0.000 A 
ATOM     16  C   UNL     1       6.245   4.909  17.923  0.00  0.00    +0.000 A 
ATOM     17  C   UNL     1       7.362   4.630  17.111  0.00  0.00    +0.000 A 
ATOM     18  C   UNL     1       7.176   4.399  15.750  0.00  0.00    +0.000 A 
ATOM     19  C   UNL     1       5.901   4.436  15.210  0.00  0.00    +0.000 A 
ATOM     20  F   UNL     1       5.745   4.207  13.900  0.00  0.00    +0.000 F 
ATOM     21  C   UNL     1       4.772   4.708  15.986  0.00  0.00    +0.000 A 
ATOM     22  C   UNL     1       4.960   4.952  17.357  0.00  0.00    +0.000 A 
ENDBRANCH   8  13
BRANCH   1  26
ATOM     23  C   UNL     1      -3.861  12.884  24.314  0.00  0.00    +0.000 C 
ATOM     24  N   UNL     1      -2.625  12.655  23.607  0.00  0.00    +0.000 N 
ATOM     25  C   UNL     1      -2.163  11.465  23.137  0.00  0.00    +0.000 A 
ATOM     26  C   UNL     1      -0.966  11.733  22.503  0.00  0.00    +0.000 A 
ATOM     27  C   UNL     1      -0.795  13.123  22.676  0.00  0.00    +0.000 A 
ATOM     28  N   UNL     1      -1.806  13.690  23.344  0.00  0.00    +0.000 NA
ENDBRANCH   1  26
TORSDOF 2
ENDMDL
MODEL 2
REMARK VINA RESULT:      -7.8      3.846     10.510
REMARK  Name = 
REMARK  3 active torsions:
REMARK  status: ('A' for Active; 'I' for Inactive)
REMARK    1  A    between atoms: C_1  and  N_2
REMARK    2  A    between atoms: C_4  and  C_5
REMARK    3  A    between atoms: C_12  and  N_13
REMARK                            x       y       z     vdW  Elec       q    Type
REMARK                         _______ _______ _______ _____ _____    ______ ____
ROOT
ATOM      1  C   UNL     1       2.717   6.978  18.411  0.00  0.00    +0.000 A 
ATOM      2  C   UNL     1       2.589   8.160  17.714  0.00  0.00    +0.000 A 
ATOM      3  C   UNL     1       1.936   9.229  18.323  0.00  0.00    +0.000 A 
ATOM      4  C   UNL     1       1.410   9.090  19.602  0.00  0.00    +0.000 A 
ATOM      5  N   UNL     1       0.600  10.052  20.184  0.00  0.00    +0.000 N 
ATOM      6  C   UNL     1       0.777  10.273  21.620  0.00  0.00    +0.000 C 
ATOM      7  C   UNL     1      -0.500  10.798  22.269  0.00  0.00    +0.000 C 
ATOM      8  C   UNL     1      -1.201  11.896  21.464  0.00  0.00    +0.000 C 
ATOM      9  C   UNL     1      -1.411  11.437  20.018  0.00  0.00    +0.000 C 
ATOM     10  C   UNL     1      -0.118  11.002  19.346  0.00  0.00    +0.000 C 
ATOM     11  N   UNL     1       1.629   7.938  20.270  0.00  0.00    +0.000 NA
ATOM     12  N   UNL     1       2.268   6.873  19.676  0.00  0.00    +0.000 NA
ENDROOT
BRANCH   8  13
ATOM     13  N   UNL     1      -0.575  13.220  21.574  0.00  0.00    +0.000 N 
ATOM     14  C   UNL     1       0.260  13.788  20.646  0.00  0.00    +0.000 A 
ATOM     15  C   UNL     1       0.666  15.015  21.102  0.00  0.00    +0.000 A 
ATOM     16  C   UNL     1       0.060  15.226  22.358  0.00  0.00    +0.000 A 
ATOM     17  C   UNL     1       0.115  16.293  23.277  0.00  0.00    +0.000 A 
ATOM     18  C   UNL     1      -0.617  16.215  24.459  0.00  0.00    +0.000 A 
ATOM     19  C   UNL     1      -1.397  15.099  24.718  0.00  0.00    +0.000 A 
ATOM     20  F   UNL     1      -2.096  15.047  25.858  0.00  0.00    +0.000 F 
ATOM     21  C   UNL     1      -1.477  14.025  23.828  0.00  0.00    +0.000 A 
ATOM     22  C   UNL     1      -0.730  14.098  22.640  0.00  0.00    +0.000 A 
ENDBRANCH   8  13
BRANCH   1  26
ATOM     23  C   UNL     1       5.752   3.964  15.922  0.00  0.00    +0.000 C 
ATOM     24  N   UNL     1       4.666   4.474  16.721  0.00  0.00    +0.000 N 
ATOM     25  C   UNL     1       4.469   5.767  17.097  0.00  0.00    +0.000 A 
ATOM     26  C   UNL     1       3.291   5.788  17.818  0.00  0.00    +0.000 A 
ATOM     27  C   UNL     1       2.877   4.439  17.832  0.00  0.00    +0.000 A 
ATOM     28  N   UNL     1       3.710   3.636  17.160  0.00  0.00    +0.000 NA
ENDBRANCH   1  26
TORSDOF 2
ENDMDL
MODEL 3
REMARK VINA RESULT:      -7.7      4.433      9.612
REMARK  Name = 
REMARK  3 active torsions:
REMARK  status: ('A' for Active; 'I' for Inactive)
REMARK    1  A    between atoms: C_1  and  N_2
REMARK    2  A    between atoms: C_4  and  C_5
REMARK    3  A    between atoms: C_12  and  N_13
REMARK                            x       y       z     vdW  Elec       q    Type
REMARK                         _______ _______ _______ _____ _____    ______ ____
ROOT
ATOM      1  C   UNL     1       2.009   5.991  19.691  0.00  0.00    +0.000 A 
ATOM      2  C   UNL     1       2.402   6.798  18.644  0.00  0.00    +0.000 A 
ATOM      3  C   UNL     1       2.139   8.164  18.718  0.00  0.00    +0.000 A 
ATOM      4  C   UNL     1       1.478   8.690  19.822  0.00  0.00    +0.000 A 
ATOM      5  N   UNL     1       1.033  10.002  19.869  0.00  0.00    +0.000 N 
ATOM      6  C   UNL     1       1.140  10.681  21.161  0.00  0.00    +0.000 C 
ATOM      7  C   UNL     1       0.095  11.784  21.304  0.00  0.00    +0.000 C 
ATOM      8  C   UNL     1      -0.063  12.657  20.055  0.00  0.00    +0.000 C 
ATOM      9  C   UNL     1      -0.288  11.777  18.823  0.00  0.00    +0.000 C 
ATOM     10  C   UNL     1       0.807  10.739  18.634  0.00  0.00    +0.000 C 
ATOM     11  N   UNL     1       1.184   7.870  20.852  0.00  0.00    +0.000 NA
ATOM     12  N   UNL     1       1.433   6.518  20.788  0.00  0.00    +0.000 NA
ENDROOT
BRANCH   8  13
ATOM     13  N   UNL     1       0.998  13.655  19.877  0.00  0.00    +0.000 N 
ATOM     14  C   UNL     1       2.306  13.509  20.261  0.00  0.00    +0.000 A 
ATOM     15  C   UNL     1       2.994  14.653  19.956  0.00  0.00    +0.000 A 
ATOM     16  C   UNL     1       2.086  15.549  19.354  0.00  0.00    +0.000 A 
ATOM     17  C   UNL     1       2.230  16.856  18.847  0.00  0.00    +0.000 A 
ATOM     18  C   UNL     1       1.126  17.498  18.292  0.00  0.00    +0.000 A 
ATOM     19  C   UNL     1      -0.097  16.848  18.234  0.00  0.00    +0.000 A 
ATOM     20  F   UNL     1      -1.143  17.483  17.692  0.00  0.00    +0.000 F 
ATOM     21  C   UNL     1      -0.274  15.553  18.726  0.00  0.00    +0.000 A 
ATOM     22  C   UNL     1       0.837  14.908  19.296  0.00  0.00    +0.000 A 
ENDBRANCH   8  13
BRANCH   1  26
ATOM     23  C   UNL     1       3.595   1.456  18.504  0.00  0.00    +0.000 C 
ATOM     24  N   UNL     1       2.889   2.553  19.118  0.00  0.00    +0.000 N 
ATOM     25  C   UNL     1       3.064   3.878  18.864  0.00  0.00    +0.000 A 
ATOM     26  C   UNL     1       2.152   4.551  19.653  0.00  0.00    +0.000 A 
ATOM     27  C   UNL     1       1.493   3.522  20.361  0.00  0.00    +0.000 A 
ATOM     28  N   UNL     1       1.936   2.304  20.034  0.00  0.00    +0.000 NA
ENDBRANCH   1  26
TORSDOF 2
ENDMDL
MODEL 4
REMARK VINA RESULT:      -7.7      3.860     10.340
REMARK  Name = 
REMARK  3 active torsions:
REMARK  status: ('A' for Active; 'I' for Inactive)
REMARK    1  A    between atoms: C_1  and  N_2
REMARK    2  A    between atoms: C_4  and  C_5
REMARK    3  A    between atoms: C_12  and  N_13
REMARK                            x       y       z     vdW  Elec       q    Type
REMARK                         _______ _______ _______ _____ _____    ______ ____
ROOT
ATOM      1  C   UNL     1       2.628   6.600  19.664  0.00  0.00    +0.000 A 
ATOM      2  C   UNL     1       1.840   6.789  20.779  0.00  0.00    +0.000 A 
ATOM      3  C   UNL     1       1.072   7.947  20.867  0.00  0.00    +0.000 A 
ATOM      4  C   UNL     1       1.120   8.897  19.853  0.00  0.00    +0.000 A 
ATOM      5  N   UNL     1       0.521  10.142  19.969  0.00  0.00    +0.000 N 
ATOM      6  C   UNL     1      -0.097  10.684  18.757  0.00  0.00    +0.000 C 
ATOM      7  C   UNL     1      -0.125  12.209  18.775  0.00  0.00    +0.000 C 
ATOM      8  C   UNL     1      -0.555  12.807  20.119  0.00  0.00    +0.000 C 
ATOM      9  C   UNL     1       0.284  12.211  21.253  0.00  0.00    +0.000 C 
ATOM     10  C   UNL     1       0.234  10.692  21.286  0.00  0.00    +0.000 C 
ATOM     11  N   UNL     1       1.847   8.629  18.749  0.00  0.00    +0.000 NA
ATOM     12  N   UNL     1       2.615   7.490  18.653  0.00  0.00    +0.000 NA
ENDROOT
BRANCH   8  13
ATOM     13  N   UNL     1      -2.001  12.755  20.369  0.00  0.00    +0.000 N 
ATOM     14  C   UNL     1      -2.952  12.337  19.474  0.00  0.00    +0.000 A 
ATOM     15  C   UNL     1      -4.190  12.450  20.051  0.00  0.00    +0.000 A 
ATOM     16  C   UNL     1      -4.008  12.953  21.356  0.00  0.00    +0.000 A 
ATOM     17  C   UNL     1      -4.911  13.267  22.391  0.00  0.00    +0.000 A 
ATOM     18  C   UNL     1      -4.421  13.750  23.602  0.00  0.00    +0.000 A 
ATOM     19  C   UNL     1      -3.056  13.909  23.782  0.00  0.00    +0.000 A 
ATOM     20  F   UNL     1      -2.606  14.370  24.955  0.00  0.00    +0.000 F 
ATOM     21  C   UNL     1      -2.133  13.605  22.779  0.00  0.00    +0.000 A 
ATOM     22  C   UNL     1      -2.628  13.128  21.553  0.00  0.00    +0.000 A 
ENDBRANCH   8  13
BRANCH   1  26
ATOM     23  C   UNL     1       4.442   1.997  19.742  0.00  0.00    +0.000 C 
ATOM     24  N   UNL     1       4.302   3.421  19.565  0.00  0.00    +0.000 N 
ATOM     25  C   UNL     1       3.192   4.167  19.814  0.00  0.00    +0.000 A 
ATOM     26  C   UNL     1       3.532   5.477  19.535  0.00  0.00    +0.000 A 
ATOM     27  C   UNL     1       4.872   5.394  19.102  0.00  0.00    +0.000 A 
ATOM     28  N   UNL     1       5.347   4.144  19.123  0.00  0.00    +0.000 NA
ENDBRANCH   1  26
TORSDOF 2
ENDMDL
MODEL 5
REMARK VINA RESULT:      -7.7      3.882     10.312
REMARK  Name = 
REMARK  3 active torsions:
REMARK  status: ('A' for Active; 'I' for Inactive)
REMARK    1  A    between atoms: C_1  and  N_2
REMARK    2  A    between atoms: C_4  and  C_5
REMARK    3  A    between atoms: C_12  and  N_13
REMARK                            x       y       z     vdW  Elec       q    Type
REMARK                         _______ _______ _______ _____ _____    ______ ____
ROOT
ATOM      1  C   UNL     1       2.751   6.371  18.766  0.00  0.00    +0.000 A 
ATOM      2  C   UNL     1       2.721   7.517  17.999  0.00  0.00    +0.000 A 
ATOM      3  C   UNL     1       2.113   8.656  18.522  0.00  0.00    +0.000 A 
ATOM      4  C   UNL     1       1.535   8.622  19.786  0.00  0.00    +0.000 A 
ATOM      5  N   UNL     1       0.765   9.663  20.281  0.00  0.00    +0.000 N 
ATOM      6  C   UNL     1       0.904   9.956  21.708  0.00  0.00    +0.000 C 
ATOM      7  C   UNL     1      -0.361  10.592  22.277  0.00  0.00    +0.000 C 
ATOM      8  C   UNL     1      -0.964  11.682  21.384  0.00  0.00    +0.000 C 
ATOM      9  C   UNL     1      -1.150  11.153  19.960  0.00  0.00    +0.000 C 
ATOM     10  C   UNL     1       0.137  10.603  19.364  0.00  0.00    +0.000 C 
ATOM     11  N   UNL     1       1.658   7.500  20.524  0.00  0.00    +0.000 NA
ATOM     12  N   UNL     1       2.251   6.367  20.016  0.00  0.00    +0.000 NA
ENDROOT
BRANCH   8  13
ATOM     13  N   UNL     1      -0.262  12.970  21.445  0.00  0.00    +0.000 N 
ATOM     14  C   UNL     1       0.691  13.404  20.559  0.00  0.00    +0.000 A 
ATOM     15  C   UNL     1       1.136  14.639  20.949  0.00  0.00    +0.000 A 
ATOM     16  C   UNL     1       0.434  14.996  22.120  0.00  0.00    +0.000 A 
ATOM     17  C   UNL     1       0.478  16.134  22.949  0.00  0.00    +0.000 A 
ATOM     18  C   UNL     1      -0.363  16.205  24.057  0.00  0.00    +0.000 A 
ATOM     19  C   UNL     1      -1.237  15.165  24.330  0.00  0.00    +0.000 A 
ATOM     20  F   UNL     1      -2.039  15.256  25.398  0.00  0.00    +0.000 F 
ATOM     21  C   UNL     1      -1.309  14.024  23.528  0.00  0.00    +0.000 A 
ATOM     22  C   UNL     1      -0.453  13.946  22.415  0.00  0.00    +0.000 A 
ENDBRANCH   8  13
BRANCH   1  26
ATOM     23  C   UNL     1       3.592   1.529  18.185  0.00  0.00    +0.000 C 
ATOM     24  N   UNL     1       3.610   2.961  18.020  0.00  0.00    +0.000 N 
ATOM     25  C   UNL     1       2.917   3.875  18.752  0.00  0.00    +0.000 A 
ATOM     26  C   UNL     1       3.271   5.117  18.264  0.00  0.00    +0.000 A 
ATOM     27  C   UNL     1       4.171   4.825  17.216  0.00  0.00    +0.000 A 
ATOM     28  N   UNL     1       4.384   3.513  17.068  0.00  0.00    +0.000 NA
ENDBRANCH   1  26
TORSDOF 2
ENDMDL
MODEL 6
REMARK VINA RESULT:      -7.6      3.794     10.536
REMARK  Name = 
REMARK  3 active torsions:
REMARK  status: ('A' for Active; 'I' for Inactive)
REMARK    1  A    between atoms: C_1  and  N_2
REMARK    2  A    between atoms: C_4  and  C_5
REMARK    3  A    between atoms: C_12  and  N_13
REMARK                            x       y       z     vdW  Elec       q    Type
REMARK                         _______ _______ _______ _____ _____    ______ ____
ROOT
ATOM      1  C   UNL     1       2.606   7.273  18.420  0.00  0.00    +0.000 A 
ATOM      2  C   UNL     1       2.204   7.388  19.733  0.00  0.00    +0.000 A 
ATOM      3  C   UNL     1       1.482   8.516  20.116  0.00  0.00    +0.000 A 
ATOM      4  C   UNL     1       1.193   9.509  19.187  0.00  0.00    +0.000 A 
ATOM      5  N   UNL     1       0.638  10.727  19.547  0.00  0.00    +0.000 N 
ATOM      6  C   UNL     1      -0.337  11.300  18.618  0.00  0.00    +0.000 C 
ATOM      7  C   UNL     1      -0.386  12.821  18.722  0.00  0.00    +0.000 C 
ATOM      8  C   UNL     1      -0.383  13.347  20.161  0.00  0.00    +0.000 C 
ATOM      9  C   UNL     1       0.779  12.731  20.944  0.00  0.00    +0.000 C 
ATOM     10  C   UNL     1       0.769  11.211  20.914  0.00  0.00    +0.000 C 
ATOM     11  N   UNL     1       1.542   9.312  17.899  0.00  0.00    +0.000 NA
ATOM     12  N   UNL     1       2.261   8.205  17.511  0.00  0.00    +0.000 NA
ENDROOT
BRANCH   8  13
ATOM     13  N   UNL     1      -1.676  13.237  20.847  0.00  0.00    +0.000 N 
ATOM     14  C   UNL     1      -2.822  12.703  20.314  0.00  0.00    +0.000 A 
ATOM     15  C   UNL     1      -3.830  12.793  21.236  0.00  0.00    +0.000 A 
ATOM     16  C   UNL     1      -3.298  13.402  22.392  0.00  0.00    +0.000 A 
ATOM     17  C   UNL     1      -3.864  13.744  23.636  0.00  0.00    +0.000 A 
ATOM     18  C   UNL     1      -3.066  14.343  24.608  0.00  0.00    +0.000 A 
ATOM     19  C   UNL     1      -1.727  14.587  24.349  0.00  0.00    +0.000 A 
ATOM     20  F   UNL     1      -0.977  15.159  25.300  0.00  0.00    +0.000 F 
ATOM     21  C   UNL     1      -1.133  14.258  23.129  0.00  0.00    +0.000 A 
ATOM     22  C   UNL     1      -1.940  13.664  22.143  0.00  0.00    +0.000 A 
ENDBRANCH   8  13
BRANCH   1  26
ATOM     23  C   UNL     1       6.485   4.750  16.665  0.00  0.00    +0.000 C 
ATOM     24  N   UNL     1       5.188   5.093  17.194  0.00  0.00    +0.000 N 
ATOM     25  C   UNL     1       4.751   6.335  17.536  0.00  0.00    +0.000 A 
ATOM     26  C   UNL     1       3.444   6.186  17.959  0.00  0.00    +0.000 A 
ATOM     27  C   UNL     1       3.209   4.799  17.850  0.00  0.00    +0.000 A 
ATOM     28  N   UNL     1       4.267   4.130  17.380  0.00  0.00    +0.000 NA
ENDBRANCH   1  26
TORSDOF 2
ENDMDL
MODEL 7
REMARK VINA RESULT:      -7.6      4.273     10.418
REMARK  Name = 
REMARK  3 active torsions:
REMARK  status: ('A' for Active; 'I' for Inactive)
REMARK    1  A    between atoms: C_1  and  N_2
REMARK    2  A    between atoms: C_4  and  C_5
REMARK    3  A    between atoms: C_12  and  N_13
REMARK                            x       y       z     vdW  Elec       q    Type
REMARK                         _______ _______ _______ _____ _____    ______ ____
ROOT
ATOM      1  C   UNL     1       2.625   6.991  18.870  0.00  0.00    +0.000 A 
ATOM      2  C   UNL     1       2.433   7.865  17.821  0.00  0.00    +0.000 A 
ATOM      3  C   UNL     1       1.691   9.022  18.042  0.00  0.00    +0.000 A 
ATOM      4  C   UNL     1       1.144   9.273  19.295  0.00  0.00    +0.000 A 
ATOM      5  N   UNL     1       0.253  10.310  19.525  0.00  0.00    +0.000 N 
ATOM      6  C   UNL     1       0.377  11.005  20.808  0.00  0.00    +0.000 C 
ATOM      7  C   UNL     1      -0.950  11.617  21.246  0.00  0.00    +0.000 C 
ATOM      8  C   UNL     1      -1.705  12.334  20.121  0.00  0.00    +0.000 C 
ATOM      9  C   UNL     1      -1.845  11.409  18.909  0.00  0.00    +0.000 C 
ATOM     10  C   UNL     1      -0.508  10.875  18.420  0.00  0.00    +0.000 C 
ATOM     11  N   UNL     1       1.425   8.426  20.306  0.00  0.00    +0.000 NA
ATOM     12  N   UNL     1       2.152   7.276  20.098  0.00  0.00    +0.000 NA
ENDROOT
BRANCH   8  13
ATOM     13  N   UNL     1      -1.177  13.662  19.789  0.00  0.00    +0.000 N 
ATOM     14  C   UNL     1      -0.342  13.951  18.739  0.00  0.00    +0.000 A 
ATOM     15  C   UNL     1      -0.042  15.287  18.760  0.00  0.00    +0.000 A 
ATOM     16  C   UNL     1      -0.715  15.859  19.860  0.00  0.00    +0.000 A 
ATOM     17  C   UNL     1      -0.773  17.173  20.365  0.00  0.00    +0.000 A 
ATOM     18  C   UNL     1      -1.549  17.439  21.490  0.00  0.00    +0.000 A 
ATOM     19  C   UNL     1      -2.262  16.417  22.097  0.00  0.00    +0.000 A 
ATOM     20  F   UNL     1      -3.005  16.696  23.175  0.00  0.00    +0.000 F 
ATOM     21  C   UNL     1      -2.229  15.104  21.622  0.00  0.00    +0.000 A 
ATOM     22  C   UNL     1      -1.438  14.832  20.492  0.00  0.00    +0.000 A 
ENDBRANCH   8  13
BRANCH   1  26
ATOM     23  C   UNL     1       4.406   2.465  19.784  0.00  0.00    +0.000 C 
ATOM     24  N   UNL     1       4.058   3.705  19.136  0.00  0.00    +0.000 N 
ATOM     25  C   UNL     1       3.352   4.736  19.674  0.00  0.00    +0.000 A 
ATOM     26  C   UNL     1       3.296   5.719  18.705  0.00  0.00    +0.000 A 
ATOM     27  C   UNL     1       3.986   5.155  17.610  0.00  0.00    +0.000 A 
ATOM     28  N   UNL     1       4.456   3.931  17.871  0.00  0.00    +0.000 NA
ENDBRANCH   1  26
TORSDOF 2
ENDMDL
MODEL 8
REMARK VINA RESULT:      -7.5      3.917     10.615
REMARK  Name = 
REMARK  3 active torsions:
REMARK  status: ('A' for Active; 'I' for Inactive)
REMARK    1  A    between atoms: C_1  and  N_2
REMARK    2  A    between atoms: C_4  and  C_5
REMARK    3  A    between atoms: C_12  and  N_13
REMARK                            x       y       z     vdW  Elec       q    Type
REMARK                         _______ _______ _______ _____ _____    ______ ____
ROOT
ATOM      1  C   UNL     1       2.275   7.606  18.609  0.00  0.00    +0.000 A 
ATOM      2  C   UNL     1       1.972   7.741  19.947  0.00  0.00    +0.000 A 
ATOM      3  C   UNL     1       1.274   8.873  20.363  0.00  0.00    +0.000 A 
ATOM      4  C   UNL     1       0.911   9.848  19.442  0.00  0.00    +0.000 A 
ATOM      5  N   UNL     1       0.378  11.070  19.821  0.00  0.00    +0.000 N 
ATOM      6  C   UNL     1      -0.667  11.623  18.957  0.00  0.00    +0.000 C 
ATOM      7  C   UNL     1      -0.716  13.146  19.039  0.00  0.00    +0.000 C 
ATOM      8  C   UNL     1      -0.610  13.696  20.465  0.00  0.00    +0.000 C 
ATOM      9  C   UNL     1       0.611  13.099  21.170  0.00  0.00    +0.000 C 
ATOM     10  C   UNL     1       0.607  11.579  21.166  0.00  0.00    +0.000 C 
ATOM     11  N   UNL     1       1.165   9.631  18.135  0.00  0.00    +0.000 NA
ATOM     12  N   UNL     1       1.859   8.520  17.713  0.00  0.00    +0.000 NA
ENDROOT
BRANCH   8  13
ATOM     13  N   UNL     1      -1.848  13.593  21.247  0.00  0.00    +0.000 N 
ATOM     14  C   UNL     1      -3.029  13.054  20.805  0.00  0.00    +0.000 A 
ATOM     15  C   UNL     1      -3.966  13.153  21.800  0.00  0.00    +0.000 A 
ATOM     16  C   UNL     1      -3.349  13.772  22.907  0.00  0.00    +0.000 A 
ATOM     17  C   UNL     1      -3.820  14.126  24.187  0.00  0.00    +0.000 A 
ATOM     18  C   UNL     1      -2.952  14.733  25.091  0.00  0.00    +0.000 A 
ATOM     19  C   UNL     1      -1.636  14.974  24.730  0.00  0.00    +0.000 A 
ATOM     20  F   UNL     1      -0.817  15.555  25.617  0.00  0.00    +0.000 F 
ATOM     21  C   UNL     1      -1.135  14.634  23.472  0.00  0.00    +0.000 A 
ATOM     22  C   UNL     1      -2.013  14.031  22.555  0.00  0.00    +0.000 A 
ENDBRANCH   8  13
BRANCH   1  26
ATOM     23  C   UNL     1       3.938   3.044  17.649  0.00  0.00    +0.000 C 
ATOM     24  N   UNL     1       3.785   4.477  17.683  0.00  0.00    +0.000 N 
ATOM     25  C   UNL     1       2.805   5.178  18.316  0.00  0.00    +0.000 A 
ATOM     26  C   UNL     1       3.083   6.514  18.106  0.00  0.00    +0.000 A 
ATOM     27  C   UNL     1       4.248   6.497  17.309  0.00  0.00    +0.000 A 
ATOM     28  N   UNL     1       4.682   5.258  17.054  0.00  0.00    +0.000 NA
ENDBRANCH   1  26
TORSDOF 2
ENDMDL
MODEL 9
REMARK VINA RESULT:      -7.5      3.926     10.544
REMARK  Name = 
REMARK  3 active torsions:
REMARK  status: ('A' for Active; 'I' for Inactive)
REMARK    1  A    between atoms: C_1  and  N_2
REMARK    2  A    between atoms: C_4  and  C_5
REMARK    3  A    between atoms: C_12  and  N_13
REMARK                            x       y       z     vdW  Elec       q    Type
REMARK                         _______ _______ _______ _____ _____    ______ ____
ROOT
ATOM      1  C   UNL     1       2.105   6.957  19.910  0.00  0.00    +0.000 A 
ATOM      2  C   UNL     1       1.161   6.919  20.913  0.00  0.00    +0.000 A 
ATOM      3  C   UNL     1       0.356   8.037  21.117  0.00  0.00    +0.000 A 
ATOM      4  C   UNL     1       0.522   9.170  20.329  0.00  0.00    +0.000 A 
ATOM      5  N   UNL     1      -0.122  10.367  20.601  0.00  0.00    +0.000 N 
ATOM      6  C   UNL     1      -0.576  11.142  19.444  0.00  0.00    +0.000 C 
ATOM      7  C   UNL     1      -0.649  12.632  19.760  0.00  0.00    +0.000 C 
ATOM      8  C   UNL     1      -1.284  12.949  21.118  0.00  0.00    +0.000 C 
ATOM      9  C   UNL     1      -0.598  12.138  22.221  0.00  0.00    +0.000 C 
ATOM     10  C   UNL     1      -0.610  10.643  21.944  0.00  0.00    +0.000 C 
ATOM     11  N   UNL     1       1.407   9.128  19.312  0.00  0.00    +0.000 NA
ATOM     12  N   UNL     1       2.212   8.031  19.105  0.00  0.00    +0.000 NA
ENDROOT
BRANCH   8  13
ATOM     13  N   UNL     1      -2.748  12.850  21.140  0.00  0.00    +0.000 N 
ATOM     14  C   UNL     1      -3.563  12.808  20.038  0.00  0.00    +0.000 A 
ATOM     15  C   UNL     1      -4.868  12.740  20.448  0.00  0.00    +0.000 A 
ATOM     16  C   UNL     1      -4.872  12.733  21.858  0.00  0.00    +0.000 A 
ATOM     17  C   UNL     1      -5.912  12.678  22.808  0.00  0.00    +0.000 A 
ATOM     18  C   UNL     1      -5.597  12.679  24.165  0.00  0.00    +0.000 A 
ATOM     19  C   UNL     1      -4.272  12.725  24.568  0.00  0.00    +0.000 A 
ATOM     20  F   UNL     1      -3.993  12.720  25.877  0.00  0.00    +0.000 F 
ATOM     21  C   UNL     1      -3.218  12.778  23.654  0.00  0.00    +0.000 A 
ATOM     22  C   UNL     1      -3.535  12.788  22.284  0.00  0.00    +0.000 A 
ENDBRANCH   8  13
BRANCH   1  26
ATOM     23  C   UNL     1       4.224   2.485  19.958  0.00  0.00    +0.000 C 
ATOM     24  N   UNL     1       3.956   3.880  19.718  0.00  0.00    +0.000 N 
ATOM     25  C   UNL     1       2.857   4.579  20.113  0.00  0.00    +0.000 A 
ATOM     26  C   UNL     1       3.050   5.881  19.694  0.00  0.00    +0.000 A 
ATOM     27  C   UNL     1       4.297   5.843  19.034  0.00  0.00    +0.000 A 
ATOM     28  N   UNL     1       4.854   4.627  19.051  0.00  0.00    +0.000 NA
ENDBRANCH   1  26
TORSDOF 2
ENDMDL
