MODEL 1
REMARK VINA RESULT:      -8.9      0.000      0.000
REMARK  Name = 
REMARK  6 active torsions:
REMARK  status: ('A' for Active; 'I' for Inactive)
REMARK    1  A    between atoms: C_2  and  C_3
REMARK    2  A    between atoms: C_3  and  O_4
REMARK    3  A    between atoms: O_4  and  C_5
REMARK    4  A    between atoms: N_13  and  C_14
REMARK    5  A    between atoms: C_17  and  S_18
REMARK    6  A    between atoms: S_18  and  N_21
REMARK                            x       y       z     vdW  Elec       q    Type
REMARK                         _______ _______ _______ _____ _____    ______ ____
ROOT
ATOM      1  C   UNL     1       5.766   6.959  17.126  0.00  0.00    +0.000 A 
ATOM      2  C   UNL     1       4.653   6.943  17.967  0.00  0.00    +0.000 A 
ATOM      3  C   UNL     1       3.779   5.867  17.974  0.00  0.00    +0.000 A 
ATOM      4  C   UNL     1       3.977   4.782  17.115  0.00  0.00    +0.000 A 
ATOM      5  C   UNL     1       5.041   4.787  16.169  0.00  0.00    +0.000 A 
ATOM      6  C   UNL     1       5.256   3.762  15.208  0.00  0.00    +0.000 A 
ATOM      7  C   UNL     1       6.323   3.782  14.312  0.00  0.00    +0.000 A 
ATOM      8  C   UNL     1       7.206   4.841  14.330  0.00  0.00    +0.000 A 
ATOM      9  C   UNL     1       7.019   5.879  15.242  0.00  0.00    +0.000 A 
ATOM     10  C   UNL     1       5.949   5.896  16.178  0.00  0.00    +0.000 A 
ENDROOT
BRANCH   1  13
ATOM     11  O   UNL     1       8.276   7.190  18.710  0.00  0.00    +0.000 OA
ATOM     12  C   UNL     1       7.832   8.097  18.011  0.00  0.00    +0.000 C 
ATOM     13  N   UNL     1       6.700   8.035  17.206  0.00  0.00    +0.000 N 
ATOM     14  H   UNL     1       6.623   8.765  16.514  0.00  0.00    +0.000 HD
BRANCH  12  15
ATOM     15  C   UNL     1       8.524   9.462  17.986  0.00  0.00    +0.000 C 
BRANCH  15  16
ATOM     16  O   UNL     1       9.290   9.694  19.161  0.00  0.00    +0.000 OA
BRANCH  16  17
ATOM     17  C   UNL     1       9.915  10.913  19.243  0.00  0.00    +0.000 A 
ATOM     18  C   UNL     1      10.129  11.636  20.423  0.00  0.00    +0.000 A 
ATOM     19  C   UNL     1      10.773  12.877  20.386  0.00  0.00    +0.000 A 
ATOM     20  C   UNL     1      11.201  13.398  19.171  0.00  0.00    +0.000 A 
ATOM     21  F   UNL     1      11.811  14.593  19.163  0.00  0.00    +0.000 F 
ATOM     22  C   UNL     1      10.992  12.690  17.991  0.00  0.00    +0.000 A 
ATOM     23 CL   UNL     1      11.519  13.336  16.483  0.00  0.00    +0.000 Cl
ATOM     24  C   UNL     1      10.350  11.450  18.026  0.00  0.00    +0.000 A 
ENDBRANCH  16  17
ENDBRANCH  15  16
ENDBRANCH  12  15
ENDBRANCH   1  13
BRANCH   4  25
ATOM     25  S   UNL     1       2.902   3.382  17.424  0.00  0.00    +0.000 S 
ATOM     26  O   UNL     1       2.300   2.955  16.180  0.00  0.00    +0.000 OA
ATOM     27  O   UNL     1       3.654   2.431  18.220  0.00  0.00    +0.000 OA
BRANCH  25  28
ATOM     28  N   UNL     1       1.658   4.083  18.340  0.00  0.00    +0.000 N 
ATOM     29  C   UNL     1       1.731   3.678  19.694  0.00  0.00    +0.000 A 
ATOM     30  N   UNL     1       0.926   2.738  20.119  0.00  0.00    +0.000 NA
ATOM     31  C   UNL     1       1.219   2.470  21.444  0.00  0.00    +0.000 A 
ATOM     32  C   UNL     1       2.156   3.298  22.028  0.00  0.00    +0.000 A 
ATOM     33  S   UNL     1       2.729   4.423  20.864  0.00  0.00    +0.000 S 
ATOM     34  H   UNL     1       0.789   3.712  17.953  0.00  0.00    +0.000 HD
ENDBRANCH  25  28
ENDBRANCH   4  25
TORSDOF 6
ENDMDL
MODEL 2
REMARK VINA RESULT:      -8.6      1.017      1.298
REMARK  Name = 
REMARK  6 active torsions:
REMARK  status: ('A' for Active; 'I' for Inactive)
REMARK    1  A    between atoms: C_2  and  C_3
REMARK    2  A    between atoms: C_3  and  O_4
REMARK    3  A    between atoms: O_4  and  C_5
REMARK    4  A    between atoms: N_13  and  C_14
REMARK    5  A    between atoms: C_17  and  S_18
REMARK    6  A    between atoms: S_18  and  N_21
REMARK                            x       y       z     vdW  Elec       q    Type
REMARK                         _______ _______ _______ _____ _____    ______ ____
ROOT
ATOM      1  C   UNL     1       5.815   6.967  17.080  0.00  0.00    +0.000 A 
ATOM      2  C   UNL     1       4.703   6.969  17.922  0.00  0.00    +0.000 A 
ATOM      3  C   UNL     1       3.818   5.902  17.937  0.00  0.00    +0.000 A 
ATOM      4  C   UNL     1       4.004   4.809  17.084  0.00  0.00    +0.000 A 
ATOM      5  C   UNL     1       5.067   4.797  16.138  0.00  0.00    +0.000 A 
ATOM      6  C   UNL     1       5.271   3.764  15.183  0.00  0.00    +0.000 A 
ATOM      7  C   UNL     1       6.337   3.767  14.285  0.00  0.00    +0.000 A 
ATOM      8  C   UNL     1       7.231   4.817  14.296  0.00  0.00    +0.000 A 
ATOM      9  C   UNL     1       7.055   5.862  15.202  0.00  0.00    +0.000 A 
ATOM     10  C   UNL     1       5.986   5.897  16.139  0.00  0.00    +0.000 A 
ENDROOT
BRANCH   1  13
ATOM     11  O   UNL     1       8.311   7.196  18.685  0.00  0.00    +0.000 OA
ATOM     12  C   UNL     1       7.885   8.097  17.967  0.00  0.00    +0.000 C 
ATOM     13  N   UNL     1       6.760   8.034  17.152  0.00  0.00    +0.000 N 
ATOM     14  H   UNL     1       6.698   8.754  16.448  0.00  0.00    +0.000 HD
BRANCH  12  15
ATOM     15  C   UNL     1       8.592   9.454  17.927  0.00  0.00    +0.000 C 
BRANCH  15  16
ATOM     16  O   UNL     1       9.110   9.824  19.199  0.00  0.00    +0.000 OA
BRANCH  16  17
ATOM     17  C   UNL     1       9.855  10.976  19.236  0.00  0.00    +0.000 A 
ATOM     18  C   UNL     1      10.827  11.343  18.298  0.00  0.00    +0.000 A 
ATOM     19  C   UNL     1      11.532  12.542  18.441  0.00  0.00    +0.000 A 
ATOM     20  C   UNL     1      11.270  13.374  19.522  0.00  0.00    +0.000 A 
ATOM     21  F   UNL     1      11.964  14.515  19.640  0.00  0.00    +0.000 F 
ATOM     22  C   UNL     1      10.307  13.019  20.464  0.00  0.00    +0.000 A 
ATOM     23 CL   UNL     1       9.983  14.047  21.807  0.00  0.00    +0.000 Cl
ATOM     24  C   UNL     1       9.601  11.822  20.321  0.00  0.00    +0.000 A 
ENDBRANCH  16  17
ENDBRANCH  15  16
ENDBRANCH  12  15
ENDBRANCH   1  13
BRANCH   4  25
ATOM     25  S   UNL     1       2.915   3.422  17.404  0.00  0.00    +0.000 S 
ATOM     26  O   UNL     1       2.305   2.994  16.163  0.00  0.00    +0.000 OA
ATOM     27  O   UNL     1       3.659   2.467  18.203  0.00  0.00    +0.000 OA
BRANCH  25  28
ATOM     28  N   UNL     1       1.680   4.141  18.319  0.00  0.00    +0.000 N 
ATOM     29  C   UNL     1       1.741   3.727  19.670  0.00  0.00    +0.000 A 
ATOM     30  N   UNL     1       0.916   2.799  20.087  0.00  0.00    +0.000 NA
ATOM     31  C   UNL     1       1.199   2.519  21.411  0.00  0.00    +0.000 A 
ATOM     32  C   UNL     1       2.149   3.325  22.004  0.00  0.00    +0.000 A 
ATOM     33  S   UNL     1       2.748   4.445  20.849  0.00  0.00    +0.000 S 
ATOM     34  H   UNL     1       0.806   3.788  17.926  0.00  0.00    +0.000 HD
ENDBRANCH  25  28
ENDBRANCH   4  25
TORSDOF 6
ENDMDL
MODEL 3
REMARK VINA RESULT:      -8.4      9.042     11.077
REMARK  Name = 
REMARK  6 active torsions:
REMARK  status: ('A' for Active; 'I' for Inactive)
REMARK    1  A    between atoms: C_2  and  C_3
REMARK    2  A    between atoms: C_3  and  O_4
REMARK    3  A    between atoms: O_4  and  C_5
REMARK    4  A    between atoms: N_13  and  C_14
REMARK    5  A    between atoms: C_17  and  S_18
REMARK    6  A    between atoms: S_18  and  N_21
REMARK                            x       y       z     vdW  Elec       q    Type
REMARK                         _______ _______ _______ _____ _____    ______ ____
ROOT
ATOM      1  C   UNL     1      -0.015  10.274  19.451  0.00  0.00    +0.000 A 
ATOM      2  C   UNL     1       0.318  11.014  20.586  0.00  0.00    +0.000 A 
ATOM      3  C   UNL     1      -0.544  11.977  21.088  0.00  0.00    +0.000 A 
ATOM      4  C   UNL     1      -1.757  12.251  20.449  0.00  0.00    +0.000 A 
ATOM      5  C   UNL     1      -2.105  11.595  19.235  0.00  0.00    +0.000 A 
ATOM      6  C   UNL     1      -3.277  11.880  18.484  0.00  0.00    +0.000 A 
ATOM      7  C   UNL     1      -3.604  11.201  17.311  0.00  0.00    +0.000 A 
ATOM      8  C   UNL     1      -2.757  10.223  16.833  0.00  0.00    +0.000 A 
ATOM      9  C   UNL     1      -1.585   9.928  17.528  0.00  0.00    +0.000 A 
ATOM     10  C   UNL     1      -1.215  10.590  18.730  0.00  0.00    +0.000 A 
ENDROOT
BRANCH   1  13
ATOM     11  O   UNL     1       2.330  10.377  17.620  0.00  0.00    +0.000 OA
ATOM     12  C   UNL     1       1.899   9.335  18.108  0.00  0.00    +0.000 C 
ATOM     13  N   UNL     1       0.847   9.225  19.011  0.00  0.00    +0.000 N 
ATOM     14  H   UNL     1       0.790   8.346  19.501  0.00  0.00    +0.000 HD
BRANCH  12  15
ATOM     15  C   UNL     1       2.513   7.988  17.721  0.00  0.00    +0.000 C 
BRANCH  15  16
ATOM     16  O   UNL     1       3.096   7.326  18.836  0.00  0.00    +0.000 OA
BRANCH  16  17
ATOM     17  C   UNL     1       2.525   6.130  19.194  0.00  0.00    +0.000 A 
ATOM     18  C   UNL     1       1.793   5.900  20.365  0.00  0.00    +0.000 A 
ATOM     19  C   UNL     1       1.263   4.634  20.631  0.00  0.00    +0.000 A 
ATOM     20  C   UNL     1       1.467   3.595  19.730  0.00  0.00    +0.000 A 
ATOM     21  F   UNL     1       0.953   2.389  20.012  0.00  0.00    +0.000 F 
ATOM     22  C   UNL     1       2.197   3.811  18.564  0.00  0.00    +0.000 A 
ATOM     23 CL   UNL     1       2.455   2.523  17.449  0.00  0.00    +0.000 Cl
ATOM     24  C   UNL     1       2.726   5.076  18.297  0.00  0.00    +0.000 A 
ENDBRANCH  16  17
ENDBRANCH  15  16
ENDBRANCH  12  15
ENDBRANCH   1  13
BRANCH   4  25
ATOM     25  S   UNL     1      -2.849  13.342  21.360  0.00  0.00    +0.000 S 
ATOM     26  O   UNL     1      -2.493  13.316  22.762  0.00  0.00    +0.000 OA
ATOM     27  O   UNL     1      -2.878  14.608  20.651  0.00  0.00    +0.000 OA
BRANCH  25  28
ATOM     28  N   UNL     1      -4.341  12.545  21.231  0.00  0.00    +0.000 N 
ATOM     29  C   UNL     1      -5.269  13.046  22.174  0.00  0.00    +0.000 A 
ATOM     30  N   UNL     1      -5.490  12.365  23.269  0.00  0.00    +0.000 NA
ATOM     31  C   UNL     1      -6.380  13.072  24.058  0.00  0.00    +0.000 A 
ATOM     32  C   UNL     1      -6.907  14.214  23.489  0.00  0.00    +0.000 A 
ATOM     33  S   UNL     1      -6.228  14.439  21.928  0.00  0.00    +0.000 S 
ATOM     34  H   UNL     1      -4.152  11.570  21.470  0.00  0.00    +0.000 HD
ENDBRANCH  25  28
ENDBRANCH   4  25
TORSDOF 6
ENDMDL
MODEL 4
REMARK VINA RESULT:      -8.3      8.983     11.224
REMARK  Name = 
REMARK  6 active torsions:
REMARK  status: ('A' for Active; 'I' for Inactive)
REMARK    1  A    between atoms: C_2  and  C_3
REMARK    2  A    between atoms: C_3  and  O_4
REMARK    3  A    between atoms: O_4  and  C_5
REMARK    4  A    between atoms: N_13  and  C_14
REMARK    5  A    between atoms: C_17  and  S_18
REMARK    6  A    between atoms: S_18  and  N_21
REMARK                            x       y       z     vdW  Elec       q    Type
REMARK                         _______ _______ _______ _____ _____    ______ ____
ROOT
ATOM      1  C   UNL     1       0.328  10.201  19.882  0.00  0.00    +0.000 A 
ATOM      2  C   UNL     1       0.761  10.877  21.024  0.00  0.00    +0.000 A 
ATOM      3  C   UNL     1      -0.011  11.876  21.596  0.00  0.00    +0.000 A 
ATOM      4  C   UNL     1      -1.230  12.252  21.024  0.00  0.00    +0.000 A 
ATOM      5  C   UNL     1      -1.675  11.665  19.807  0.00  0.00    +0.000 A 
ATOM      6  C   UNL     1      -2.858  12.053  19.122  0.00  0.00    +0.000 A 
ATOM      7  C   UNL     1      -3.282  11.440  17.944  0.00  0.00    +0.000 A 
ATOM      8  C   UNL     1      -2.526  10.425  17.395  0.00  0.00    +0.000 A 
ATOM      9  C   UNL     1      -1.346  10.028  18.024  0.00  0.00    +0.000 A 
ATOM     10  C   UNL     1      -0.879  10.621  19.229  0.00  0.00    +0.000 A 
ENDROOT
BRANCH   1  13
ATOM     11  O   UNL     1       2.217  10.122  17.583  0.00  0.00    +0.000 OA
ATOM     12  C   UNL     1       1.925   9.133  18.252  0.00  0.00    +0.000 C 
ATOM     13  N   UNL     1       1.096   9.114  19.368  0.00  0.00    +0.000 N 
ATOM     14  H   UNL     1       1.166   8.287  19.942  0.00  0.00    +0.000 HD
BRANCH  12  15
ATOM     15  C   UNL     1       2.469   7.754  17.872  0.00  0.00    +0.000 C 
BRANCH  15  16
ATOM     16  O   UNL     1       3.060   7.090  18.981  0.00  0.00    +0.000 OA
BRANCH  16  17
ATOM     17  C   UNL     1       2.542   5.857  19.292  0.00  0.00    +0.000 A 
ATOM     18  C   UNL     1       1.857   5.541  20.471  0.00  0.00    +0.000 A 
ATOM     19  C   UNL     1       1.379   4.245  20.686  0.00  0.00    +0.000 A 
ATOM     20  C   UNL     1       1.587   3.262  19.726  0.00  0.00    +0.000 A 
ATOM     21  F   UNL     1       1.124   2.026  19.958  0.00  0.00    +0.000 F 
ATOM     22  C   UNL     1       2.271   3.564  18.550  0.00  0.00    +0.000 A 
ATOM     23 CL   UNL     1       2.535   2.346  17.360  0.00  0.00    +0.000 Cl
ATOM     24  C   UNL     1       2.748   4.859  18.334  0.00  0.00    +0.000 A 
ENDBRANCH  16  17
ENDBRANCH  15  16
ENDBRANCH  12  15
ENDBRANCH   1  13
BRANCH   4  25
ATOM     25  S   UNL     1      -2.203  13.381  22.020  0.00  0.00    +0.000 S 
ATOM     26  O   UNL     1      -2.311  14.653  21.339  0.00  0.00    +0.000 OA
ATOM     27  O   UNL     1      -3.407  12.675  22.416  0.00  0.00    +0.000 OA
BRANCH  25  28
ATOM     28  N   UNL     1      -1.191  13.641  23.357  0.00  0.00    +0.000 N 
ATOM     29  C   UNL     1      -1.536  14.834  24.033  0.00  0.00    +0.000 A 
ATOM     30  N   UNL     1      -0.817  15.909  23.829  0.00  0.00    +0.000 NA
ATOM     31  C   UNL     1      -1.374  16.955  24.542  0.00  0.00    +0.000 A 
ATOM     32  C   UNL     1      -2.429  16.622  25.367  0.00  0.00    +0.000 A 
ATOM     33  S   UNL     1      -2.770  14.947  25.209  0.00  0.00    +0.000 S 
ATOM     34  H   UNL     1      -0.253  13.762  22.972  0.00  0.00    +0.000 HD
ENDBRANCH  25  28
ENDBRANCH   4  25
TORSDOF 6
ENDMDL
MODEL 5
REMARK VINA RESULT:      -8.3      6.550      9.624
REMARK  Name = 
REMARK  6 active torsions:
REMARK  status: ('A' for Active; 'I' for Inactive)
REMARK    1  A    between atoms: C_2  and  C_3
REMARK    2  A    between atoms: C_3  and  O_4
REMARK    3  A    between atoms: O_4  and  C_5
REMARK    4  A    between atoms: N_13  and  C_14
REMARK    5  A    between atoms: C_17  and  S_18
REMARK    6  A    between atoms: S_18  and  N_21
REMARK                            x       y       z     vdW  Elec       q    Type
REMARK                         _______ _______ _______ _____ _____    ______ ____
ROOT
ATOM      1  C   UNL     1       1.503   8.568  19.943  0.00  0.00    +0.000 A 
ATOM      2  C   UNL     1       1.523   9.070  18.641  0.00  0.00    +0.000 A 
ATOM      3  C   UNL     1       0.901  10.269  18.330  0.00  0.00    +0.000 A 
ATOM      4  C   UNL     1       0.212  10.991  19.309  0.00  0.00    +0.000 A 
ATOM      5  C   UNL     1       0.077  10.481  20.630  0.00  0.00    +0.000 A 
ATOM      6  C   UNL     1      -0.677  11.113  21.655  0.00  0.00    +0.000 A 
ATOM      7  C   UNL     1      -0.769  10.601  22.948  0.00  0.00    +0.000 A 
ATOM      8  C   UNL     1      -0.123   9.423  23.260  0.00  0.00    +0.000 A 
ATOM      9  C   UNL     1       0.610   8.759  22.278  0.00  0.00    +0.000 A 
ATOM     10  C   UNL     1       0.736   9.247  20.949  0.00  0.00    +0.000 A 
ENDROOT
BRANCH   1  13
ATOM     11  O   UNL     1       1.877   6.086  18.344  0.00  0.00    +0.000 OA
ATOM     12  C   UNL     1       2.321   6.231  19.480  0.00  0.00    +0.000 C 
ATOM     13  N   UNL     1       2.230   7.381  20.256  0.00  0.00    +0.000 N 
ATOM     14  H   UNL     1       2.857   7.420  21.045  0.00  0.00    +0.000 HD
BRANCH  12  15
ATOM     15  C   UNL     1       3.038   5.076  20.183  0.00  0.00    +0.000 C 
BRANCH  15  16
ATOM     16  O   UNL     1       3.270   3.980  19.308  0.00  0.00    +0.000 OA
BRANCH  16  17
ATOM     17  C   UNL     1       4.316   4.117  18.431  0.00  0.00    +0.000 A 
ATOM     18  C   UNL     1       4.304   3.727  17.087  0.00  0.00    +0.000 A 
ATOM     19  C   UNL     1       5.436   3.910  16.286  0.00  0.00    +0.000 A 
ATOM     20  C   UNL     1       6.582   4.479  16.828  0.00  0.00    +0.000 A 
ATOM     21  F   UNL     1       7.656   4.637  16.040  0.00  0.00    +0.000 F 
ATOM     22  C   UNL     1       6.608   4.869  18.165  0.00  0.00    +0.000 A 
ATOM     23 CL   UNL     1       8.029   5.571  18.839  0.00  0.00    +0.000 Cl
ATOM     24  C   UNL     1       5.477   4.688  18.965  0.00  0.00    +0.000 A 
ENDBRANCH  16  17
ENDBRANCH  15  16
ENDBRANCH  12  15
ENDBRANCH   1  13
BRANCH   4  25
ATOM     25  S   UNL     1      -0.320  12.623  18.793  0.00  0.00    +0.000 S 
ATOM     26  O   UNL     1      -1.294  12.497  17.731  0.00  0.00    +0.000 OA
ATOM     27  O   UNL     1      -0.661  13.362  19.994  0.00  0.00    +0.000 OA
BRANCH  25  28
ATOM     28  N   UNL     1       1.086  13.249  18.080  0.00  0.00    +0.000 N 
ATOM     29  C   UNL     1       1.706  14.200  18.924  0.00  0.00    +0.000 A 
ATOM     30  N   UNL     1       1.535  15.474  18.678  0.00  0.00    +0.000 NA
ATOM     31  C   UNL     1       2.178  16.205  19.660  0.00  0.00    +0.000 A 
ATOM     32  C   UNL     1       2.925  15.471  20.559  0.00  0.00    +0.000 A 
ATOM     33  S   UNL     1       2.778  13.800  20.193  0.00  0.00    +0.000 S 
ATOM     34  H   UNL     1       0.773  13.738  17.240  0.00  0.00    +0.000 HD
ENDBRANCH  25  28
ENDBRANCH   4  25
TORSDOF 6
ENDMDL
MODEL 6
REMARK VINA RESULT:      -8.3      8.822     10.880
REMARK  Name = 
REMARK  6 active torsions:
REMARK  status: ('A' for Active; 'I' for Inactive)
REMARK    1  A    between atoms: C_2  and  C_3
REMARK    2  A    between atoms: C_3  and  O_4
REMARK    3  A    between atoms: O_4  and  C_5
REMARK    4  A    between atoms: N_13  and  C_14
REMARK    5  A    between atoms: C_17  and  S_18
REMARK    6  A    between atoms: S_18  and  N_21
REMARK                            x       y       z     vdW  Elec       q    Type
REMARK                         _______ _______ _______ _____ _____    ______ ____
ROOT
ATOM      1  C   UNL     1       0.113  10.270  19.633  0.00  0.00    +0.000 A 
ATOM      2  C   UNL     1       0.390  11.018  20.777  0.00  0.00    +0.000 A 
ATOM      3  C   UNL     1      -0.497  11.983  21.230  0.00  0.00    +0.000 A 
ATOM      4  C   UNL     1      -1.679  12.249  20.532  0.00  0.00    +0.000 A 
ATOM      5  C   UNL     1      -1.967  11.585  19.308  0.00  0.00    +0.000 A 
ATOM      6  C   UNL     1      -3.103  11.861  18.500  0.00  0.00    +0.000 A 
ATOM      7  C   UNL     1      -3.372  11.174  17.318  0.00  0.00    +0.000 A 
ATOM      8  C   UNL     1      -2.502  10.194  16.887  0.00  0.00    +0.000 A 
ATOM      9  C   UNL     1      -1.363   9.907  17.639  0.00  0.00    +0.000 A 
ATOM     10  C   UNL     1      -1.053  10.577  18.853  0.00  0.00    +0.000 A 
ENDROOT
BRANCH   1  13
ATOM     11  O   UNL     1       2.249  10.251  17.559  0.00  0.00    +0.000 OA
ATOM     12  C   UNL     1       1.942   9.263  18.223  0.00  0.00    +0.000 C 
ATOM     13  N   UNL     1       0.996   9.220  19.242  0.00  0.00    +0.000 N 
ATOM     14  H   UNL     1       1.050   8.413  19.845  0.00  0.00    +0.000 HD
BRANCH  12  15
ATOM     15  C   UNL     1       2.606   7.911  17.949  0.00  0.00    +0.000 C 
BRANCH  15  16
ATOM     16  O   UNL     1       2.340   6.968  18.979  0.00  0.00    +0.000 OA
BRANCH  16  17
ATOM     17  C   UNL     1       2.523   5.648  18.650  0.00  0.00    +0.000 A 
ATOM     18  C   UNL     1       1.776   4.576  19.154  0.00  0.00    +0.000 A 
ATOM     19  C   UNL     1       2.057   3.267  18.753  0.00  0.00    +0.000 A 
ATOM     20  C   UNL     1       3.086   3.025  17.851  0.00  0.00    +0.000 A 
ATOM     21  F   UNL     1       3.339   1.760  17.488  0.00  0.00    +0.000 F 
ATOM     22  C   UNL     1       3.838   4.082  17.346  0.00  0.00    +0.000 A 
ATOM     23 CL   UNL     1       5.118   3.785  16.231  0.00  0.00    +0.000 Cl
ATOM     24  C   UNL     1       3.558   5.392  17.745  0.00  0.00    +0.000 A 
ENDBRANCH  16  17
ENDBRANCH  15  16
ENDBRANCH  12  15
ENDBRANCH   1  13
BRANCH   4  25
ATOM     25  S   UNL     1      -2.814  13.345  21.383  0.00  0.00    +0.000 S 
ATOM     26  O   UNL     1      -2.498  13.363  22.794  0.00  0.00    +0.000 OA
ATOM     27  O   UNL     1      -2.846  14.591  20.640  0.00  0.00    +0.000 OA
BRANCH  25  28
ATOM     28  N   UNL     1      -4.288  12.518  21.235  0.00  0.00    +0.000 N 
ATOM     29  C   UNL     1      -5.244  13.010  22.154  0.00  0.00    +0.000 A 
ATOM     30  N   UNL     1      -5.473  12.336  23.252  0.00  0.00    +0.000 NA
ATOM     31  C   UNL     1      -6.391  13.035  24.016  0.00  0.00    +0.000 A 
ATOM     32  C   UNL     1      -6.928  14.160  23.425  0.00  0.00    +0.000 A 
ATOM     33  S   UNL     1      -6.224  14.381  21.875  0.00  0.00    +0.000 S 
ATOM     34  H   UNL     1      -4.085  11.549  21.487  0.00  0.00    +0.000 HD
ENDBRANCH  25  28
ENDBRANCH   4  25
TORSDOF 6
ENDMDL
MODEL 7
REMARK VINA RESULT:      -8.3      9.021     11.153
REMARK  Name = 
REMARK  6 active torsions:
REMARK  status: ('A' for Active; 'I' for Inactive)
REMARK    1  A    between atoms: C_2  and  C_3
REMARK    2  A    between atoms: C_3  and  O_4
REMARK    3  A    between atoms: O_4  and  C_5
REMARK    4  A    between atoms: N_13  and  C_14
REMARK    5  A    between atoms: C_17  and  S_18
REMARK    6  A    between atoms: S_18  and  N_21
REMARK                            x       y       z     vdW  Elec       q    Type
REMARK                         _______ _______ _______ _____ _____    ______ ____
ROOT
ATOM      1  C   UNL     1       0.172  10.219  19.588  0.00  0.00    +0.000 A 
ATOM      2  C   UNL     1       0.518  10.872  20.772  0.00  0.00    +0.000 A 
ATOM      3  C   UNL     1      -0.341  11.788  21.358  0.00  0.00    +0.000 A 
ATOM      4  C   UNL     1      -1.565  12.101  20.761  0.00  0.00    +0.000 A 
ATOM      5  C   UNL     1      -1.928  11.539  19.505  0.00  0.00    +0.000 A 
ATOM      6  C   UNL     1      -3.114  11.872  18.796  0.00  0.00    +0.000 A 
ATOM      7  C   UNL     1      -3.455  11.283  17.580  0.00  0.00    +0.000 A 
ATOM      8  C   UNL     1      -2.610  10.351  17.015  0.00  0.00    +0.000 A 
ATOM      9  C   UNL     1      -1.425  10.011  17.668  0.00  0.00    +0.000 A 
ATOM     10  C   UNL     1      -1.041  10.581  18.912  0.00  0.00    +0.000 A 
ENDROOT
BRANCH   1  13
ATOM     11  O   UNL     1       2.399  10.459  17.628  0.00  0.00    +0.000 OA
ATOM     12  C   UNL     1       2.025   9.387  18.098  0.00  0.00    +0.000 C 
ATOM     13  N   UNL     1       1.032   9.213  19.056  0.00  0.00    +0.000 N 
ATOM     14  H   UNL     1       1.028   8.313  19.512  0.00  0.00    +0.000 HD
BRANCH  12  15
ATOM     15  C   UNL     1       2.650   8.074  17.620  0.00  0.00    +0.000 C 
BRANCH  15  16
ATOM     16  O   UNL     1       2.810   7.142  18.682  0.00  0.00    +0.000 OA
BRANCH  16  17
ATOM     17  C   UNL     1       2.860   5.818  18.322  0.00  0.00    +0.000 A 
ATOM     18  C   UNL     1       3.739   5.267  17.382  0.00  0.00    +0.000 A 
ATOM     19  C   UNL     1       3.694   3.901  17.087  0.00  0.00    +0.000 A 
ATOM     20  C   UNL     1       2.770   3.085  17.728  0.00  0.00    +0.000 A 
ATOM     21  F   UNL     1       2.744   1.779  17.423  0.00  0.00    +0.000 F 
ATOM     22  C   UNL     1       1.889   3.622  18.662  0.00  0.00    +0.000 A 
ATOM     23 CL   UNL     1       0.739   2.612  19.455  0.00  0.00    +0.000 Cl
ATOM     24  C   UNL     1       1.933   4.987  18.959  0.00  0.00    +0.000 A 
ENDBRANCH  16  17
ENDBRANCH  15  16
ENDBRANCH  12  15
ENDBRANCH   1  13
BRANCH   4  25
ATOM     25  S   UNL     1      -2.648  13.113  21.769  0.00  0.00    +0.000 S 
ATOM     26  O   UNL     1      -2.887  14.374  21.102  0.00  0.00    +0.000 OA
ATOM     27  O   UNL     1      -3.774  12.282  22.156  0.00  0.00    +0.000 OA
BRANCH  25  28
ATOM     28  N   UNL     1      -1.668  13.459  23.110  0.00  0.00    +0.000 N 
ATOM     29  C   UNL     1      -2.015  14.703  23.687  0.00  0.00    +0.000 A 
ATOM     30  N   UNL     1      -1.278  15.752  23.423  0.00  0.00    +0.000 NA
ATOM     31  C   UNL     1      -1.839  16.854  24.042  0.00  0.00    +0.000 A 
ATOM     32  C   UNL     1      -2.919  16.595  24.862  0.00  0.00    +0.000 A 
ATOM     33  S   UNL     1      -3.277  14.916  24.819  0.00  0.00    +0.000 S 
ATOM     34  H   UNL     1      -0.719  13.542  22.741  0.00  0.00    +0.000 HD
ENDBRANCH  25  28
ENDBRANCH   4  25
TORSDOF 6
ENDMDL
MODEL 8
REMARK VINA RESULT:      -8.3      8.154     11.165
REMARK  Name = 
REMARK  6 active torsions:
REMARK  status: ('A' for Active; 'I' for Inactive)
REMARK    1  A    between atoms: C_2  and  C_3
REMARK    2  A    between atoms: C_3  and  O_4
REMARK    3  A    between atoms: O_4  and  C_5
REMARK    4  A    between atoms: N_13  and  C_14
REMARK    5  A    between atoms: C_17  and  S_18
REMARK    6  A    between atoms: S_18  and  N_21
REMARK                            x       y       z     vdW  Elec       q    Type
REMARK                         _______ _______ _______ _____ _____    ______ ____
ROOT
ATOM      1  C   UNL     1       0.893   9.853  19.528  0.00  0.00    +0.000 A 
ATOM      2  C   UNL     1       0.704  10.805  18.526  0.00  0.00    +0.000 A 
ATOM      3  C   UNL     1       0.010  11.978  18.777  0.00  0.00    +0.000 A 
ATOM      4  C   UNL     1      -0.544  12.222  20.038  0.00  0.00    +0.000 A 
ATOM      5  C   UNL     1      -0.465  11.246  21.070  0.00  0.00    +0.000 A 
ATOM      6  C   UNL     1      -1.074  11.386  22.346  0.00  0.00    +0.000 A 
ATOM      7  C   UNL     1      -0.956  10.422  23.346  0.00  0.00    +0.000 A 
ATOM      8  C   UNL     1      -0.239   9.270  23.100  0.00  0.00    +0.000 A 
ATOM      9  C   UNL     1       0.356   9.084  21.853  0.00  0.00    +0.000 A 
ATOM     10  C   UNL     1       0.268  10.042  20.807  0.00  0.00    +0.000 A 
ENDROOT
BRANCH   1  13
ATOM     11  O   UNL     1       2.462   9.127  17.105  0.00  0.00    +0.000 OA
ATOM     12  C   UNL     1       2.359   8.397  18.087  0.00  0.00    +0.000 C 
ATOM     13  N   UNL     1       1.691   8.699  19.269  0.00  0.00    +0.000 N 
ATOM     14  H   UNL     1       1.917   8.108  20.055  0.00  0.00    +0.000 HD
BRANCH  12  15
ATOM     15  C   UNL     1       2.983   6.999  18.080  0.00  0.00    +0.000 C 
BRANCH  15  16
ATOM     16  O   UNL     1       3.100   6.460  19.390  0.00  0.00    +0.000 OA
BRANCH  16  17
ATOM     17  C   UNL     1       2.596   5.196  19.571  0.00  0.00    +0.000 A 
ATOM     18  C   UNL     1       1.563   4.854  20.451  0.00  0.00    +0.000 A 
ATOM     19  C   UNL     1       1.135   3.527  20.559  0.00  0.00    +0.000 A 
ATOM     20  C   UNL     1       1.739   2.541  19.789  0.00  0.00    +0.000 A 
ATOM     21  F   UNL     1       1.313   1.275  19.915  0.00  0.00    +0.000 F 
ATOM     22  C   UNL     1       2.770   2.868  18.912  0.00  0.00    +0.000 A 
ATOM     23 CL   UNL     1       3.523   1.646  17.960  0.00  0.00    +0.000 Cl
ATOM     24  C   UNL     1       3.198   4.193  18.803  0.00  0.00    +0.000 A 
ENDBRANCH  16  17
ENDBRANCH  15  16
ENDBRANCH  12  15
ENDBRANCH   1  13
BRANCH   4  25
ATOM     25  S   UNL     1      -1.192  13.879  20.257  0.00  0.00    +0.000 S 
ATOM     26  O   UNL     1      -2.632  13.819  20.387  0.00  0.00    +0.000 OA
ATOM     27  O   UNL     1      -0.404  14.514  21.297  0.00  0.00    +0.000 OA
BRANCH  25  28
ATOM     28  N   UNL     1      -0.879  14.588  18.748  0.00  0.00    +0.000 N 
ATOM     29  C   UNL     1       0.054  15.645  18.865  0.00  0.00    +0.000 A 
ATOM     30  N   UNL     1      -0.383  16.879  18.868  0.00  0.00    +0.000 NA
ATOM     31  C   UNL     1       0.693  17.728  19.052  0.00  0.00    +0.000 A 
ATOM     32  C   UNL     1       1.935  17.127  19.061  0.00  0.00    +0.000 A 
ATOM     33  S   UNL     1       1.749  15.430  18.882  0.00  0.00    +0.000 S 
ATOM     34  H   UNL     1      -1.767  14.990  18.444  0.00  0.00    +0.000 HD
ENDBRANCH  25  28
ENDBRANCH   4  25
TORSDOF 6
ENDMDL
MODEL 9
REMARK VINA RESULT:      -8.2      6.805      9.382
REMARK  Name = 
REMARK  6 active torsions:
REMARK  status: ('A' for Active; 'I' for Inactive)
REMARK    1  A    between atoms: C_2  and  C_3
REMARK    2  A    between atoms: C_3  and  O_4
REMARK    3  A    between atoms: O_4  and  C_5
REMARK    4  A    between atoms: N_13  and  C_14
REMARK    5  A    between atoms: C_17  and  S_18
REMARK    6  A    between atoms: S_18  and  N_21
REMARK                            x       y       z     vdW  Elec       q    Type
REMARK                         _______ _______ _______ _____ _____    ______ ____
ROOT
ATOM      1  C   UNL     1       1.432   8.693  19.279  0.00  0.00    +0.000 A 
ATOM      2  C   UNL     1       0.967   9.096  18.026  0.00  0.00    +0.000 A 
ATOM      3  C   UNL     1      -0.035  10.046  17.910  0.00  0.00    +0.000 A 
ATOM      4  C   UNL     1      -0.625  10.604  19.048  0.00  0.00    +0.000 A 
ATOM      5  C   UNL     1      -0.258  10.162  20.349  0.00  0.00    +0.000 A 
ATOM      6  C   UNL     1      -0.870  10.618  21.547  0.00  0.00    +0.000 A 
ATOM      7  C   UNL     1      -0.470  10.186  22.811  0.00  0.00    +0.000 A 
ATOM      8  C   UNL     1       0.547   9.262  22.922  0.00  0.00    +0.000 A 
ATOM      9  C   UNL     1       1.161   8.771  21.770  0.00  0.00    +0.000 A 
ATOM     10  C   UNL     1       0.790   9.189  20.463  0.00  0.00    +0.000 A 
ENDROOT
BRANCH   1  13
ATOM     11  O   UNL     1       1.750   5.971  18.115  0.00  0.00    +0.000 OA
ATOM     12  C   UNL     1       2.589   6.498  18.841  0.00  0.00    +0.000 C 
ATOM     13  N   UNL     1       2.527   7.783  19.369  0.00  0.00    +0.000 N 
ATOM     14  H   UNL     1       3.400   8.145  19.724  0.00  0.00    +0.000 HD
BRANCH  12  15
ATOM     15  C   UNL     1       3.840   5.724  19.264  0.00  0.00    +0.000 C 
BRANCH  15  16
ATOM     16  O   UNL     1       4.094   4.614  18.413  0.00  0.00    +0.000 OA
BRANCH  16  17
ATOM     17  C   UNL     1       5.064   4.795  17.458  0.00  0.00    +0.000 A 
ATOM     18  C   UNL     1       6.297   5.425  17.664  0.00  0.00    +0.000 A 
ATOM     19  C   UNL     1       7.208   5.560  16.612  0.00  0.00    +0.000 A 
ATOM     20  C   UNL     1       6.887   5.069  15.353  0.00  0.00    +0.000 A 
ATOM     21  F   UNL     1       7.776   5.216  14.359  0.00  0.00    +0.000 F 
ATOM     22  C   UNL     1       5.663   4.443  15.134  0.00  0.00    +0.000 A 
ATOM     23 CL   UNL     1       5.262   3.837  13.572  0.00  0.00    +0.000 Cl
ATOM     24  C   UNL     1       4.752   4.306  16.185  0.00  0.00    +0.000 A 
ENDBRANCH  16  17
ENDBRANCH  15  16
ENDBRANCH  12  15
ENDBRANCH   1  13
BRANCH   4  25
ATOM     25  S   UNL     1      -1.723  11.982  18.717  0.00  0.00    +0.000 S 
ATOM     26  O   UNL     1      -2.828  11.530  17.900  0.00  0.00    +0.000 OA
ATOM     27  O   UNL     1      -1.990  12.632  19.987  0.00  0.00    +0.000 OA
BRANCH  25  28
ATOM     28  N   UNL     1      -0.767  12.970  17.724  0.00  0.00    +0.000 N 
ATOM     29  C   UNL     1       0.050  13.829  18.494  0.00  0.00    +0.000 A 
ATOM     30  N   UNL     1      -0.312  15.078  18.650  0.00  0.00    +0.000 NA
ATOM     31  C   UNL     1       0.599  15.702  19.482  0.00  0.00    +0.000 A 
ATOM     32  C   UNL     1       1.698  14.947  19.839  0.00  0.00    +0.000 A 
ATOM     33  S   UNL     1       1.563  13.381  19.149  0.00  0.00    +0.000 S 
ATOM     34  H   UNL     1      -1.425  13.552  17.202  0.00  0.00    +0.000 HD
ENDBRANCH  25  28
ENDBRANCH   4  25
TORSDOF 6
ENDMDL
