MODEL 1
REMARK VINA RESULT:      -5.9      0.000      0.000
REMARK  Name = 
REMARK  2 active torsions:
REMARK  status: ('A' for Active; 'I' for Inactive)
REMARK    1  A    between atoms: C_1  and  N_2
REMARK    2  A    between atoms: N_2  and  C_3
REMARK                            x       y       z     vdW  Elec       q    Type
REMARK                         _______ _______ _______ _____ _____    ______ ____
ROOT
ATOM      1  C   UNL     1       1.674   2.955  20.852  0.00  0.00    +0.000 C 
ATOM      2  N   UNL     1       1.351   3.132  19.448  0.00  0.00    +0.000 N 
ATOM      3  C   UNL     1       0.344   2.188  18.967  0.00  0.00    +0.000 C 
ATOM      4  C   UNL     1       1.940   3.966  18.510  0.00  0.00    +0.000 C 
ATOM      5  O   UNL     1       1.608   3.851  17.324  0.00  0.00    +0.000 OA
ATOM      6  N   UNL     1       2.881   4.930  18.857  0.00  0.00    +0.000 N 
ATOM      7  C   UNL     1       3.670   5.012  20.090  0.00  0.00    +0.000 C 
ATOM      8  C   UNL     1       4.800   3.983  20.058  0.00  0.00    +0.000 C 
ATOM      9  O   UNL     1       6.002   4.418  19.438  0.00  0.00    +0.000 OA
ATOM     10  C   UNL     1       5.916   5.390  18.400  0.00  0.00    +0.000 C 
ATOM     11  C   UNL     1       4.867   5.154  17.290  0.00  0.00    +0.000 C 
ATOM     12  C   UNL     1       4.801   3.691  16.824  0.00  0.00    +0.000 C 
ATOM     13  C   UNL     1       4.354   3.788  15.374  0.00  0.00    +0.000 C 
ATOM     14  N   UNL     1       5.028   4.988  14.892  0.00  0.00    +0.000 N 
ATOM     15  C   UNL     1       5.981   4.767  13.910  0.00  0.00    +0.000 A 
ATOM     16  N   UNL     1       5.742   3.796  13.009  0.00  0.00    +0.000 NA
ATOM     17  C   UNL     1       6.666   3.561  12.063  0.00  0.00    +0.000 A 
ATOM     18  C   UNL     1       7.840   4.258  11.969  0.00  0.00    +0.000 A 
ATOM     19  C   UNL     1       8.005   5.236  12.916  0.00  0.00    +0.000 A 
ATOM     20  N   UNL     1       7.099   5.512  13.876  0.00  0.00    +0.000 NA
ATOM     21  C   UNL     1       5.333   5.895  15.999  0.00  0.00    +0.000 C 
ATOM     22  C   UNL     1       3.479   5.694  17.740  0.00  0.00    +0.000 C 
ENDROOT
TORSDOF 0
ENDMDL
MODEL 2
REMARK VINA RESULT:      -5.7      8.167     10.180
REMARK  Name = 
REMARK  2 active torsions:
REMARK  status: ('A' for Active; 'I' for Inactive)
REMARK    1  A    between atoms: C_1  and  N_2
REMARK    2  A    between atoms: N_2  and  C_3
REMARK                            x       y       z     vdW  Elec       q    Type
REMARK                         _______ _______ _______ _____ _____    ______ ____
ROOT
ATOM      1  C   UNL     1       2.187   7.118  19.856  0.00  0.00    +0.000 C 
ATOM      2  N   UNL     1       2.214   8.049  18.743  0.00  0.00    +0.000 N 
ATOM      3  C   UNL     1       3.294   7.779  17.795  0.00  0.00    +0.000 C 
ATOM      4  C   UNL     1       1.456   9.191  18.535  0.00  0.00    +0.000 C 
ATOM      5  O   UNL     1       1.745   9.929  17.584  0.00  0.00    +0.000 OA
ATOM      6  N   UNL     1       0.378   9.528  19.348  0.00  0.00    +0.000 N 
ATOM      7  C   UNL     1       0.077   9.027  20.692  0.00  0.00    +0.000 C 
ATOM      8  C   UNL     1       1.002   9.686  21.716  0.00  0.00    +0.000 C 
ATOM      9  O   UNL     1       0.545  10.926  22.239  0.00  0.00    +0.000 OA
ATOM     10  C   UNL     1      -0.280  11.746  21.417  0.00  0.00    +0.000 C 
ATOM     11  C   UNL     1       0.182  11.985  19.961  0.00  0.00    +0.000 C 
ATOM     12  C   UNL     1       1.692  12.247  19.843  0.00  0.00    +0.000 C 
ATOM     13  C   UNL     1       1.815  13.135  18.615  0.00  0.00    +0.000 C 
ATOM     14  N   UNL     1       0.630  13.983  18.692  0.00  0.00    +0.000 N 
ATOM     15  C   UNL     1       0.889  15.329  18.897  0.00  0.00    +0.000 A 
ATOM     16  N   UNL     1       1.981  15.856  18.313  0.00  0.00    +0.000 NA
ATOM     17  C   UNL     1       2.251  17.155  18.518  0.00  0.00    +0.000 A 
ATOM     18  C   UNL     1       1.474  17.971  19.293  0.00  0.00    +0.000 A 
ATOM     19  C   UNL     1       0.375  17.364  19.845  0.00  0.00    +0.000 A 
ATOM     20  N   UNL     1       0.060  16.066  19.656  0.00  0.00    +0.000 NA
ATOM     21  C   UNL     1      -0.430  13.329  19.459  0.00  0.00    +0.000 C 
ATOM     22  C   UNL     1      -0.288  10.815  19.050  0.00  0.00    +0.000 C 
ENDROOT
TORSDOF 0
ENDMDL
MODEL 3
REMARK VINA RESULT:      -5.6      9.637     12.527
REMARK  Name = 
REMARK  2 active torsions:
REMARK  status: ('A' for Active; 'I' for Inactive)
REMARK    1  A    between atoms: C_1  and  N_2
REMARK    2  A    between atoms: N_2  and  C_3
REMARK                            x       y       z     vdW  Elec       q    Type
REMARK                         _______ _______ _______ _____ _____    ______ ____
ROOT
ATOM      1  C   UNL     1       2.789  13.708  20.482  0.00  0.00    +0.000 C 
ATOM      2  N   UNL     1       1.564  14.474  20.334  0.00  0.00    +0.000 N 
ATOM      3  C   UNL     1       1.548  15.692  21.143  0.00  0.00    +0.000 C 
ATOM      4  C   UNL     1       0.404  14.151  19.648  0.00  0.00    +0.000 C 
ATOM      5  O   UNL     1      -0.583  14.886  19.774  0.00  0.00    +0.000 OA
ATOM      6  N   UNL     1       0.316  13.039  18.816  0.00  0.00    +0.000 N 
ATOM      7  C   UNL     1       1.196  11.867  18.788  0.00  0.00    +0.000 C 
ATOM      8  C   UNL     1       0.889  10.953  19.973  0.00  0.00    +0.000 C 
ATOM      9  O   UNL     1      -0.139   9.997  19.754  0.00  0.00    +0.000 OA
ATOM     10  C   UNL     1      -1.180  10.320  18.836  0.00  0.00    +0.000 C 
ATOM     11  C   UNL     1      -1.843  11.709  18.972  0.00  0.00    +0.000 C 
ATOM     12  C   UNL     1      -2.110  12.109  20.432  0.00  0.00    +0.000 C 
ATOM     13  C   UNL     1      -3.326  13.018  20.347  0.00  0.00    +0.000 C 
ATOM     14  N   UNL     1      -4.125  12.413  19.287  0.00  0.00    +0.000 N 
ATOM     15  C   UNL     1      -5.344  11.894  19.698  0.00  0.00    +0.000 A 
ATOM     16  N   UNL     1      -6.009  12.546  20.669  0.00  0.00    +0.000 NA
ATOM     17  C   UNL     1      -7.182  12.044  21.088  0.00  0.00    +0.000 A 
ATOM     18  C   UNL     1      -7.735  10.901  20.579  0.00  0.00    +0.000 A 
ATOM     19  C   UNL     1      -7.002  10.300  19.588  0.00  0.00    +0.000 A 
ATOM     20  N   UNL     1      -5.826  10.776  19.130  0.00  0.00    +0.000 NA
ATOM     21  C   UNL     1      -3.283  11.635  18.378  0.00  0.00    +0.000 C 
ATOM     22  C   UNL     1      -1.008  12.779  18.210  0.00  0.00    +0.000 C 
ENDROOT
TORSDOF 0
ENDMDL
MODEL 4
REMARK VINA RESULT:      -5.4     10.545     13.527
REMARK  Name = 
REMARK  2 active torsions:
REMARK  status: ('A' for Active; 'I' for Inactive)
REMARK    1  A    between atoms: C_1  and  N_2
REMARK    2  A    between atoms: N_2  and  C_3
REMARK                            x       y       z     vdW  Elec       q    Type
REMARK                         _______ _______ _______ _____ _____    ______ ____
ROOT
ATOM      1  C   UNL     1      11.674  13.588  16.506  0.00  0.00    +0.000 C 
ATOM      2  N   UNL     1      11.092  14.684  17.260  0.00  0.00    +0.000 N 
ATOM      3  C   UNL     1      11.751  15.965  17.012  0.00  0.00    +0.000 C 
ATOM      4  C   UNL     1      10.111  14.652  18.238  0.00  0.00    +0.000 C 
ATOM      5  O   UNL     1       9.864  15.691  18.863  0.00  0.00    +0.000 OA
ATOM      6  N   UNL     1       9.389  13.500  18.532  0.00  0.00    +0.000 N 
ATOM      7  C   UNL     1       9.732  12.115  18.195  0.00  0.00    +0.000 C 
ATOM      8  C   UNL     1      10.837  11.609  19.121  0.00  0.00    +0.000 C 
ATOM      9  O   UNL     1      10.391  11.041  20.346  0.00  0.00    +0.000 OA
ATOM     10  C   UNL     1       9.174  11.517  20.910  0.00  0.00    +0.000 C 
ATOM     11  C   UNL     1       8.982  13.048  20.999  0.00  0.00    +0.000 C 
ATOM     12  C   UNL     1      10.249  13.789  21.454  0.00  0.00    +0.000 C 
ATOM     13  C   UNL     1       9.717  15.025  22.162  0.00  0.00    +0.000 C 
ATOM     14  N   UNL     1       8.516  14.539  22.833  0.00  0.00    +0.000 N 
ATOM     15  C   UNL     1       8.573  14.560  24.218  0.00  0.00    +0.000 A 
ATOM     16  N   UNL     1       9.233  15.575  24.805  0.00  0.00    +0.000 NA
ATOM     17  C   UNL     1       9.310  15.597  26.146  0.00  0.00    +0.000 A 
ATOM     18  C   UNL     1       8.753  14.637  26.946  0.00  0.00    +0.000 A 
ATOM     19  C   UNL     1       8.090  13.642  26.275  0.00  0.00    +0.000 A 
ATOM     20  N   UNL     1       7.979  13.587  24.932  0.00  0.00    +0.000 NA
ATOM     21  C   UNL     1       7.980  13.359  22.153  0.00  0.00    +0.000 C 
ATOM     22  C   UNL     1       8.427  13.598  19.652  0.00  0.00    +0.000 C 
ENDROOT
TORSDOF 0
ENDMDL
MODEL 5
REMARK VINA RESULT:      -5.4     10.294     11.737
REMARK  Name = 
REMARK  2 active torsions:
REMARK  status: ('A' for Active; 'I' for Inactive)
REMARK    1  A    between atoms: C_1  and  N_2
REMARK    2  A    between atoms: N_2  and  C_3
REMARK                            x       y       z     vdW  Elec       q    Type
REMARK                         _______ _______ _______ _____ _____    ______ ____
ROOT
ATOM      1  C   UNL     1       5.419  12.482  28.349  0.00  0.00    +0.000 C 
ATOM      2  N   UNL     1       5.151  12.019  26.999  0.00  0.00    +0.000 N 
ATOM      3  C   UNL     1       4.469  10.726  26.960  0.00  0.00    +0.000 C 
ATOM      4  C   UNL     1       5.551  12.563  25.789  0.00  0.00    +0.000 C 
ATOM      5  O   UNL     1       5.339  11.922  24.752  0.00  0.00    +0.000 OA
ATOM      6  N   UNL     1       6.172  13.804  25.699  0.00  0.00    +0.000 N 
ATOM      7  C   UNL     1       6.830  14.558  26.771  0.00  0.00    +0.000 C 
ATOM      8  C   UNL     1       8.195  13.945  27.081  0.00  0.00    +0.000 C 
ATOM      9  O   UNL     1       9.272  14.425  26.288  0.00  0.00    +0.000 OA
ATOM     10  C   UNL     1       8.993  14.869  24.964  0.00  0.00    +0.000 C 
ATOM     11  C   UNL     1       8.120  13.953  24.076  0.00  0.00    +0.000 C 
ATOM     12  C   UNL     1       8.482  12.465  24.205  0.00  0.00    +0.000 C 
ATOM     13  C   UNL     1       8.118  11.880  22.850  0.00  0.00    +0.000 C 
ATOM     14  N   UNL     1       8.472  12.944  21.917  0.00  0.00    +0.000 N 
ATOM     15  C   UNL     1       9.510  12.638  21.050  0.00  0.00    +0.000 A 
ATOM     16  N   UNL     1       9.601  11.374  20.599  0.00  0.00    +0.000 NA
ATOM     17  C   UNL     1      10.612  11.061  19.772  0.00  0.00    +0.000 A 
ATOM     18  C   UNL     1      11.558  11.963  19.367  0.00  0.00    +0.000 A 
ATOM     19  C   UNL     1      11.392  13.231  19.862  0.00  0.00    +0.000 A 
ATOM     20  N   UNL     1      10.385  13.591  20.685  0.00  0.00    +0.000 NA
ATOM     21  C   UNL     1       8.450  14.248  22.580  0.00  0.00    +0.000 C 
ATOM     22  C   UNL     1       6.612  14.221  24.350  0.00  0.00    +0.000 C 
ENDROOT
TORSDOF 0
ENDMDL
MODEL 6
REMARK VINA RESULT:      -5.3     10.882     13.009
REMARK  Name = 
REMARK  2 active torsions:
REMARK  status: ('A' for Active; 'I' for Inactive)
REMARK    1  A    between atoms: C_1  and  N_2
REMARK    2  A    between atoms: N_2  and  C_3
REMARK                            x       y       z     vdW  Elec       q    Type
REMARK                         _______ _______ _______ _____ _____    ______ ____
ROOT
ATOM      1  C   UNL     1      -6.143  16.750  21.470  0.00  0.00    +0.000 C 
ATOM      2  N   UNL     1      -4.784  16.697  20.962  0.00  0.00    +0.000 N 
ATOM      3  C   UNL     1      -4.632  17.348  19.661  0.00  0.00    +0.000 C 
ATOM      4  C   UNL     1      -3.682  16.030  21.472  0.00  0.00    +0.000 C 
ATOM      5  O   UNL     1      -2.645  15.995  20.797  0.00  0.00    +0.000 OA
ATOM      6  N   UNL     1      -3.697  15.409  22.717  0.00  0.00    +0.000 N 
ATOM      7  C   UNL     1      -4.866  15.019  23.511  0.00  0.00    +0.000 C 
ATOM      8  C   UNL     1      -5.503  13.761  22.923  0.00  0.00    +0.000 C 
ATOM      9  O   UNL     1      -4.964  12.531  23.390  0.00  0.00    +0.000 OA
ATOM     10  C   UNL     1      -3.597  12.498  23.789  0.00  0.00    +0.000 C 
ATOM     11  C   UNL     1      -2.563  13.140  22.836  0.00  0.00    +0.000 C 
ATOM     12  C   UNL     1      -2.821  12.813  21.357  0.00  0.00    +0.000 C 
ATOM     13  C   UNL     1      -1.439  12.851  20.726  0.00  0.00    +0.000 C 
ATOM     14  N   UNL     1      -0.578  12.295  21.763  0.00  0.00    +0.000 N 
ATOM     15  C   UNL     1       0.015  11.083  21.442  0.00  0.00    +0.000 A 
ATOM     16  N   UNL     1       0.391  10.887  20.165  0.00  0.00    +0.000 NA
ATOM     17  C   UNL     1       0.951   9.711  19.838  0.00  0.00    +0.000 A 
ATOM     18  C   UNL     1       1.157   8.700  20.737  0.00  0.00    +0.000 A 
ATOM     19  C   UNL     1       0.756   8.980  22.018  0.00  0.00    +0.000 A 
ATOM     20  N   UNL     1       0.200  10.151  22.392  0.00  0.00    +0.000 NA
ATOM     21  C   UNL     1      -1.175  12.474  23.087  0.00  0.00    +0.000 C 
ATOM     22  C   UNL     1      -2.472  14.671  23.095  0.00  0.00    +0.000 C 
ENDROOT
TORSDOF 0
ENDMDL
MODEL 7
REMARK VINA RESULT:      -5.3      6.890      8.511
REMARK  Name = 
REMARK  2 active torsions:
REMARK  status: ('A' for Active; 'I' for Inactive)
REMARK    1  A    between atoms: C_1  and  N_2
REMARK    2  A    between atoms: N_2  and  C_3
REMARK                            x       y       z     vdW  Elec       q    Type
REMARK                         _______ _______ _______ _____ _____    ______ ____
ROOT
ATOM      1  C   UNL     1      -1.356  14.357  22.298  0.00  0.00    +0.000 C 
ATOM      2  N   UNL     1      -1.703  12.964  22.076  0.00  0.00    +0.000 N 
ATOM      3  C   UNL     1      -2.399  12.358  23.210  0.00  0.00    +0.000 C 
ATOM      4  C   UNL     1      -1.364  12.133  21.020  0.00  0.00    +0.000 C 
ATOM      5  O   UNL     1      -1.640  10.930  21.101  0.00  0.00    +0.000 OA
ATOM      6  N   UNL     1      -0.736  12.605  19.872  0.00  0.00    +0.000 N 
ATOM      7  C   UNL     1      -0.013  13.868  19.700  0.00  0.00    +0.000 C 
ATOM      8  C   UNL     1       1.361  13.780  20.364  0.00  0.00    +0.000 C 
ATOM      9  O   UNL     1       2.398  13.250  19.549  0.00  0.00    +0.000 OA
ATOM     10  C   UNL     1       2.051  12.307  18.539  0.00  0.00    +0.000 C 
ATOM     11  C   UNL     1       1.121  11.141  18.944  0.00  0.00    +0.000 C 
ATOM     12  C   UNL     1       1.474  10.536  20.312  0.00  0.00    +0.000 C 
ATOM     13  C   UNL     1       1.030   9.086  20.197  0.00  0.00    +0.000 C 
ATOM     14  N   UNL     1       1.343   8.746  18.814  0.00  0.00    +0.000 N 
ATOM     15  C   UNL     1       2.329   7.783  18.658  0.00  0.00    +0.000 A 
ATOM     16  N   UNL     1       2.381   6.786  19.560  0.00  0.00    +0.000 NA
ATOM     17  C   UNL     1       3.342   5.857  19.430  0.00  0.00    +0.000 A 
ATOM     18  C   UNL     1       4.273   5.874  18.428  0.00  0.00    +0.000 A 
ATOM     19  C   UNL     1       4.148   6.915  17.545  0.00  0.00    +0.000 A 
ATOM     20  N   UNL     1       3.192   7.863  17.631  0.00  0.00    +0.000 NA
ATOM     21  C   UNL     1       1.370   9.945  17.975  0.00  0.00    +0.000 C 
ATOM     22  C   UNL     1      -0.367  11.589  18.862  0.00  0.00    +0.000 C 
ENDROOT
TORSDOF 0
ENDMDL
MODEL 8
REMARK VINA RESULT:      -5.2      8.612     10.436
REMARK  Name = 
REMARK  2 active torsions:
REMARK  status: ('A' for Active; 'I' for Inactive)
REMARK    1  A    between atoms: C_1  and  N_2
REMARK    2  A    between atoms: N_2  and  C_3
REMARK                            x       y       z     vdW  Elec       q    Type
REMARK                         _______ _______ _______ _____ _____    ______ ____
ROOT
ATOM      1  C   UNL     1      -0.724  16.594  22.959  0.00  0.00    +0.000 C 
ATOM      2  N   UNL     1      -1.153  15.215  23.115  0.00  0.00    +0.000 N 
ATOM      3  C   UNL     1      -1.339  14.826  24.512  0.00  0.00    +0.000 C 
ATOM      4  C   UNL     1      -1.283  14.223  22.156  0.00  0.00    +0.000 C 
ATOM      5  O   UNL     1      -1.522  13.067  22.528  0.00  0.00    +0.000 OA
ATOM      6  N   UNL     1      -1.167  14.483  20.794  0.00  0.00    +0.000 N 
ATOM      7  C   UNL     1      -0.556  15.651  20.153  0.00  0.00    +0.000 C 
ATOM      8  C   UNL     1       0.967  15.548  20.220  0.00  0.00    +0.000 C 
ATOM      9  O   UNL     1       1.577  14.833  19.154  0.00  0.00    +0.000 OA
ATOM     10  C   UNL     1       0.836  13.790  18.527  0.00  0.00    +0.000 C 
ATOM     11  C   UNL     1       0.131  12.766  19.446  0.00  0.00    +0.000 C 
ATOM     12  C   UNL     1       0.999  12.329  20.637  0.00  0.00    +0.000 C 
ATOM     13  C   UNL     1       0.524  10.916  20.937  0.00  0.00    +0.000 C 
ATOM     14  N   UNL     1       0.245  10.366  19.615  0.00  0.00    +0.000 N 
ATOM     15  C   UNL     1       1.068   9.318  19.234  0.00  0.00    +0.000 A 
ATOM     16  N   UNL     1       1.466   8.453  20.184  0.00  0.00    +0.000 NA
ATOM     17  C   UNL     1       2.277   7.442  19.830  0.00  0.00    +0.000 A 
ATOM     18  C   UNL     1       2.722   7.249  18.551  0.00  0.00    +0.000 A 
ATOM     19  C   UNL     1       2.266   8.166  17.639  0.00  0.00    +0.000 A 
ATOM     20  N   UNL     1       1.442   9.188  17.949  0.00  0.00    +0.000 NA
ATOM     21  C   UNL     1      -0.051  11.433  18.659  0.00  0.00    +0.000 C 
ATOM     22  C   UNL     1      -1.255  13.312  19.894  0.00  0.00    +0.000 C 
ENDROOT
TORSDOF 0
ENDMDL
MODEL 9
REMARK VINA RESULT:      -5.1      9.048     10.847
REMARK  Name = 
REMARK  2 active torsions:
REMARK  status: ('A' for Active; 'I' for Inactive)
REMARK    1  A    between atoms: C_1  and  N_2
REMARK    2  A    between atoms: N_2  and  C_3
REMARK                            x       y       z     vdW  Elec       q    Type
REMARK                         _______ _______ _______ _____ _____    ______ ____
ROOT
ATOM      1  C   UNL     1      -2.618  16.138  23.424  0.00  0.00    +0.000 C 
ATOM      2  N   UNL     1      -2.848  14.705  23.443  0.00  0.00    +0.000 N 
ATOM      3  C   UNL     1      -3.087  14.180  24.787  0.00  0.00    +0.000 C 
ATOM      4  C   UNL     1      -2.752  13.786  22.410  0.00  0.00    +0.000 C 
ATOM      5  O   UNL     1      -2.846  12.582  22.677  0.00  0.00    +0.000 OA
ATOM      6  N   UNL     1      -2.566  14.171  21.086  0.00  0.00    +0.000 N 
ATOM      7  C   UNL     1      -2.085  15.462  20.586  0.00  0.00    +0.000 C 
ATOM      8  C   UNL     1      -0.574  15.571  20.786  0.00  0.00    +0.000 C 
ATOM      9  O   UNL     1       0.219  15.039  19.733  0.00  0.00    +0.000 OA
ATOM     10  C   UNL     1      -0.306  13.957  18.970  0.00  0.00    +0.000 C 
ATOM     11  C   UNL     1      -0.923  12.772  19.747  0.00  0.00    +0.000 C 
ATOM     12  C   UNL     1      -0.099  12.365  20.979  0.00  0.00    +0.000 C 
ATOM     13  C   UNL     1      -0.382  10.880  21.136  0.00  0.00    +0.000 C 
ATOM     14  N   UNL     1      -0.468  10.406  19.759  0.00  0.00    +0.000 N 
ATOM     15  C   UNL     1       0.529   9.520  19.382  0.00  0.00    +0.000 A 
ATOM     16  N   UNL     1       0.972   8.645  20.303  0.00  0.00    +0.000 NA
ATOM     17  C   UNL     1       1.951   7.792  19.956  0.00  0.00    +0.000 A 
ATOM     18  C   UNL     1       2.522   7.770  18.713  0.00  0.00    +0.000 A 
ATOM     19  C   UNL     1       2.010   8.684  17.829  0.00  0.00    +0.000 A 
ATOM     20  N   UNL     1       1.021   9.551  18.132  0.00  0.00    +0.000 NA
ATOM     21  C   UNL     1      -0.841  11.495  18.855  0.00  0.00    +0.000 C 
ATOM     22  C   UNL     1      -2.406  13.078  20.103  0.00  0.00    +0.000 C 
ENDROOT
TORSDOF 0
ENDMDL
