MODEL 1
REMARK VINA RESULT:      -7.2      0.000      0.000
REMARK  Name = 
REMARK  3 active torsions:
REMARK  status: ('A' for Active; 'I' for Inactive)
REMARK    1  A    between atoms: C_2  and  C_3
REMARK    2  A    between atoms: C_15  and  O_16
REMARK    3  A    between atoms: C_15  and  C_17
REMARK                            x       y       z     vdW  Elec       q    Type
REMARK                         _______ _______ _______ _____ _____    ______ ____
ROOT
ATOM      1  O   UNL     1       7.051   5.283  18.260  0.00  0.00    +0.000 OA
ATOM      2  C   UNL     1       6.135   4.594  17.815  0.00  0.00    +0.000 C 
ATOM      3  N   UNL     1       6.153   4.082  16.529  0.00  0.00    +0.000 N 
ATOM      4  C   UNL     1       7.210   4.328  15.551  0.00  0.00    +0.000 C 
ATOM      5  C   UNL     1       6.124   4.646  14.512  0.00  0.00    +0.000 C 
ATOM      6  C   UNL     1       5.070   4.231  15.550  0.00  0.00    +0.000 C 
ENDROOT
BRANCH   2   7
ATOM      7  C   UNL     1       4.994   4.221  18.629  0.00  0.00    +0.000 A 
ATOM      8  C   UNL     1       4.811   3.184  19.528  0.00  0.00    +0.000 A 
ATOM      9  C   UNL     1       3.516   3.305  20.097  0.00  0.00    +0.000 A 
ATOM     10  C   UNL     1       2.800   2.555  21.046  0.00  0.00    +0.000 A 
ATOM     11  C   UNL     1       1.518   2.974  21.393  0.00  0.00    +0.000 A 
ATOM     12  F   UNL     1       0.825   2.265  22.296  0.00  0.00    +0.000 F 
ATOM     13  C   UNL     1       0.942   4.107  20.832  0.00  0.00    +0.000 A 
ATOM     14  C   UNL     1       1.639   4.868  19.889  0.00  0.00    +0.000 A 
ATOM     15  C   UNL     1       2.926   4.438  19.540  0.00  0.00    +0.000 A 
ATOM     16  N   UNL     1       3.839   4.974  18.661  0.00  0.00    +0.000 N 
ATOM     17  H   UNL     1       3.705   5.816  18.115  0.00  0.00    +0.000 HD
ENDBRANCH   2   7
BRANCH   5  18
ATOM     18  C   UNL     1       6.160   3.698  13.322  0.00  0.00    +0.000 C 
ATOM     19  F   UNL     1       4.951   3.705  12.701  0.00  0.00    +0.000 F 
ATOM     20  F   UNL     1       7.057   4.180  12.421  0.00  0.00    +0.000 F 
ENDBRANCH   5  18
BRANCH   5  21
ATOM     21  O   UNL     1       6.064   6.041  14.086  0.00  0.00    +0.000 OA
ATOM     22  H   UNL     1       5.748   6.010  13.163  0.00  0.00    +0.000 HD
ENDBRANCH   5  21
TORSDOF 3
ENDMDL
MODEL 2
REMARK VINA RESULT:      -7.2      3.622      4.416
REMARK  Name = 
REMARK  3 active torsions:
REMARK  status: ('A' for Active; 'I' for Inactive)
REMARK    1  A    between atoms: C_2  and  C_3
REMARK    2  A    between atoms: C_15  and  O_16
REMARK    3  A    between atoms: C_15  and  C_17
REMARK                            x       y       z     vdW  Elec       q    Type
REMARK                         _______ _______ _______ _____ _____    ______ ____
ROOT
ATOM      1  O   UNL     1       4.185   4.300  19.263  0.00  0.00    +0.000 OA
ATOM      2  C   UNL     1       4.010   5.153  18.395  0.00  0.00    +0.000 C 
ATOM      3  N   UNL     1       4.484   5.002  17.104  0.00  0.00    +0.000 N 
ATOM      4  C   UNL     1       5.271   3.863  16.635  0.00  0.00    +0.000 C 
ATOM      5  C   UNL     1       6.249   4.854  15.984  0.00  0.00    +0.000 C 
ATOM      6  C   UNL     1       5.296   5.991  16.385  0.00  0.00    +0.000 C 
ENDROOT
BRANCH   2   7
ATOM      7  C   UNL     1       3.242   6.357  18.651  0.00  0.00    +0.000 A 
ATOM      8  C   UNL     1       2.849   7.386  17.812  0.00  0.00    +0.000 A 
ATOM      9  C   UNL     1       2.063   8.300  18.561  0.00  0.00    +0.000 A 
ATOM     10  C   UNL     1       1.410   9.504  18.244  0.00  0.00    +0.000 A 
ATOM     11  C   UNL     1       0.696  10.156  19.246  0.00  0.00    +0.000 A 
ATOM     12  F   UNL     1       0.070  11.306  18.955  0.00  0.00    +0.000 F 
ATOM     13  C   UNL     1       0.612   9.645  20.535  0.00  0.00    +0.000 A 
ATOM     14  C   UNL     1       1.252   8.448  20.870  0.00  0.00    +0.000 A 
ATOM     15  C   UNL     1       1.973   7.799  19.859  0.00  0.00    +0.000 A 
ATOM     16  N   UNL     1       2.689   6.625  19.885  0.00  0.00    +0.000 N 
ATOM     17  H   UNL     1       2.793   6.018  20.689  0.00  0.00    +0.000 HD
ENDBRANCH   2   7
BRANCH   5  18
ATOM     18  C   UNL     1       6.333   4.683  14.474  0.00  0.00    +0.000 C 
ATOM     19  F   UNL     1       7.494   5.226  14.022  0.00  0.00    +0.000 F 
ATOM     20  F   UNL     1       6.398   3.354  14.199  0.00  0.00    +0.000 F 
ENDBRANCH   5  18
BRANCH   5  21
ATOM     21  O   UNL     1       7.574   4.906  16.594  0.00  0.00    +0.000 OA
ATOM     22  H   UNL     1       8.196   4.753  15.858  0.00  0.00    +0.000 HD
ENDBRANCH   5  21
TORSDOF 3
ENDMDL
MODEL 3
REMARK VINA RESULT:      -7.1      3.896      4.900
REMARK  Name = 
REMARK  3 active torsions:
REMARK  status: ('A' for Active; 'I' for Inactive)
REMARK    1  A    between atoms: C_2  and  C_3
REMARK    2  A    between atoms: C_15  and  O_16
REMARK    3  A    between atoms: C_15  and  C_17
REMARK                            x       y       z     vdW  Elec       q    Type
REMARK                         _______ _______ _______ _____ _____    ______ ____
ROOT
ATOM      1  O   UNL     1       2.867   4.127  19.661  0.00  0.00    +0.000 OA
ATOM      2  C   UNL     1       3.098   5.080  18.920  0.00  0.00    +0.000 C 
ATOM      3  N   UNL     1       3.831   4.948  17.753  0.00  0.00    +0.000 N 
ATOM      4  C   UNL     1       4.445   3.705  17.293  0.00  0.00    +0.000 C 
ATOM      5  C   UNL     1       5.743   4.485  17.030  0.00  0.00    +0.000 C 
ATOM      6  C   UNL     1       4.987   5.775  17.389  0.00  0.00    +0.000 C 
ENDROOT
BRANCH   2   7
ATOM      7  C   UNL     1       2.569   6.403  19.188  0.00  0.00    +0.000 A 
ATOM      8  C   UNL     1       2.308   7.472  18.347  0.00  0.00    +0.000 A 
ATOM      9  C   UNL     1       1.741   8.522  19.117  0.00  0.00    +0.000 A 
ATOM     10  C   UNL     1       1.288   9.815  18.808  0.00  0.00    +0.000 A 
ATOM     11  C   UNL     1       0.763  10.598  19.833  0.00  0.00    +0.000 A 
ATOM     12  F   UNL     1       0.329  11.835  19.549  0.00  0.00    +0.000 F 
ATOM     13  C   UNL     1       0.674  10.130  21.138  0.00  0.00    +0.000 A 
ATOM     14  C   UNL     1       1.117   8.846  21.466  0.00  0.00    +0.000 A 
ATOM     15  C   UNL     1       1.648   8.065  20.431  0.00  0.00    +0.000 A 
ATOM     16  N   UNL     1       2.150   6.784  20.446  0.00  0.00    +0.000 N 
ATOM     17  H   UNL     1       2.199   6.181  21.258  0.00  0.00    +0.000 HD
ENDBRANCH   2   7
BRANCH   5  18
ATOM     18  C   UNL     1       6.157   4.453  15.566  0.00  0.00    +0.000 C 
ATOM     19  F   UNL     1       7.411   4.959  15.439  0.00  0.00    +0.000 F 
ATOM     20  F   UNL     1       6.225   3.153  15.172  0.00  0.00    +0.000 F 
ENDBRANCH   5  18
BRANCH   5  21
ATOM     21  O   UNL     1       6.856   4.149  17.911  0.00  0.00    +0.000 OA
ATOM     22  H   UNL     1       7.616   4.649  17.559  0.00  0.00    +0.000 HD
ENDBRANCH   5  21
TORSDOF 3
ENDMDL
MODEL 4
REMARK VINA RESULT:      -7.1      4.342      5.421
REMARK  Name = 
REMARK  3 active torsions:
REMARK  status: ('A' for Active; 'I' for Inactive)
REMARK    1  A    between atoms: C_2  and  C_3
REMARK    2  A    between atoms: C_15  and  O_16
REMARK    3  A    between atoms: C_15  and  C_17
REMARK                            x       y       z     vdW  Elec       q    Type
REMARK                         _______ _______ _______ _____ _____    ______ ____
ROOT
ATOM      1  O   UNL     1       1.853   4.637  18.018  0.00  0.00    +0.000 OA
ATOM      2  C   UNL     1       2.636   5.585  18.029  0.00  0.00    +0.000 C 
ATOM      3  N   UNL     1       3.917   5.492  17.512  0.00  0.00    +0.000 N 
ATOM      4  C   UNL     1       4.499   4.277  16.946  0.00  0.00    +0.000 C 
ATOM      5  C   UNL     1       5.759   4.532  17.787  0.00  0.00    +0.000 C 
ATOM      6  C   UNL     1       5.141   5.870  18.226  0.00  0.00    +0.000 C 
ENDROOT
BRANCH   2   7
ATOM      7  C   UNL     1       2.252   6.888  18.536  0.00  0.00    +0.000 A 
ATOM      8  C   UNL     1       2.054   8.098  17.892  0.00  0.00    +0.000 A 
ATOM      9  C   UNL     1       1.631   9.054  18.852  0.00  0.00    +0.000 A 
ATOM     10  C   UNL     1       1.291  10.416  18.779  0.00  0.00    +0.000 A 
ATOM     11  C   UNL     1       0.897  11.065  19.947  0.00  0.00    +0.000 A 
ATOM     12  F   UNL     1       0.572  12.365  19.889  0.00  0.00    +0.000 F 
ATOM     13  C   UNL     1       0.830  10.401  21.165  0.00  0.00    +0.000 A 
ATOM     14  C   UNL     1       1.162   9.047  21.258  0.00  0.00    +0.000 A 
ATOM     15  C   UNL     1       1.562   8.401  20.081  0.00  0.00    +0.000 A 
ATOM     16  N   UNL     1       1.937   7.095  19.862  0.00  0.00    +0.000 N 
ATOM     17  H   UNL     1       1.968   6.367  20.565  0.00  0.00    +0.000 HD
ENDBRANCH   2   7
BRANCH   5  18
ATOM     18  C   UNL     1       7.002   4.729  16.931  0.00  0.00    +0.000 C 
ATOM     19  F   UNL     1       8.098   4.324  17.624  0.00  0.00    +0.000 F 
ATOM     20  F   UNL     1       6.907   3.910  15.850  0.00  0.00    +0.000 F 
ENDBRANCH   5  18
BRANCH   5  21
ATOM     21  O   UNL     1       5.992   3.572  18.860  0.00  0.00    +0.000 OA
ATOM     22  H   UNL     1       6.125   2.717  18.409  0.00  0.00    +0.000 HD
ENDBRANCH   5  21
TORSDOF 3
ENDMDL
MODEL 5
REMARK VINA RESULT:      -7.1      4.284      5.807
REMARK  Name = 
REMARK  3 active torsions:
REMARK  status: ('A' for Active; 'I' for Inactive)
REMARK    1  A    between atoms: C_2  and  C_3
REMARK    2  A    between atoms: C_15  and  O_16
REMARK    3  A    between atoms: C_15  and  C_17
REMARK                            x       y       z     vdW  Elec       q    Type
REMARK                         _______ _______ _______ _____ _____    ______ ____
ROOT
ATOM      1  O   UNL     1       4.218   6.846  17.163  0.00  0.00    +0.000 OA
ATOM      2  C   UNL     1       3.458   6.509  18.069  0.00  0.00    +0.000 C 
ATOM      3  N   UNL     1       3.421   5.216  18.561  0.00  0.00    +0.000 N 
ATOM      4  C   UNL     1       4.225   4.108  18.048  0.00  0.00    +0.000 C 
ATOM      5  C   UNL     1       2.955   3.244  18.029  0.00  0.00    +0.000 C 
ATOM      6  C   UNL     1       2.207   4.405  18.704  0.00  0.00    +0.000 C 
ENDROOT
BRANCH   2   7
ATOM      7  C   UNL     1       2.583   7.461  18.727  0.00  0.00    +0.000 A 
ATOM      8  C   UNL     1       1.842   8.519  18.228  0.00  0.00    +0.000 A 
ATOM      9  C   UNL     1       1.112   9.100  19.298  0.00  0.00    +0.000 A 
ATOM     10  C   UNL     1       0.214  10.177  19.386  0.00  0.00    +0.000 A 
ATOM     11  C   UNL     1      -0.345  10.476  20.626  0.00  0.00    +0.000 A 
ATOM     12  F   UNL     1      -1.201  11.504  20.722  0.00  0.00    +0.000 F 
ATOM     13  C   UNL     1      -0.041   9.736  21.762  0.00  0.00    +0.000 A 
ATOM     14  C   UNL     1       0.847   8.659  21.695  0.00  0.00    +0.000 A 
ATOM     15  C   UNL     1       1.410   8.367  20.445  0.00  0.00    +0.000 A 
ATOM     16  N   UNL     1       2.296   7.382  20.073  0.00  0.00    +0.000 N 
ATOM     17  H   UNL     1       2.682   6.677  20.688  0.00  0.00    +0.000 HD
ENDBRANCH   2   7
BRANCH   5  18
ATOM     18  C   UNL     1       3.064   2.027  18.937  0.00  0.00    +0.000 C 
ATOM     19  F   UNL     1       1.820   1.556  19.213  0.00  0.00    +0.000 F 
ATOM     20  F   UNL     1       3.705   1.042  18.254  0.00  0.00    +0.000 F 
ENDBRANCH   5  18
BRANCH   5  21
ATOM     21  O   UNL     1       2.474   2.881  16.700  0.00  0.00    +0.000 OA
ATOM     22  H   UNL     1       1.881   3.611  16.438  0.00  0.00    +0.000 HD
ENDBRANCH   5  21
TORSDOF 3
ENDMDL
MODEL 6
REMARK VINA RESULT:      -7.0      3.389      7.060
REMARK  Name = 
REMARK  3 active torsions:
REMARK  status: ('A' for Active; 'I' for Inactive)
REMARK    1  A    between atoms: C_2  and  C_3
REMARK    2  A    between atoms: C_15  and  O_16
REMARK    3  A    between atoms: C_15  and  C_17
REMARK                            x       y       z     vdW  Elec       q    Type
REMARK                         _______ _______ _______ _____ _____    ______ ____
ROOT
ATOM      1  O   UNL     1       2.959   3.321  16.569  0.00  0.00    +0.000 OA
ATOM      2  C   UNL     1       3.503   3.658  17.619  0.00  0.00    +0.000 C 
ATOM      3  N   UNL     1       3.179   3.084  18.836  0.00  0.00    +0.000 N 
ATOM      4  C   UNL     1       2.148   2.067  19.028  0.00  0.00    +0.000 C 
ATOM      5  C   UNL     1       1.619   2.881  20.220  0.00  0.00    +0.000 C 
ATOM      6  C   UNL     1       2.816   3.829  20.047  0.00  0.00    +0.000 C 
ENDROOT
BRANCH   2   7
ATOM      7  C   UNL     1       4.565   4.645  17.648  0.00  0.00    +0.000 A 
ATOM      8  C   UNL     1       4.705   5.858  16.995  0.00  0.00    +0.000 A 
ATOM      9  C   UNL     1       5.919   6.459  17.419  0.00  0.00    +0.000 A 
ATOM     10  C   UNL     1       6.567   7.665  17.100  0.00  0.00    +0.000 A 
ATOM     11  C   UNL     1       7.775   7.956  17.729  0.00  0.00    +0.000 A 
ATOM     12  F   UNL     1       8.402   9.103  17.432  0.00  0.00    +0.000 F 
ATOM     13  C   UNL     1       8.344   7.092  18.656  0.00  0.00    +0.000 A 
ATOM     14  C   UNL     1       7.714   5.889  18.988  0.00  0.00    +0.000 A 
ATOM     15  C   UNL     1       6.501   5.600  18.349  0.00  0.00    +0.000 A 
ATOM     16  N   UNL     1       5.663   4.516  18.472  0.00  0.00    +0.000 N 
ATOM     17  H   UNL     1       5.809   3.728  19.091  0.00  0.00    +0.000 HD
ENDBRANCH   2   7
BRANCH   5  18
ATOM     18  C   UNL     1       1.685   2.107  21.529  0.00  0.00    +0.000 C 
ATOM     19  F   UNL     1       2.891   2.317  22.118  0.00  0.00    +0.000 F 
ATOM     20  F   UNL     1       0.751   2.619  22.373  0.00  0.00    +0.000 F 
ENDBRANCH   5  18
BRANCH   5  21
ATOM     21  O   UNL     1       0.308   3.489  20.021  0.00  0.00    +0.000 OA
ATOM     22  H   UNL     1      -0.209   3.238  20.809  0.00  0.00    +0.000 HD
ENDBRANCH   5  21
TORSDOF 3
ENDMDL
MODEL 7
REMARK VINA RESULT:      -7.0      4.384      5.937
REMARK  Name = 
REMARK  3 active torsions:
REMARK  status: ('A' for Active; 'I' for Inactive)
REMARK    1  A    between atoms: C_2  and  C_3
REMARK    2  A    between atoms: C_15  and  O_16
REMARK    3  A    between atoms: C_15  and  C_17
REMARK                            x       y       z     vdW  Elec       q    Type
REMARK                         _______ _______ _______ _____ _____    ______ ____
ROOT
ATOM      1  O   UNL     1       3.611   7.217  17.585  0.00  0.00    +0.000 OA
ATOM      2  C   UNL     1       2.981   6.757  18.534  0.00  0.00    +0.000 C 
ATOM      3  N   UNL     1       3.060   5.424  18.898  0.00  0.00    +0.000 N 
ATOM      4  C   UNL     1       3.845   4.415  18.191  0.00  0.00    +0.000 C 
ATOM      5  C   UNL     1       2.621   3.487  18.232  0.00  0.00    +0.000 C 
ATOM      6  C   UNL     1       1.909   4.537  19.099  0.00  0.00    +0.000 C 
ENDROOT
BRANCH   2   7
ATOM      7  C   UNL     1       2.150   7.594  19.378  0.00  0.00    +0.000 A 
ATOM      8  C   UNL     1       1.799   7.486  20.713  0.00  0.00    +0.000 A 
ATOM      9  C   UNL     1       1.002   8.608  21.062  0.00  0.00    +0.000 A 
ATOM     10  C   UNL     1       0.377   9.021  22.250  0.00  0.00    +0.000 A 
ATOM     11  C   UNL     1      -0.339  10.216  22.244  0.00  0.00    +0.000 A 
ATOM     12  F   UNL     1      -0.941  10.620  23.372  0.00  0.00    +0.000 F 
ATOM     13  C   UNL     1      -0.441  11.001  21.101  0.00  0.00    +0.000 A 
ATOM     14  C   UNL     1       0.176  10.608  19.910  0.00  0.00    +0.000 A 
ATOM     15  C   UNL     1       0.890   9.403  19.922  0.00  0.00    +0.000 A 
ATOM     16  N   UNL     1       1.594   8.771  18.923  0.00  0.00    +0.000 N 
ATOM     17  H   UNL     1       1.713   9.118  17.979  0.00  0.00    +0.000 HD
ENDBRANCH   2   7
BRANCH   5  18
ATOM     18  C   UNL     1       2.891   2.200  18.998  0.00  0.00    +0.000 C 
ATOM     19  F   UNL     1       1.712   1.651  19.390  0.00  0.00    +0.000 F 
ATOM     20  F   UNL     1       3.465   1.310  18.146  0.00  0.00    +0.000 F 
ENDBRANCH   5  18
BRANCH   5  21
ATOM     21  O   UNL     1       2.001   3.222  16.938  0.00  0.00    +0.000 OA
ATOM     22  H   UNL     1       1.041   3.251  17.108  0.00  0.00    +0.000 HD
ENDBRANCH   5  21
TORSDOF 3
ENDMDL
MODEL 8
REMARK VINA RESULT:      -6.9      1.909      7.219
REMARK  Name = 
REMARK  3 active torsions:
REMARK  status: ('A' for Active; 'I' for Inactive)
REMARK    1  A    between atoms: C_2  and  C_3
REMARK    2  A    between atoms: C_15  and  O_16
REMARK    3  A    between atoms: C_15  and  C_17
REMARK                            x       y       z     vdW  Elec       q    Type
REMARK                         _______ _______ _______ _____ _____    ______ ____
ROOT
ATOM      1  O   UNL     1       6.637   4.432  19.022  0.00  0.00    +0.000 OA
ATOM      2  C   UNL     1       5.753   4.501  18.171  0.00  0.00    +0.000 C 
ATOM      3  N   UNL     1       4.413   4.600  18.502  0.00  0.00    +0.000 N 
ATOM      4  C   UNL     1       3.891   4.589  19.867  0.00  0.00    +0.000 C 
ATOM      5  C   UNL     1       2.842   3.559  19.418  0.00  0.00    +0.000 C 
ATOM      6  C   UNL     1       3.351   3.734  17.978  0.00  0.00    +0.000 C 
ENDROOT
BRANCH   2   7
ATOM      7  C   UNL     1       6.059   4.540  16.753  0.00  0.00    +0.000 A 
ATOM      8  C   UNL     1       6.874   5.382  16.016  0.00  0.00    +0.000 A 
ATOM      9  C   UNL     1       6.861   4.950  14.664  0.00  0.00    +0.000 A 
ATOM     10  C   UNL     1       7.487   5.410  13.493  0.00  0.00    +0.000 A 
ATOM     11  C   UNL     1       7.258   4.723  12.303  0.00  0.00    +0.000 A 
ATOM     12  F   UNL     1       7.848   5.155  11.179  0.00  0.00    +0.000 F 
ATOM     13  C   UNL     1       6.438   3.602  12.252  0.00  0.00    +0.000 A 
ATOM     14  C   UNL     1       5.809   3.127  13.406  0.00  0.00    +0.000 A 
ATOM     15  C   UNL     1       6.039   3.826  14.599  0.00  0.00    +0.000 A 
ATOM     16  N   UNL     1       5.571   3.598  15.872  0.00  0.00    +0.000 N 
ATOM     17  H   UNL     1       4.964   2.836  16.147  0.00  0.00    +0.000 HD
ENDBRANCH   2   7
BRANCH   5  18
ATOM     18  C   UNL     1       1.417   4.066  19.587  0.00  0.00    +0.000 C 
ATOM     19  F   UNL     1       0.547   3.137  19.114  0.00  0.00    +0.000 F 
ATOM     20  F   UNL     1       1.164   4.187  20.918  0.00  0.00    +0.000 F 
ENDBRANCH   5  18
BRANCH   5  21
ATOM     21  O   UNL     1       3.007   2.222  19.980  0.00  0.00    +0.000 OA
ATOM     22  H   UNL     1       2.144   1.787  19.852  0.00  0.00    +0.000 HD
ENDBRANCH   5  21
TORSDOF 3
ENDMDL
MODEL 9
REMARK VINA RESULT:      -6.9      1.937      7.176
REMARK  Name = 
REMARK  3 active torsions:
REMARK  status: ('A' for Active; 'I' for Inactive)
REMARK    1  A    between atoms: C_2  and  C_3
REMARK    2  A    between atoms: C_15  and  O_16
REMARK    3  A    between atoms: C_15  and  C_17
REMARK                            x       y       z     vdW  Elec       q    Type
REMARK                         _______ _______ _______ _____ _____    ______ ____
ROOT
ATOM      1  O   UNL     1       6.273   4.655  19.128  0.00  0.00    +0.000 OA
ATOM      2  C   UNL     1       5.456   4.513  18.220  0.00  0.00    +0.000 C 
ATOM      3  N   UNL     1       4.092   4.489  18.449  0.00  0.00    +0.000 N 
ATOM      4  C   UNL     1       3.469   4.581  19.768  0.00  0.00    +0.000 C 
ATOM      5  C   UNL     1       2.580   3.385  19.391  0.00  0.00    +0.000 C 
ATOM      6  C   UNL     1       3.178   3.444  17.976  0.00  0.00    +0.000 C 
ENDROOT
BRANCH   2   7
ATOM      7  C   UNL     1       5.866   4.417  16.832  0.00  0.00    +0.000 A 
ATOM      8  C   UNL     1       5.394   3.635  15.791  0.00  0.00    +0.000 A 
ATOM      9  C   UNL     1       6.114   3.970  14.615  0.00  0.00    +0.000 A 
ATOM     10  C   UNL     1       6.069   3.513  13.286  0.00  0.00    +0.000 A 
ATOM     11  C   UNL     1       6.935   4.085  12.357  0.00  0.00    +0.000 A 
ATOM     12  F   UNL     1       6.901   3.655  11.087  0.00  0.00    +0.000 F 
ATOM     13  C   UNL     1       7.828   5.089  12.711  0.00  0.00    +0.000 A 
ATOM     14  C   UNL     1       7.887   5.559  14.026  0.00  0.00    +0.000 A 
ATOM     15  C   UNL     1       7.016   4.977  14.957  0.00  0.00    +0.000 A 
ATOM     16  N   UNL     1       6.843   5.230  16.298  0.00  0.00    +0.000 N 
ATOM     17  H   UNL     1       7.346   5.927  16.834  0.00  0.00    +0.000 HD
ENDBRANCH   2   7
BRANCH   5  18
ATOM     18  C   UNL     1       1.099   3.734  19.402  0.00  0.00    +0.000 C 
ATOM     19  F   UNL     1       0.379   2.663  18.977  0.00  0.00    +0.000 F 
ATOM     20  F   UNL     1       0.725   3.963  20.689  0.00  0.00    +0.000 F 
ENDBRANCH   5  18
BRANCH   5  21
ATOM     21  O   UNL     1       2.849   2.157  20.130  0.00  0.00    +0.000 OA
ATOM     22  H   UNL     1       3.743   1.885  19.852  0.00  0.00    +0.000 HD
ENDBRANCH   5  21
TORSDOF 3
ENDMDL
