MODEL 1
REMARK VINA RESULT:      -6.6      0.000      0.000
REMARK  Name = 
REMARK  3 active torsions:
REMARK  status: ('A' for Active; 'I' for Inactive)
REMARK    1  A    between atoms: C_1  and  N_2
REMARK    2  A    between atoms: C_7  and  C_8
REMARK    3  A    between atoms: N_10  and  C_11
REMARK                            x       y       z     vdW  Elec       q    Type
REMARK                         _______ _______ _______ _____ _____    ______ ____
ROOT
ATOM      1  C   UNL     1       6.653   4.001  12.906  0.00  0.00    +0.000 C 
ATOM      2  N   UNL     1       6.741   4.597  14.212  0.00  0.00    +0.000 N 
ATOM      3  N   UNL     1       7.731   5.464  14.491  0.00  0.00    +0.000 NA
ATOM      4  N   UNL     1       7.553   5.883  15.738  0.00  0.00    +0.000 NA
ATOM      5  C   UNL     1       6.440   5.265  16.241  0.00  0.00    +0.000 A 
ATOM      6  C   UNL     1       5.825   5.373  17.494  0.00  0.00    +0.000 A 
ATOM      7  C   UNL     1       4.673   4.608  17.749  0.00  0.00    +0.000 A 
ATOM      8  C   UNL     1       4.146   3.764  16.757  0.00  0.00    +0.000 A 
ATOM      9  C   UNL     1       4.752   3.650  15.496  0.00  0.00    +0.000 A 
ATOM     10  C   UNL     1       5.899   4.419  15.278  0.00  0.00    +0.000 A 
ENDROOT
BRANCH   7  11
ATOM     11  C   UNL     1       4.023   4.776  19.079  0.00  0.00    +0.000 C 
ATOM     12  O   UNL     1       4.561   5.480  19.929  0.00  0.00    +0.000 OA
ATOM     13  N   UNL     1       2.839   4.093  19.292  0.00  0.00    +0.000 N 
ATOM     14  H   UNL     1       2.519   3.418  18.610  0.00  0.00    +0.000 HD
BRANCH  13  15
ATOM     15  C   UNL     1       2.163   4.143  20.553  0.00  0.00    +0.000 C 
ATOM     16  C   UNL     1       1.076   3.162  20.896  0.00  0.00    +0.000 C 
ATOM     17  C   UNL     1       2.405   3.080  21.589  0.00  0.00    +0.000 C 
ENDBRANCH  13  15
ENDBRANCH   7  11
TORSDOF 2
ENDMDL
MODEL 2
REMARK VINA RESULT:      -6.3      2.832      3.452
REMARK  Name = 
REMARK  3 active torsions:
REMARK  status: ('A' for Active; 'I' for Inactive)
REMARK    1  A    between atoms: C_1  and  N_2
REMARK    2  A    between atoms: C_7  and  C_8
REMARK    3  A    between atoms: N_10  and  C_11
REMARK                            x       y       z     vdW  Elec       q    Type
REMARK                         _______ _______ _______ _____ _____    ______ ____
ROOT
ATOM      1  C   UNL     1       7.094   4.636  15.472  0.00  0.00    +0.000 C 
ATOM      2  N   UNL     1       6.715   4.736  16.856  0.00  0.00    +0.000 N 
ATOM      3  N   UNL     1       7.623   4.509  17.821  0.00  0.00    +0.000 NA
ATOM      4  N   UNL     1       7.022   4.703  18.989  0.00  0.00    +0.000 NA
ATOM      5  C   UNL     1       5.721   5.052  18.745  0.00  0.00    +0.000 A 
ATOM      6  C   UNL     1       4.683   5.372  19.627  0.00  0.00    +0.000 A 
ATOM      7  C   UNL     1       3.421   5.697  19.097  0.00  0.00    +0.000 A 
ATOM      8  C   UNL     1       3.218   5.713  17.706  0.00  0.00    +0.000 A 
ATOM      9  C   UNL     1       4.252   5.396  16.812  0.00  0.00    +0.000 A 
ATOM     10  C   UNL     1       5.491   5.072  17.374  0.00  0.00    +0.000 A 
ENDROOT
BRANCH   7  11
ATOM     11  C   UNL     1       2.349   6.067  20.063  0.00  0.00    +0.000 C 
ATOM     12  O   UNL     1       1.733   5.183  20.649  0.00  0.00    +0.000 OA
ATOM     13  N   UNL     1       2.089   7.417  20.228  0.00  0.00    +0.000 N 
ATOM     14  H   UNL     1       2.530   8.090  19.616  0.00  0.00    +0.000 HD
BRANCH  13  15
ATOM     15  C   UNL     1       1.044   7.876  21.091  0.00  0.00    +0.000 C 
ATOM     16  C   UNL     1       1.289   8.962  22.103  0.00  0.00    +0.000 C 
ATOM     17  C   UNL     1       0.441   9.239  20.896  0.00  0.00    +0.000 C 
ENDBRANCH  13  15
ENDBRANCH   7  11
TORSDOF 2
ENDMDL
MODEL 3
REMARK VINA RESULT:      -6.3      2.681      6.358
REMARK  Name = 
REMARK  3 active torsions:
REMARK  status: ('A' for Active; 'I' for Inactive)
REMARK    1  A    between atoms: C_1  and  N_2
REMARK    2  A    between atoms: C_7  and  C_8
REMARK    3  A    between atoms: N_10  and  C_11
REMARK                            x       y       z     vdW  Elec       q    Type
REMARK                         _______ _______ _______ _____ _____    ______ ____
ROOT
ATOM      1  C   UNL     1       4.086   5.057  19.990  0.00  0.00    +0.000 C 
ATOM      2  N   UNL     1       5.249   4.966  19.148  0.00  0.00    +0.000 N 
ATOM      3  N   UNL     1       6.478   4.980  19.693  0.00  0.00    +0.000 NA
ATOM      4  N   UNL     1       7.354   4.848  18.705  0.00  0.00    +0.000 NA
ATOM      5  C   UNL     1       6.660   4.755  17.529  0.00  0.00    +0.000 A 
ATOM      6  C   UNL     1       7.111   4.593  16.215  0.00  0.00    +0.000 A 
ATOM      7  C   UNL     1       6.163   4.530  15.178  0.00  0.00    +0.000 A 
ATOM      8  C   UNL     1       4.789   4.613  15.464  0.00  0.00    +0.000 A 
ATOM      9  C   UNL     1       4.325   4.773  16.779  0.00  0.00    +0.000 A 
ATOM     10  C   UNL     1       5.295   4.839  17.784  0.00  0.00    +0.000 A 
ENDROOT
BRANCH   7  11
ATOM     11  C   UNL     1       6.676   4.320  13.795  0.00  0.00    +0.000 C 
ATOM     12  O   UNL     1       7.495   5.107  13.329  0.00  0.00    +0.000 OA
ATOM     13  N   UNL     1       6.172   3.239  13.093  0.00  0.00    +0.000 N 
ATOM     14  H   UNL     1       5.399   2.711  13.474  0.00  0.00    +0.000 HD
BRANCH  13  15
ATOM     15  C   UNL     1       6.560   2.981  11.739  0.00  0.00    +0.000 C 
ATOM     16  C   UNL     1       7.492   1.851  11.397  0.00  0.00    +0.000 C 
ATOM     17  C   UNL     1       6.042   1.766  11.019  0.00  0.00    +0.000 C 
ENDBRANCH  13  15
ENDBRANCH   7  11
TORSDOF 2
ENDMDL
MODEL 4
REMARK VINA RESULT:      -6.3      1.897      6.320
REMARK  Name = 
REMARK  3 active torsions:
REMARK  status: ('A' for Active; 'I' for Inactive)
REMARK    1  A    between atoms: C_1  and  N_2
REMARK    2  A    between atoms: C_7  and  C_8
REMARK    3  A    between atoms: N_10  and  C_11
REMARK                            x       y       z     vdW  Elec       q    Type
REMARK                         _______ _______ _______ _____ _____    ______ ____
ROOT
ATOM      1  C   UNL     1       1.511   2.761  21.823  0.00  0.00    +0.000 C 
ATOM      2  N   UNL     1       2.706   2.826  21.024  0.00  0.00    +0.000 N 
ATOM      3  N   UNL     1       3.761   2.050  21.326  0.00  0.00    +0.000 NA
ATOM      4  N   UNL     1       4.700   2.283  20.417  0.00  0.00    +0.000 NA
ATOM      5  C   UNL     1       4.222   3.219  19.541  0.00  0.00    +0.000 A 
ATOM      6  C   UNL     1       4.811   3.792  18.408  0.00  0.00    +0.000 A 
ATOM      7  C   UNL     1       4.083   4.750  17.678  0.00  0.00    +0.000 A 
ATOM      8  C   UNL     1       2.785   5.110  18.077  0.00  0.00    +0.000 A 
ATOM      9  C   UNL     1       2.183   4.540  19.210  0.00  0.00    +0.000 A 
ATOM     10  C   UNL     1       2.937   3.597  19.915  0.00  0.00    +0.000 A 
ENDROOT
BRANCH   7  11
ATOM     11  C   UNL     1       4.727   5.311  16.457  0.00  0.00    +0.000 C 
ATOM     12  O   UNL     1       4.813   6.528  16.326  0.00  0.00    +0.000 OA
ATOM     13  N   UNL     1       5.177   4.407  15.511  0.00  0.00    +0.000 N 
ATOM     14  H   UNL     1       4.952   3.426  15.608  0.00  0.00    +0.000 HD
BRANCH  13  15
ATOM     15  C   UNL     1       5.761   4.844  14.279  0.00  0.00    +0.000 C 
ATOM     16  C   UNL     1       7.245   4.769  14.049  0.00  0.00    +0.000 C 
ATOM     17  C   UNL     1       6.325   3.844  13.308  0.00  0.00    +0.000 C 
ENDBRANCH  13  15
ENDBRANCH   7  11
TORSDOF 2
ENDMDL
MODEL 5
REMARK VINA RESULT:      -6.3      2.739      3.222
REMARK  Name = 
REMARK  3 active torsions:
REMARK  status: ('A' for Active; 'I' for Inactive)
REMARK    1  A    between atoms: C_1  and  N_2
REMARK    2  A    between atoms: C_7  and  C_8
REMARK    3  A    between atoms: N_10  and  C_11
REMARK                            x       y       z     vdW  Elec       q    Type
REMARK                         _______ _______ _______ _____ _____    ______ ____
ROOT
ATOM      1  C   UNL     1       6.031   3.838  14.836  0.00  0.00    +0.000 C 
ATOM      2  N   UNL     1       5.504   4.930  15.610  0.00  0.00    +0.000 N 
ATOM      3  N   UNL     1       5.790   6.199  15.268  0.00  0.00    +0.000 NA
ATOM      4  N   UNL     1       5.153   6.995  16.118  0.00  0.00    +0.000 NA
ATOM      5  C   UNL     1       4.464   6.209  17.003  0.00  0.00    +0.000 A 
ATOM      6  C   UNL     1       3.635   6.556  18.075  0.00  0.00    +0.000 A 
ATOM      7  C   UNL     1       3.047   5.528  18.834  0.00  0.00    +0.000 A 
ATOM      8  C   UNL     1       3.280   4.181  18.508  0.00  0.00    +0.000 A 
ATOM      9  C   UNL     1       4.108   3.822  17.433  0.00  0.00    +0.000 A 
ATOM     10  C   UNL     1       4.681   4.868  16.704  0.00  0.00    +0.000 A 
ENDROOT
BRANCH   7  11
ATOM     11  C   UNL     1       2.140   5.934  19.945  0.00  0.00    +0.000 C 
ATOM     12  O   UNL     1       1.477   5.079  20.525  0.00  0.00    +0.000 OA
ATOM     13  N   UNL     1       2.079   7.283  20.248  0.00  0.00    +0.000 N 
ATOM     14  H   UNL     1       2.538   7.953  19.645  0.00  0.00    +0.000 HD
BRANCH  13  15
ATOM     15  C   UNL     1       1.200   7.782  21.261  0.00  0.00    +0.000 C 
ATOM     16  C   UNL     1       1.457   9.102  21.935  0.00  0.00    +0.000 C 
ATOM     17  C   UNL     1       0.308   8.960  20.980  0.00  0.00    +0.000 C 
ENDBRANCH  13  15
ENDBRANCH   7  11
TORSDOF 2
ENDMDL
MODEL 6
REMARK VINA RESULT:      -6.2      1.982      6.408
REMARK  Name = 
REMARK  3 active torsions:
REMARK  status: ('A' for Active; 'I' for Inactive)
REMARK    1  A    between atoms: C_1  and  N_2
REMARK    2  A    between atoms: C_7  and  C_8
REMARK    3  A    between atoms: N_10  and  C_11
REMARK                            x       y       z     vdW  Elec       q    Type
REMARK                         _______ _______ _______ _____ _____    ______ ____
ROOT
ATOM      1  C   UNL     1       2.330   4.436  21.126  0.00  0.00    +0.000 C 
ATOM      2  N   UNL     1       2.821   3.780  19.944  0.00  0.00    +0.000 N 
ATOM      3  N   UNL     1       2.591   2.468  19.757  0.00  0.00    +0.000 NA
ATOM      4  N   UNL     1       3.115   2.135  18.584  0.00  0.00    +0.000 NA
ATOM      5  C   UNL     1       3.681   3.255  18.037  0.00  0.00    +0.000 A 
ATOM      6  C   UNL     1       4.345   3.438  16.818  0.00  0.00    +0.000 A 
ATOM      7  C   UNL     1       4.838   4.717  16.503  0.00  0.00    +0.000 A 
ATOM      8  C   UNL     1       4.653   5.789  17.392  0.00  0.00    +0.000 A 
ATOM      9  C   UNL     1       3.987   5.618  18.616  0.00  0.00    +0.000 A 
ATOM     10  C   UNL     1       3.515   4.333  18.900  0.00  0.00    +0.000 A 
ENDROOT
BRANCH   7  11
ATOM     11  C   UNL     1       5.507   4.883  15.182  0.00  0.00    +0.000 C 
ATOM     12  O   UNL     1       5.983   5.974  14.880  0.00  0.00    +0.000 OA
ATOM     13  N   UNL     1       5.531   3.782  14.345  0.00  0.00    +0.000 N 
ATOM     14  H   UNL     1       5.001   2.956  14.588  0.00  0.00    +0.000 HD
BRANCH  13  15
ATOM     15  C   UNL     1       6.100   3.852  13.033  0.00  0.00    +0.000 C 
ATOM     16  C   UNL     1       6.329   2.611  12.214  0.00  0.00    +0.000 C 
ATOM     17  C   UNL     1       5.253   3.581  11.821  0.00  0.00    +0.000 C 
ENDBRANCH  13  15
ENDBRANCH   7  11
TORSDOF 2
ENDMDL
MODEL 7
REMARK VINA RESULT:      -6.1      2.666      5.990
REMARK  Name = 
REMARK  3 active torsions:
REMARK  status: ('A' for Active; 'I' for Inactive)
REMARK    1  A    between atoms: C_1  and  N_2
REMARK    2  A    between atoms: C_7  and  C_8
REMARK    3  A    between atoms: N_10  and  C_11
REMARK                            x       y       z     vdW  Elec       q    Type
REMARK                         _______ _______ _______ _____ _____    ______ ____
ROOT
ATOM      1  C   UNL     1       0.690   2.299  18.918  0.00  0.00    +0.000 C 
ATOM      2  N   UNL     1       1.467   3.499  19.079  0.00  0.00    +0.000 N 
ATOM      3  N   UNL     1       1.194   4.348  20.085  0.00  0.00    +0.000 NA
ATOM      4  N   UNL     1       2.075   5.339  20.021  0.00  0.00    +0.000 NA
ATOM      5  C   UNL     1       2.904   5.103  18.958  0.00  0.00    +0.000 A 
ATOM      6  C   UNL     1       3.994   5.834  18.473  0.00  0.00    +0.000 A 
ATOM      7  C   UNL     1       4.679   5.356  17.341  0.00  0.00    +0.000 A 
ATOM      8  C   UNL     1       4.279   4.160  16.721  0.00  0.00    +0.000 A 
ATOM      9  C   UNL     1       3.189   3.417  17.200  0.00  0.00    +0.000 A 
ATOM     10  C   UNL     1       2.527   3.924  18.323  0.00  0.00    +0.000 A 
ENDROOT
BRANCH   7  11
ATOM     11  C   UNL     1       5.857   6.139  16.875  0.00  0.00    +0.000 C 
ATOM     12  O   UNL     1       6.192   6.082  15.695  0.00  0.00    +0.000 OA
ATOM     13  N   UNL     1       6.535   6.883  17.825  0.00  0.00    +0.000 N 
ATOM     14  H   UNL     1       6.300   6.780  18.803  0.00  0.00    +0.000 HD
BRANCH  13  15
ATOM     15  C   UNL     1       7.711   7.627  17.492  0.00  0.00    +0.000 C 
ATOM     16  C   UNL     1       7.756   9.123  17.641  0.00  0.00    +0.000 C 
ATOM     17  C   UNL     1       8.547   8.254  18.574  0.00  0.00    +0.000 C 
ENDBRANCH  13  15
ENDBRANCH   7  11
TORSDOF 2
ENDMDL
MODEL 8
REMARK VINA RESULT:      -6.1      3.037      6.021
REMARK  Name = 
REMARK  3 active torsions:
REMARK  status: ('A' for Active; 'I' for Inactive)
REMARK    1  A    between atoms: C_1  and  N_2
REMARK    2  A    between atoms: C_7  and  C_8
REMARK    3  A    between atoms: N_10  and  C_11
REMARK                            x       y       z     vdW  Elec       q    Type
REMARK                         _______ _______ _______ _____ _____    ______ ____
ROOT
ATOM      1  C   UNL     1       1.348   3.138  18.981  0.00  0.00    +0.000 C 
ATOM      2  N   UNL     1       2.768   3.340  19.090  0.00  0.00    +0.000 N 
ATOM      3  N   UNL     1       3.520   2.470  19.788  0.00  0.00    +0.000 NA
ATOM      4  N   UNL     1       4.782   2.870  19.696  0.00  0.00    +0.000 NA
ATOM      5  C   UNL     1       4.814   4.006  18.934  0.00  0.00    +0.000 A 
ATOM      6  C   UNL     1       5.891   4.804  18.532  0.00  0.00    +0.000 A 
ATOM      7  C   UNL     1       5.634   5.937  17.739  0.00  0.00    +0.000 A 
ATOM      8  C   UNL     1       4.321   6.249  17.348  0.00  0.00    +0.000 A 
ATOM      9  C   UNL     1       3.233   5.454  17.743  0.00  0.00    +0.000 A 
ATOM     10  C   UNL     1       3.524   4.340  18.536  0.00  0.00    +0.000 A 
ENDROOT
BRANCH   7  11
ATOM     11  C   UNL     1       6.808   6.743  17.299  0.00  0.00    +0.000 C 
ATOM     12  O   UNL     1       7.528   6.319  16.400  0.00  0.00    +0.000 OA
ATOM     13  N   UNL     1       7.036   7.937  17.961  0.00  0.00    +0.000 N 
ATOM     14  H   UNL     1       6.495   8.164  18.784  0.00  0.00    +0.000 HD
BRANCH  13  15
ATOM     15  C   UNL     1       8.166   8.758  17.651  0.00  0.00    +0.000 C 
ATOM     16  C   UNL     1       8.122  10.250  17.840  0.00  0.00    +0.000 C 
ATOM     17  C   UNL     1       8.961   9.404  18.752  0.00  0.00    +0.000 C 
ENDBRANCH  13  15
ENDBRANCH   7  11
TORSDOF 2
ENDMDL
MODEL 9
REMARK VINA RESULT:      -6.1      3.606      6.436
REMARK  Name = 
REMARK  3 active torsions:
REMARK  status: ('A' for Active; 'I' for Inactive)
REMARK    1  A    between atoms: C_1  and  N_2
REMARK    2  A    between atoms: C_7  and  C_8
REMARK    3  A    between atoms: N_10  and  C_11
REMARK                            x       y       z     vdW  Elec       q    Type
REMARK                         _______ _______ _______ _____ _____    ______ ____
ROOT
ATOM      1  C   UNL     1       0.533   9.814  20.676  0.00  0.00    +0.000 C 
ATOM      2  N   UNL     1       1.251   9.344  19.521  0.00  0.00    +0.000 N 
ATOM      3  N   UNL     1       1.387  10.138  18.444  0.00  0.00    +0.000 NA
ATOM      4  N   UNL     1       2.114   9.477  17.551  0.00  0.00    +0.000 NA
ATOM      5  C   UNL     1       2.430   8.255  18.080  0.00  0.00    +0.000 A 
ATOM      6  C   UNL     1       3.183   7.200  17.551  0.00  0.00    +0.000 A 
ATOM      7  C   UNL     1       3.350   6.036  18.323  0.00  0.00    +0.000 A 
ATOM      8  C   UNL     1       2.782   5.945  19.605  0.00  0.00    +0.000 A 
ATOM      9  C   UNL     1       2.028   6.998  20.147  0.00  0.00    +0.000 A 
ATOM     10  C   UNL     1       1.876   8.137  19.350  0.00  0.00    +0.000 A 
ENDROOT
BRANCH   7  11
ATOM     11  C   UNL     1       4.188   4.948  17.744  0.00  0.00    +0.000 C 
ATOM     12  O   UNL     1       4.298   3.885  18.348  0.00  0.00    +0.000 OA
ATOM     13  N   UNL     1       4.826   5.214  16.545  0.00  0.00    +0.000 N 
ATOM     14  H   UNL     1       4.812   6.152  16.168  0.00  0.00    +0.000 HD
BRANCH  13  15
ATOM     15  C   UNL     1       5.695   4.257  15.932  0.00  0.00    +0.000 C 
ATOM     16  C   UNL     1       5.860   4.195  14.439  0.00  0.00    +0.000 C 
ATOM     17  C   UNL     1       6.984   4.698  15.296  0.00  0.00    +0.000 C 
ENDBRANCH  13  15
ENDBRANCH   7  11
TORSDOF 2
ENDMDL
