MODEL 1
REMARK VINA RESULT:      -6.9      0.000      0.000
REMARK  Name = 
REMARK  15 active torsions:
REMARK  status: ('A' for Active; 'I' for Inactive)
REMARK    1  A    between atoms: N_4  and  C_5
REMARK    2  A    between atoms: C_5  and  C_6
REMARK    3  A    between atoms: C_6  and  C_7
REMARK    4  A    between atoms: C_7  and  C_8
REMARK    5  A    between atoms: N_11  and  C_12
REMARK    6  A    between atoms: C_12  and  C_13
REMARK    7  A    between atoms: C_12  and  C_18
REMARK    8  A    between atoms: C_13  and  C_14
REMARK    9  A    between atoms: C_14  and  C_15
REMARK   10  A    between atoms: C_15  and  C_16
REMARK   11  A    between atoms: C_16  and  N_17
REMARK   12  A    between atoms: N_20  and  C_21
REMARK   13  A    between atoms: C_21  and  C_22
REMARK   14  A    between atoms: C_22  and  C_23
REMARK   15  A    between atoms: C_23  and  O_25
REMARK                            x       y       z     vdW  Elec       q    Type
REMARK                         _______ _______ _______ _____ _____    ______ ____
ROOT
ATOM      1  C   UNL     1       5.783   6.284  16.908  0.00  0.00    +0.000 C 
ENDROOT
BRANCH   1   5
ATOM      2  C   UNL     1       2.638   6.145  19.044  0.00  0.00    +0.000 C 
ATOM      3  C   UNL     1       2.678   7.590  18.544  0.00  0.00    +0.000 C 
ATOM      4  C   UNL     1       3.564   7.496  17.309  0.00  0.00    +0.000 C 
ATOM      5  N   UNL     1       4.500   6.438  17.636  0.00  0.00    +0.000 N 
ATOM      6  C   UNL     1       4.096   5.781  18.803  0.00  0.00    +0.000 C 
ATOM      7  O   UNL     1       4.742   5.058  19.539  0.00  0.00    +0.000 OA
BRANCH   2   8
ATOM      8  C   UNL     1       1.632   5.322  18.214  0.00  0.00    +0.000 C 
BRANCH   8   9
ATOM      9  C   UNL     1       2.186   4.016  17.643  0.00  0.00    +0.000 C 
BRANCH   9  10
ATOM     10  C   UNL     1       1.786   2.829  18.532  0.00  0.00    +0.000 C 
BRANCH  10  14
ATOM     11  N   UNL     1       4.152   1.357  17.952  0.00  0.00    +0.000 NA
ATOM     12  C   UNL     1       3.965   1.895  19.100  0.00  0.00    +0.000 C 
ATOM     13  N   UNL     1       4.892   1.891  20.076  0.00  0.00    +0.000 N 
ATOM     14  N   UNL     1       2.838   2.534  19.490  0.00  0.00    +0.000 N 
ATOM     15  H   UNL     1       5.093   0.968  17.905  0.00  0.00    +0.000 HD
ATOM     16  H   UNL     1       5.635   1.213  19.952  0.00  0.00    +0.000 HD
ATOM     17  H   UNL     1       4.478   1.800  20.998  0.00  0.00    +0.000 HD
ATOM     18  H   UNL     1       3.024   3.305  20.123  0.00  0.00    +0.000 HD
ENDBRANCH  10  14
ENDBRANCH   9  10
ENDBRANCH   8   9
ENDBRANCH   2   8
ENDBRANCH   1   5
BRANCH   1  19
ATOM     19  C   UNL     1       5.938   4.990  16.033  0.00  0.00    +0.000 C 
ATOM     20  O   UNL     1       5.553   3.873  16.376  0.00  0.00    +0.000 OA
ATOM     21  N   UNL     1       6.405   5.174  14.743  0.00  0.00    +0.000 N 
ATOM     22  H   UNL     1       6.305   6.085  14.304  0.00  0.00    +0.000 HD
BRANCH  21  23
ATOM     23  C   UNL     1       6.566   4.039  13.846  0.00  0.00    +0.000 C 
BRANCH  23  24
ATOM     24  C   UNL     1       5.541   3.987  12.716  0.00  0.00    +0.000 C 
BRANCH  24  25
ATOM     25  C   UNL     1       5.741   2.782  11.838  0.00  0.00    +0.000 C 
ATOM     26  O   UNL     1       4.853   2.174  11.259  0.00  0.00    +0.000 OA
BRANCH  25  27
ATOM     27  O   UNL     1       7.042   2.417  11.748  0.00  0.00    +0.000 OA
ATOM     28  H   UNL     1       7.621   3.110  11.374  0.00  0.00    +0.000 HD
ENDBRANCH  25  27
ENDBRANCH  24  25
ENDBRANCH  23  24
ENDBRANCH  21  23
ENDBRANCH   1  19
BRANCH   1  29
ATOM     29  C   UNL     1       7.021   6.662  17.757  0.00  0.00    +0.000 C 
BRANCH  29  30
ATOM     30  C   UNL     1       7.655   7.997  17.389  0.00  0.00    +0.000 C 
BRANCH  30  31
ATOM     31  C   UNL     1       8.529   8.563  18.523  0.00  0.00    +0.000 C 
BRANCH  31  32
ATOM     32  C   UNL     1       8.755  10.064  18.310  0.00  0.00    +0.000 C 
BRANCH  32  33
ATOM     33  N   UNL     1       9.717  10.601  19.266  0.00  0.00    +0.000 NA
ATOM     34  H   UNL     1       9.708  10.034  20.113  0.00  0.00    +0.000 HD
ATOM     35  H   UNL     1       9.416  11.533  19.550  0.00  0.00    +0.000 HD
ENDBRANCH  32  33
ENDBRANCH  31  32
ENDBRANCH  30  31
ENDBRANCH  29  30
ENDBRANCH   1  29
TORSDOF 15
ENDMDL
MODEL 2
REMARK VINA RESULT:      -6.8      2.862      7.163
REMARK  Name = 
REMARK  15 active torsions:
REMARK  status: ('A' for Active; 'I' for Inactive)
REMARK    1  A    between atoms: N_4  and  C_5
REMARK    2  A    between atoms: C_5  and  C_6
REMARK    3  A    between atoms: C_6  and  C_7
REMARK    4  A    between atoms: C_7  and  C_8
REMARK    5  A    between atoms: N_11  and  C_12
REMARK    6  A    between atoms: C_12  and  C_13
REMARK    7  A    between atoms: C_12  and  C_18
REMARK    8  A    between atoms: C_13  and  C_14
REMARK    9  A    between atoms: C_14  and  C_15
REMARK   10  A    between atoms: C_15  and  C_16
REMARK   11  A    between atoms: C_16  and  N_17
REMARK   12  A    between atoms: N_20  and  C_21
REMARK   13  A    between atoms: C_21  and  C_22
REMARK   14  A    between atoms: C_22  and  C_23
REMARK   15  A    between atoms: C_23  and  O_25
REMARK                            x       y       z     vdW  Elec       q    Type
REMARK                         _______ _______ _______ _____ _____    ______ ____
ROOT
ATOM      1  C   UNL     1       3.120   5.567  17.837  0.00  0.00    +0.000 C 
ENDROOT
BRANCH   1   5
ATOM      2  C   UNL     1       6.801   5.843  16.919  0.00  0.00    +0.000 C 
ATOM      3  C   UNL     1       6.795   5.956  18.444  0.00  0.00    +0.000 C 
ATOM      4  C   UNL     1       5.468   5.313  18.825  0.00  0.00    +0.000 C 
ATOM      5  N   UNL     1       4.596   5.636  17.712  0.00  0.00    +0.000 N 
ATOM      6  C   UNL     1       5.340   6.179  16.660  0.00  0.00    +0.000 C 
ATOM      7  O   UNL     1       4.955   6.824  15.701  0.00  0.00    +0.000 OA
BRANCH   2   8
ATOM      8  C   UNL     1       7.211   4.419  16.493  0.00  0.00    +0.000 C 
BRANCH   8   9
ATOM      9  C   UNL     1       6.292   3.768  15.458  0.00  0.00    +0.000 C 
BRANCH   9  10
ATOM     10  C   UNL     1       6.729   4.151  14.035  0.00  0.00    +0.000 C 
BRANCH  10  14
ATOM     11  N   UNL     1       6.624   2.374  11.814  0.00  0.00    +0.000 NA
ATOM     12  C   UNL     1       5.622   3.106  12.131  0.00  0.00    +0.000 C 
ATOM     13  N   UNL     1       4.428   3.027  11.514  0.00  0.00    +0.000 N 
ATOM     14  N   UNL     1       5.612   4.037  13.112  0.00  0.00    +0.000 N 
ATOM     15  H   UNL     1       6.361   1.736  11.064  0.00  0.00    +0.000 HD
ATOM     16  H   UNL     1       4.445   2.557  10.617  0.00  0.00    +0.000 HD
ATOM     17  H   UNL     1       3.978   3.934  11.431  0.00  0.00    +0.000 HD
ATOM     18  H   UNL     1       4.711   4.113  13.571  0.00  0.00    +0.000 HD
ENDBRANCH  10  14
ENDBRANCH   9  10
ENDBRANCH   8   9
ENDBRANCH   2   8
ENDBRANCH   1   5
BRANCH   1  19
ATOM     19  C   UNL     1       2.494   6.252  19.103  0.00  0.00    +0.000 C 
ATOM     20  O   UNL     1       2.360   5.698  20.194  0.00  0.00    +0.000 OA
ATOM     21  N   UNL     1       2.220   7.604  18.997  0.00  0.00    +0.000 N 
ATOM     22  H   UNL     1       2.714   8.157  18.303  0.00  0.00    +0.000 HD
BRANCH  21  23
ATOM     23  C   UNL     1       1.655   8.335  20.122  0.00  0.00    +0.000 C 
BRANCH  23  24
ATOM     24  C   UNL     1       1.007   9.663  19.741  0.00  0.00    +0.000 C 
BRANCH  24  25
ATOM     25  C   UNL     1       1.044   9.894  18.254  0.00  0.00    +0.000 C 
ATOM     26  O   UNL     1       2.057  10.032  17.585  0.00  0.00    +0.000 OA
BRANCH  25  27
ATOM     27  O   UNL     1      -0.194   9.939  17.707  0.00  0.00    +0.000 OA
ATOM     28  H   UNL     1      -0.844   9.363  18.155  0.00  0.00    +0.000 HD
ENDBRANCH  25  27
ENDBRANCH  24  25
ENDBRANCH  23  24
ENDBRANCH  21  23
ENDBRANCH   1  19
BRANCH   1  29
ATOM     29  C   UNL     1       2.536   4.179  17.476  0.00  0.00    +0.000 C 
BRANCH  29  30
ATOM     30  C   UNL     1       3.369   2.999  17.960  0.00  0.00    +0.000 C 
BRANCH  30  31
ATOM     31  C   UNL     1       2.764   2.326  19.204  0.00  0.00    +0.000 C 
BRANCH  31  32
ATOM     32  C   UNL     1       3.762   2.379  20.367  0.00  0.00    +0.000 C 
BRANCH  32  33
ATOM     33  N   UNL     1       5.068   1.860  19.974  0.00  0.00    +0.000 NA
ATOM     34  H   UNL     1       4.950   0.968  19.493  0.00  0.00    +0.000 HD
ATOM     35  H   UNL     1       5.609   1.656  20.814  0.00  0.00    +0.000 HD
ENDBRANCH  32  33
ENDBRANCH  31  32
ENDBRANCH  30  31
ENDBRANCH  29  30
ENDBRANCH   1  29
TORSDOF 15
ENDMDL
MODEL 3
REMARK VINA RESULT:      -6.8      2.460      5.627
REMARK  Name = 
REMARK  15 active torsions:
REMARK  status: ('A' for Active; 'I' for Inactive)
REMARK    1  A    between atoms: N_4  and  C_5
REMARK    2  A    between atoms: C_5  and  C_6
REMARK    3  A    between atoms: C_6  and  C_7
REMARK    4  A    between atoms: C_7  and  C_8
REMARK    5  A    between atoms: N_11  and  C_12
REMARK    6  A    between atoms: C_12  and  C_13
REMARK    7  A    between atoms: C_12  and  C_18
REMARK    8  A    between atoms: C_13  and  C_14
REMARK    9  A    between atoms: C_14  and  C_15
REMARK   10  A    between atoms: C_15  and  C_16
REMARK   11  A    between atoms: C_16  and  N_17
REMARK   12  A    between atoms: N_20  and  C_21
REMARK   13  A    between atoms: C_21  and  C_22
REMARK   14  A    between atoms: C_22  and  C_23
REMARK   15  A    between atoms: C_23  and  O_25
REMARK                            x       y       z     vdW  Elec       q    Type
REMARK                         _______ _______ _______ _____ _____    ______ ____
ROOT
ATOM      1  C   UNL     1       5.601   5.196  16.752  0.00  0.00    +0.000 C 
ENDROOT
BRANCH   1   5
ATOM      2  C   UNL     1       3.120   5.988  19.526  0.00  0.00    +0.000 C 
ATOM      3  C   UNL     1       2.927   7.127  18.525  0.00  0.00    +0.000 C 
ATOM      4  C   UNL     1       3.475   6.539  17.232  0.00  0.00    +0.000 C 
ATOM      5  N   UNL     1       4.537   5.658  17.677  0.00  0.00    +0.000 N 
ATOM      6  C   UNL     1       4.492   5.513  19.067  0.00  0.00    +0.000 C 
ATOM      7  O   UNL     1       5.355   5.109  19.825  0.00  0.00    +0.000 OA
BRANCH   2   8
ATOM      8  C   UNL     1       1.999   4.942  19.365  0.00  0.00    +0.000 C 
BRANCH   8   9
ATOM      9  C   UNL     1       1.596   4.228  20.656  0.00  0.00    +0.000 C 
BRANCH   9  10
ATOM     10  C   UNL     1       2.519   3.027  20.916  0.00  0.00    +0.000 C 
BRANCH  10  14
ATOM     11  N   UNL     1       5.029   2.131  19.918  0.00  0.00    +0.000 NA
ATOM     12  C   UNL     1       3.930   1.805  19.347  0.00  0.00    +0.000 C 
ATOM     13  N   UNL     1       3.863   0.952  18.309  0.00  0.00    +0.000 N 
ATOM     14  N   UNL     1       2.703   2.254  19.699  0.00  0.00    +0.000 N 
ATOM     15  H   UNL     1       5.804   1.632  19.481  0.00  0.00    +0.000 HD
ATOM     16  H   UNL     1       4.743   0.794  17.833  0.00  0.00    +0.000 HD
ATOM     17  H   UNL     1       3.142   1.213  17.643  0.00  0.00    +0.000 HD
ATOM     18  H   UNL     1       1.976   1.560  19.558  0.00  0.00    +0.000 HD
ENDBRANCH  10  14
ENDBRANCH   9  10
ENDBRANCH   8   9
ENDBRANCH   2   8
ENDBRANCH   1   5
BRANCH   1  19
ATOM     19  C   UNL     1       6.889   6.089  16.667  0.00  0.00    +0.000 C 
ATOM     20  O   UNL     1       7.699   6.048  15.742  0.00  0.00    +0.000 OA
ATOM     21  N   UNL     1       7.016   7.075  17.630  0.00  0.00    +0.000 N 
ATOM     22  H   UNL     1       6.185   7.412  18.108  0.00  0.00    +0.000 HD
BRANCH  21  23
ATOM     23  C   UNL     1       8.166   7.968  17.627  0.00  0.00    +0.000 C 
BRANCH  23  24
ATOM     24  C   UNL     1       7.830   9.417  17.969  0.00  0.00    +0.000 C 
BRANCH  24  25
ATOM     25  C   UNL     1       9.029  10.156  18.502  0.00  0.00    +0.000 C 
ATOM     26  O   UNL     1       9.760  10.882  17.847  0.00  0.00    +0.000 OA
BRANCH  25  27
ATOM     27  O   UNL     1       9.231   9.928  19.821  0.00  0.00    +0.000 OA
ATOM     28  H   UNL     1       8.931   9.047  20.120  0.00  0.00    +0.000 HD
ENDBRANCH  25  27
ENDBRANCH  24  25
ENDBRANCH  23  24
ENDBRANCH  21  23
ENDBRANCH   1  19
BRANCH   1  29
ATOM     29  C   UNL     1       5.057   4.684  15.396  0.00  0.00    +0.000 C 
BRANCH  29  30
ATOM     30  C   UNL     1       5.957   3.674  14.696  0.00  0.00    +0.000 C 
BRANCH  30  31
ATOM     31  C   UNL     1       6.341   4.118  13.273  0.00  0.00    +0.000 C 
BRANCH  31  32
ATOM     32  C   UNL     1       5.909   3.054  12.258  0.00  0.00    +0.000 C 
BRANCH  32  33
ATOM     33  N   UNL     1       4.606   3.363  11.680  0.00  0.00    +0.000 NA
ATOM     34  H   UNL     1       4.347   4.320  11.917  0.00  0.00    +0.000 HD
ATOM     35  H   UNL     1       3.902   2.766  12.113  0.00  0.00    +0.000 HD
ENDBRANCH  32  33
ENDBRANCH  31  32
ENDBRANCH  30  31
ENDBRANCH  29  30
ENDBRANCH   1  29
TORSDOF 15
ENDMDL
MODEL 4
REMARK VINA RESULT:      -6.7      1.224      1.391
REMARK  Name = 
REMARK  15 active torsions:
REMARK  status: ('A' for Active; 'I' for Inactive)
REMARK    1  A    between atoms: N_4  and  C_5
REMARK    2  A    between atoms: C_5  and  C_6
REMARK    3  A    between atoms: C_6  and  C_7
REMARK    4  A    between atoms: C_7  and  C_8
REMARK    5  A    between atoms: N_11  and  C_12
REMARK    6  A    between atoms: C_12  and  C_13
REMARK    7  A    between atoms: C_12  and  C_18
REMARK    8  A    between atoms: C_13  and  C_14
REMARK    9  A    between atoms: C_14  and  C_15
REMARK   10  A    between atoms: C_15  and  C_16
REMARK   11  A    between atoms: C_16  and  N_17
REMARK   12  A    between atoms: N_20  and  C_21
REMARK   13  A    between atoms: C_21  and  C_22
REMARK   14  A    between atoms: C_22  and  C_23
REMARK   15  A    between atoms: C_23  and  O_25
REMARK                            x       y       z     vdW  Elec       q    Type
REMARK                         _______ _______ _______ _____ _____    ______ ____
ROOT
ATOM      1  C   UNL     1       6.169   6.558  17.223  0.00  0.00    +0.000 C 
ENDROOT
BRANCH   1   5
ATOM      2  C   UNL     1       2.977   5.829  19.160  0.00  0.00    +0.000 C 
ATOM      3  C   UNL     1       2.836   7.299  18.762  0.00  0.00    +0.000 C 
ATOM      4  C   UNL     1       3.785   7.421  17.577  0.00  0.00    +0.000 C 
ATOM      5  N   UNL     1       4.844   6.480  17.885  0.00  0.00    +0.000 N 
ATOM      6  C   UNL     1       4.481   5.687  18.979  0.00  0.00    +0.000 C 
ATOM      7  O   UNL     1       5.187   5.007  19.701  0.00  0.00    +0.000 OA
BRANCH   2   8
ATOM      8  C   UNL     1       2.137   4.941  18.220  0.00  0.00    +0.000 C 
BRANCH   8   9
ATOM      9  C   UNL     1       1.508   3.716  18.885  0.00  0.00    +0.000 C 
BRANCH   9  10
ATOM     10  C   UNL     1       1.623   2.489  17.969  0.00  0.00    +0.000 C 
BRANCH  10  14
ATOM     11  N   UNL     1       4.447   2.466  17.619  0.00  0.00    +0.000 NA
ATOM     12  C   UNL     1       3.864   1.624  18.388  0.00  0.00    +0.000 C 
ATOM     13  N   UNL     1       4.530   0.740  19.154  0.00  0.00    +0.000 N 
ATOM     14  N   UNL     1       2.525   1.506  18.546  0.00  0.00    +0.000 N 
ATOM     15  H   UNL     1       5.458   2.367  17.706  0.00  0.00    +0.000 HD
ATOM     16  H   UNL     1       5.497   0.593  18.888  0.00  0.00    +0.000 HD
ATOM     17  H   UNL     1       4.044  -0.149  19.226  0.00  0.00    +0.000 HD
ATOM     18  H   UNL     1       2.264   1.235  19.488  0.00  0.00    +0.000 HD
ENDBRANCH  10  14
ENDBRANCH   9  10
ENDBRANCH   8   9
ENDBRANCH   2   8
ENDBRANCH   1   5
BRANCH   1  19
ATOM     19  C   UNL     1       6.619   5.292  16.410  0.00  0.00    +0.000 C 
ATOM     20  O   UNL     1       7.676   4.691  16.596  0.00  0.00    +0.000 OA
ATOM     21  N   UNL     1       5.684   4.759  15.540  0.00  0.00    +0.000 N 
ATOM     22  H   UNL     1       4.698   4.950  15.693  0.00  0.00    +0.000 HD
BRANCH  21  23
ATOM     23  C   UNL     1       5.998   3.574  14.753  0.00  0.00    +0.000 C 
BRANCH  23  24
ATOM     24  C   UNL     1       5.837   3.766  13.248  0.00  0.00    +0.000 C 
BRANCH  24  25
ATOM     25  C   UNL     1       7.028   4.459  12.644  0.00  0.00    +0.000 C 
ATOM     26  O   UNL     1       7.469   4.259  11.522  0.00  0.00    +0.000 OA
BRANCH  25  27
ATOM     27  O   UNL     1       7.591   5.353  13.491  0.00  0.00    +0.000 OA
ATOM     28  H   UNL     1       7.154   5.397  14.364  0.00  0.00    +0.000 HD
ENDBRANCH  25  27
ENDBRANCH  24  25
ENDBRANCH  23  24
ENDBRANCH  21  23
ENDBRANCH   1  19
BRANCH   1  29
ATOM     29  C   UNL     1       7.263   7.199  18.111  0.00  0.00    +0.000 C 
BRANCH  29  30
ATOM     30  C   UNL     1       7.847   8.492  17.559  0.00  0.00    +0.000 C 
BRANCH  30  31
ATOM     31  C   UNL     1       8.740   9.216  18.582  0.00  0.00    +0.000 C 
BRANCH  31  32
ATOM     32  C   UNL     1       8.781  10.717  18.271  0.00  0.00    +0.000 C 
BRANCH  32  33
ATOM     33  N   UNL     1      10.113  11.140  17.851  0.00  0.00    +0.000 NA
ATOM     34  H   UNL     1      10.799  10.845  18.546  0.00  0.00    +0.000 HD
ATOM     35  H   UNL     1      10.147  12.159  17.838  0.00  0.00    +0.000 HD
ENDBRANCH  32  33
ENDBRANCH  31  32
ENDBRANCH  30  31
ENDBRANCH  29  30
ENDBRANCH   1  29
TORSDOF 15
ENDMDL
MODEL 5
REMARK VINA RESULT:      -6.7      3.107      8.064
REMARK  Name = 
REMARK  15 active torsions:
REMARK  status: ('A' for Active; 'I' for Inactive)
REMARK    1  A    between atoms: N_4  and  C_5
REMARK    2  A    between atoms: C_5  and  C_6
REMARK    3  A    between atoms: C_6  and  C_7
REMARK    4  A    between atoms: C_7  and  C_8
REMARK    5  A    between atoms: N_11  and  C_12
REMARK    6  A    between atoms: C_12  and  C_13
REMARK    7  A    between atoms: C_12  and  C_18
REMARK    8  A    between atoms: C_13  and  C_14
REMARK    9  A    between atoms: C_14  and  C_15
REMARK   10  A    between atoms: C_15  and  C_16
REMARK   11  A    between atoms: C_16  and  N_17
REMARK   12  A    between atoms: N_20  and  C_21
REMARK   13  A    between atoms: C_21  and  C_22
REMARK   14  A    between atoms: C_22  and  C_23
REMARK   15  A    between atoms: C_23  and  O_25
REMARK                            x       y       z     vdW  Elec       q    Type
REMARK                         _______ _______ _______ _____ _____    ______ ____
ROOT
ATOM      1  C   UNL     1       2.678   5.777  18.462  0.00  0.00    +0.000 C 
ENDROOT
BRANCH   1   5
ATOM      2  C   UNL     1       6.302   5.701  17.307  0.00  0.00    +0.000 C 
ATOM      3  C   UNL     1       6.399   5.572  18.828  0.00  0.00    +0.000 C 
ATOM      4  C   UNL     1       5.018   5.060  19.214  0.00  0.00    +0.000 C 
ATOM      5  N   UNL     1       4.139   5.667  18.233  0.00  0.00    +0.000 N 
ATOM      6  C   UNL     1       4.891   6.266  17.217  0.00  0.00    +0.000 C 
ATOM      7  O   UNL     1       4.548   7.099  16.397  0.00  0.00    +0.000 OA
BRANCH   2   8
ATOM      8  C   UNL     1       6.477   4.320  16.644  0.00  0.00    +0.000 C 
BRANCH   8   9
ATOM      9  C   UNL     1       5.525   4.040  15.481  0.00  0.00    +0.000 C 
BRANCH   9  10
ATOM     10  C   UNL     1       6.179   4.428  14.146  0.00  0.00    +0.000 C 
BRANCH  10  14
ATOM     11  N   UNL     1       4.705   3.487  11.900  0.00  0.00    +0.000 NA
ATOM     12  C   UNL     1       5.790   2.916  12.273  0.00  0.00    +0.000 C 
ATOM     13  N   UNL     1       6.363   1.906  11.592  0.00  0.00    +0.000 N 
ATOM     14  N   UNL     1       6.505   3.239  13.375  0.00  0.00    +0.000 N 
ATOM     15  H   UNL     1       4.384   3.075  11.024  0.00  0.00    +0.000 HD
ATOM     16  H   UNL     1       5.754   1.445  10.926  0.00  0.00    +0.000 HD
ATOM     17  H   UNL     1       6.795   1.224  12.209  0.00  0.00    +0.000 HD
ATOM     18  H   UNL     1       7.503   3.114  13.244  0.00  0.00    +0.000 HD
ENDBRANCH  10  14
ENDBRANCH   9  10
ENDBRANCH   8   9
ENDBRANCH   2   8
ENDBRANCH   1   5
BRANCH   1  19
ATOM     19  C   UNL     1       2.222   6.049  19.940  0.00  0.00    +0.000 C 
ATOM     20  O   UNL     1       2.267   5.214  20.842  0.00  0.00    +0.000 OA
ATOM     21  N   UNL     1       1.891   7.357  20.248  0.00  0.00    +0.000 N 
ATOM     22  H   UNL     1       2.260   8.111  19.676  0.00  0.00    +0.000 HD
BRANCH  21  23
ATOM     23  C   UNL     1       1.473   7.715  21.597  0.00  0.00    +0.000 C 
BRANCH  23  24
ATOM     24  C   UNL     1       1.252   9.211  21.803  0.00  0.00    +0.000 C 
BRANCH  24  25
ATOM     25  C   UNL     1       0.044   9.483  22.658  0.00  0.00    +0.000 C 
ATOM     26  O   UNL     1      -0.177  10.524  23.259  0.00  0.00    +0.000 OA
BRANCH  25  27
ATOM     27  O   UNL     1      -0.804   8.428  22.706  0.00  0.00    +0.000 OA
ATOM     28  H   UNL     1      -0.626   7.749  22.026  0.00  0.00    +0.000 HD
ENDBRANCH  25  27
ENDBRANCH  24  25
ENDBRANCH  23  24
ENDBRANCH  21  23
ENDBRANCH   1  19
BRANCH   1  29
ATOM     29  C   UNL     1       1.854   4.712  17.699  0.00  0.00    +0.000 C 
BRANCH  29  30
ATOM     30  C   UNL     1       2.572   3.384  17.498  0.00  0.00    +0.000 C 
BRANCH  30  31
ATOM     31  C   UNL     1       2.188   2.344  18.566  0.00  0.00    +0.000 C 
BRANCH  31  32
ATOM     32  C   UNL     1       3.452   1.800  19.244  0.00  0.00    +0.000 C 
BRANCH  32  33
ATOM     33  N   UNL     1       4.179   0.889  18.367  0.00  0.00    +0.000 NA
ATOM     34  H   UNL     1       4.246   1.296  17.434  0.00  0.00    +0.000 HD
ATOM     35  H   UNL     1       3.640   0.031  18.261  0.00  0.00    +0.000 HD
ENDBRANCH  32  33
ENDBRANCH  31  32
ENDBRANCH  30  31
ENDBRANCH  29  30
ENDBRANCH   1  29
TORSDOF 15
ENDMDL
MODEL 6
REMARK VINA RESULT:      -6.7      3.069      7.311
REMARK  Name = 
REMARK  15 active torsions:
REMARK  status: ('A' for Active; 'I' for Inactive)
REMARK    1  A    between atoms: N_4  and  C_5
REMARK    2  A    between atoms: C_5  and  C_6
REMARK    3  A    between atoms: C_6  and  C_7
REMARK    4  A    between atoms: C_7  and  C_8
REMARK    5  A    between atoms: N_11  and  C_12
REMARK    6  A    between atoms: C_12  and  C_13
REMARK    7  A    between atoms: C_12  and  C_18
REMARK    8  A    between atoms: C_13  and  C_14
REMARK    9  A    between atoms: C_14  and  C_15
REMARK   10  A    between atoms: C_15  and  C_16
REMARK   11  A    between atoms: C_16  and  N_17
REMARK   12  A    between atoms: N_20  and  C_21
REMARK   13  A    between atoms: C_21  and  C_22
REMARK   14  A    between atoms: C_22  and  C_23
REMARK   15  A    between atoms: C_23  and  O_25
REMARK                            x       y       z     vdW  Elec       q    Type
REMARK                         _______ _______ _______ _____ _____    ______ ____
ROOT
ATOM      1  C   UNL     1       3.451   5.471  17.842  0.00  0.00    +0.000 C 
ENDROOT
BRANCH   1   5
ATOM      2  C   UNL     1       7.069   6.069  16.831  0.00  0.00    +0.000 C 
ATOM      3  C   UNL     1       7.154   5.755  18.325  0.00  0.00    +0.000 C 
ATOM      4  C   UNL     1       5.855   5.003  18.587  0.00  0.00    +0.000 C 
ATOM      5  N   UNL     1       4.917   5.603  17.658  0.00  0.00    +0.000 N 
ATOM      6  C   UNL     1       5.593   6.433  16.758  0.00  0.00    +0.000 C 
ATOM      7  O   UNL     1       5.148   7.310  16.040  0.00  0.00    +0.000 OA
BRANCH   2   8
ATOM      8  C   UNL     1       7.460   4.828  16.003  0.00  0.00    +0.000 C 
BRANCH   8   9
ATOM      9  C   UNL     1       6.956   4.834  14.559  0.00  0.00    +0.000 C 
BRANCH   9  10
ATOM     10  C   UNL     1       6.044   3.624  14.303  0.00  0.00    +0.000 C 
BRANCH  10  14
ATOM     11  N   UNL     1       6.118   2.210  11.834  0.00  0.00    +0.000 NA
ATOM     12  C   UNL     1       5.225   3.099  12.067  0.00  0.00    +0.000 C 
ATOM     13  N   UNL     1       4.212   3.365  11.223  0.00  0.00    +0.000 N 
ATOM     14  N   UNL     1       5.168   3.878  13.172  0.00  0.00    +0.000 N 
ATOM     15  H   UNL     1       5.917   1.746  10.949  0.00  0.00    +0.000 HD
ATOM     16  H   UNL     1       4.344   3.020  10.279  0.00  0.00    +0.000 HD
ATOM     17  H   UNL     1       3.973   4.352  11.209  0.00  0.00    +0.000 HD
ATOM     18  H   UNL     1       4.216   4.093  13.450  0.00  0.00    +0.000 HD
ENDBRANCH  10  14
ENDBRANCH   9  10
ENDBRANCH   8   9
ENDBRANCH   2   8
ENDBRANCH   1   5
BRANCH   1  19
ATOM     19  C   UNL     1       2.841   6.165  19.111  0.00  0.00    +0.000 C 
ATOM     20  O   UNL     1       2.971   5.742  20.259  0.00  0.00    +0.000 OA
ATOM     21  N   UNL     1       2.253   7.402  18.911  0.00  0.00    +0.000 N 
ATOM     22  H   UNL     1       2.520   7.953  18.100  0.00  0.00    +0.000 HD
BRANCH  21  23
ATOM     23  C   UNL     1       1.675   8.135  20.029  0.00  0.00    +0.000 C 
BRANCH  23  24
ATOM     24  C   UNL     1       1.169   9.528  19.664  0.00  0.00    +0.000 C 
BRANCH  24  25
ATOM     25  C   UNL     1       1.184   9.755  18.176  0.00  0.00    +0.000 C 
ATOM     26  O   UNL     1       2.188   9.853  17.487  0.00  0.00    +0.000 OA
BRANCH  25  27
ATOM     27  O   UNL     1      -0.062   9.849  17.655  0.00  0.00    +0.000 OA
ATOM     28  H   UNL     1      -0.104   9.649  16.699  0.00  0.00    +0.000 HD
ENDBRANCH  25  27
ENDBRANCH  24  25
ENDBRANCH  23  24
ENDBRANCH  21  23
ENDBRANCH   1  19
BRANCH   1  29
ATOM     29  C   UNL     1       2.920   4.048  17.544  0.00  0.00    +0.000 C 
BRANCH  29  30
ATOM     30  C   UNL     1       1.485   3.802  17.994  0.00  0.00    +0.000 C 
BRANCH  30  31
ATOM     31  C   UNL     1       1.339   2.498  18.798  0.00  0.00    +0.000 C 
BRANCH  31  32
ATOM     32  C   UNL     1       1.108   2.820  20.280  0.00  0.00    +0.000 C 
BRANCH  32  33
ATOM     33  N   UNL     1       2.356   2.796  21.033  0.00  0.00    +0.000 NA
ATOM     34  H   UNL     1       2.519   3.712  21.453  0.00  0.00    +0.000 HD
ATOM     35  H   UNL     1       3.130   2.643  20.386  0.00  0.00    +0.000 HD
ENDBRANCH  32  33
ENDBRANCH  31  32
ENDBRANCH  30  31
ENDBRANCH  29  30
ENDBRANCH   1  29
TORSDOF 15
ENDMDL
MODEL 7
REMARK VINA RESULT:      -6.7      3.153      7.782
REMARK  Name = 
REMARK  15 active torsions:
REMARK  status: ('A' for Active; 'I' for Inactive)
REMARK    1  A    between atoms: N_4  and  C_5
REMARK    2  A    between atoms: C_5  and  C_6
REMARK    3  A    between atoms: C_6  and  C_7
REMARK    4  A    between atoms: C_7  and  C_8
REMARK    5  A    between atoms: N_11  and  C_12
REMARK    6  A    between atoms: C_12  and  C_13
REMARK    7  A    between atoms: C_12  and  C_18
REMARK    8  A    between atoms: C_13  and  C_14
REMARK    9  A    between atoms: C_14  and  C_15
REMARK   10  A    between atoms: C_15  and  C_16
REMARK   11  A    between atoms: C_16  and  N_17
REMARK   12  A    between atoms: N_20  and  C_21
REMARK   13  A    between atoms: C_21  and  C_22
REMARK   14  A    between atoms: C_22  and  C_23
REMARK   15  A    between atoms: C_23  and  O_25
REMARK                            x       y       z     vdW  Elec       q    Type
REMARK                         _______ _______ _______ _____ _____    ______ ____
ROOT
ATOM      1  C   UNL     1       4.325   5.566  18.717  0.00  0.00    +0.000 C 
ENDROOT
BRANCH   1   5
ATOM      2  C   UNL     1       7.813   6.732  17.744  0.00  0.00    +0.000 C 
ATOM      3  C   UNL     1       7.248   6.147  16.449  0.00  0.00    +0.000 C 
ATOM      4  C   UNL     1       5.744   6.199  16.682  0.00  0.00    +0.000 C 
ATOM      5  N   UNL     1       5.609   5.994  18.111  0.00  0.00    +0.000 N 
ATOM      6  C   UNL     1       6.862   6.065  18.728  0.00  0.00    +0.000 C 
ATOM      7  O   UNL     1       7.199   5.671  19.830  0.00  0.00    +0.000 OA
BRANCH   2   8
ATOM      8  C   UNL     1       7.723   8.271  17.717  0.00  0.00    +0.000 C 
BRANCH   8   9
ATOM      9  C   UNL     1       8.725   8.990  18.622  0.00  0.00    +0.000 C 
BRANCH   9  10
ATOM     10  C   UNL     1       8.853  10.466  18.216  0.00  0.00    +0.000 C 
BRANCH  10  14
ATOM     11  N   UNL     1       9.772  13.011  17.334  0.00  0.00    +0.000 NA
ATOM     12  C   UNL     1      10.587  12.050  17.562  0.00  0.00    +0.000 C 
ATOM     13  N   UNL     1      11.925  12.188  17.499  0.00  0.00    +0.000 N 
ATOM     14  N   UNL     1      10.234  10.788  17.897  0.00  0.00    +0.000 N 
ATOM     15  H   UNL     1      10.293  13.864  17.131  0.00  0.00    +0.000 HD
ATOM     16  H   UNL     1      12.243  13.011  17.002  0.00  0.00    +0.000 HD
ATOM     17  H   UNL     1      12.379  11.356  17.135  0.00  0.00    +0.000 HD
ATOM     18  H   UNL     1      10.898  10.350  18.528  0.00  0.00    +0.000 HD
ENDBRANCH  10  14
ENDBRANCH   9  10
ENDBRANCH   8   9
ENDBRANCH   2   8
ENDBRANCH   1   5
BRANCH   1  19
ATOM     19  C   UNL     1       4.156   4.027  18.978  0.00  0.00    +0.000 C 
ATOM     20  O   UNL     1       4.998   3.324  19.535  0.00  0.00    +0.000 OA
ATOM     21  N   UNL     1       2.915   3.488  18.686  0.00  0.00    +0.000 N 
ATOM     22  H   UNL     1       2.103   4.098  18.657  0.00  0.00    +0.000 HD
BRANCH  21  23
ATOM     23  C   UNL     1       2.652   2.073  18.911  0.00  0.00    +0.000 C 
BRANCH  23  24
ATOM     24  C   UNL     1       1.550   1.799  19.930  0.00  0.00    +0.000 C 
BRANCH  24  25
ATOM     25  C   UNL     1       1.390   2.940  20.898  0.00  0.00    +0.000 C 
ATOM     26  O   UNL     1       1.980   3.053  21.961  0.00  0.00    +0.000 OA
BRANCH  25  27
ATOM     27  O   UNL     1       0.495   3.861  20.468  0.00  0.00    +0.000 OA
ATOM     28  H   UNL     1       0.424   4.643  21.051  0.00  0.00    +0.000 HD
ENDBRANCH  25  27
ENDBRANCH  24  25
ENDBRANCH  23  24
ENDBRANCH  21  23
ENDBRANCH   1  19
BRANCH   1  29
ATOM     29  C   UNL     1       3.091   6.275  18.108  0.00  0.00    +0.000 C 
BRANCH  29  30
ATOM     30  C   UNL     1       2.437   7.301  19.024  0.00  0.00    +0.000 C 
BRANCH  30  31
ATOM     31  C   UNL     1       1.554   8.298  18.252  0.00  0.00    +0.000 C 
BRANCH  31  32
ATOM     32  C   UNL     1       2.360   9.557  17.913  0.00  0.00    +0.000 C 
BRANCH  32  33
ATOM     33  N   UNL     1       1.508  10.740  17.864  0.00  0.00    +0.000 NA
ATOM     34  H   UNL     1       1.996  11.530  18.287  0.00  0.00    +0.000 HD
ATOM     35  H   UNL     1       0.684  10.578  18.442  0.00  0.00    +0.000 HD
ENDBRANCH  32  33
ENDBRANCH  31  32
ENDBRANCH  30  31
ENDBRANCH  29  30
ENDBRANCH   1  29
TORSDOF 15
ENDMDL
MODEL 8
REMARK VINA RESULT:      -6.6      3.201      7.631
REMARK  Name = 
REMARK  15 active torsions:
REMARK  status: ('A' for Active; 'I' for Inactive)
REMARK    1  A    between atoms: N_4  and  C_5
REMARK    2  A    between atoms: C_5  and  C_6
REMARK    3  A    between atoms: C_6  and  C_7
REMARK    4  A    between atoms: C_7  and  C_8
REMARK    5  A    between atoms: N_11  and  C_12
REMARK    6  A    between atoms: C_12  and  C_13
REMARK    7  A    between atoms: C_12  and  C_18
REMARK    8  A    between atoms: C_13  and  C_14
REMARK    9  A    between atoms: C_14  and  C_15
REMARK   10  A    between atoms: C_15  and  C_16
REMARK   11  A    between atoms: C_16  and  N_17
REMARK   12  A    between atoms: N_20  and  C_21
REMARK   13  A    between atoms: C_21  and  C_22
REMARK   14  A    between atoms: C_22  and  C_23
REMARK   15  A    between atoms: C_23  and  O_25
REMARK                            x       y       z     vdW  Elec       q    Type
REMARK                         _______ _______ _______ _____ _____    ______ ____
ROOT
ATOM      1  C   UNL     1       4.227   5.566  18.686  0.00  0.00    +0.000 C 
ENDROOT
BRANCH   1   5
ATOM      2  C   UNL     1       7.747   6.631  17.708  0.00  0.00    +0.000 C 
ATOM      3  C   UNL     1       7.169   6.048  16.418  0.00  0.00    +0.000 C 
ATOM      4  C   UNL     1       5.666   6.142  16.648  0.00  0.00    +0.000 C 
ATOM      5  N   UNL     1       5.524   5.955  18.078  0.00  0.00    +0.000 N 
ATOM      6  C   UNL     1       6.777   5.999  18.697  0.00  0.00    +0.000 C 
ATOM      7  O   UNL     1       7.101   5.607  19.804  0.00  0.00    +0.000 OA
BRANCH   2   8
ATOM      8  C   UNL     1       7.697   8.171  17.665  0.00  0.00    +0.000 C 
BRANCH   8   9
ATOM      9  C   UNL     1       8.541   8.871  18.731  0.00  0.00    +0.000 C 
BRANCH   9  10
ATOM     10  C   UNL     1       9.227  10.114  18.143  0.00  0.00    +0.000 C 
BRANCH  10  14
ATOM     11  N   UNL     1       9.856  12.842  17.633  0.00  0.00    +0.000 NA
ATOM     12  C   UNL     1       8.651  12.413  17.570  0.00  0.00    +0.000 C 
ATOM     13  N   UNL     1       7.617  13.176  17.171  0.00  0.00    +0.000 N 
ATOM     14  N   UNL     1       8.251  11.158  17.881  0.00  0.00    +0.000 N 
ATOM     15  H   UNL     1       9.892  13.812  17.319  0.00  0.00    +0.000 HD
ATOM     16  H   UNL     1       7.795  14.173  17.185  0.00  0.00    +0.000 HD
ATOM     17  H   UNL     1       6.764  12.962  17.680  0.00  0.00    +0.000 HD
ATOM     18  H   UNL     1       7.477  10.840  17.306  0.00  0.00    +0.000 HD
ENDBRANCH  10  14
ENDBRANCH   9  10
ENDBRANCH   8   9
ENDBRANCH   2   8
ENDBRANCH   1   5
BRANCH   1  19
ATOM     19  C   UNL     1       4.038   4.042  19.011  0.00  0.00    +0.000 C 
ATOM     20  O   UNL     1       4.784   3.393  19.743  0.00  0.00    +0.000 OA
ATOM     21  N   UNL     1       2.872   3.457  18.549  0.00  0.00    +0.000 N 
ATOM     22  H   UNL     1       2.068   4.045  18.346  0.00  0.00    +0.000 HD
BRANCH  21  23
ATOM     23  C   UNL     1       2.594   2.052  18.813  0.00  0.00    +0.000 C 
BRANCH  23  24
ATOM     24  C   UNL     1       1.361   1.814  19.680  0.00  0.00    +0.000 C 
BRANCH  24  25
ATOM     25  C   UNL     1       1.305   2.766  20.843  0.00  0.00    +0.000 C 
ATOM     26  O   UNL     1       1.773   2.557  21.952  0.00  0.00    +0.000 OA
BRANCH  25  27
ATOM     27  O   UNL     1       0.660   3.917  20.539  0.00  0.00    +0.000 OA
ATOM     28  H   UNL     1      -0.259   3.784  20.232  0.00  0.00    +0.000 HD
ENDBRANCH  25  27
ENDBRANCH  24  25
ENDBRANCH  23  24
ENDBRANCH  21  23
ENDBRANCH   1  19
BRANCH   1  29
ATOM     29  C   UNL     1       3.009   6.262  18.032  0.00  0.00    +0.000 C 
BRANCH  29  30
ATOM     30  C   UNL     1       2.520   7.503  18.769  0.00  0.00    +0.000 C 
BRANCH  30  31
ATOM     31  C   UNL     1       2.355   8.713  17.832  0.00  0.00    +0.000 C 
BRANCH  31  32
ATOM     32  C   UNL     1       1.366   9.714  18.441  0.00  0.00    +0.000 C 
BRANCH  32  33
ATOM     33  N   UNL     1       1.599  11.065  17.944  0.00  0.00    +0.000 NA
ATOM     34  H   UNL     1       2.302  11.525  18.522  0.00  0.00    +0.000 HD
ATOM     35  H   UNL     1       0.744  11.611  18.056  0.00  0.00    +0.000 HD
ENDBRANCH  32  33
ENDBRANCH  31  32
ENDBRANCH  30  31
ENDBRANCH  29  30
ENDBRANCH   1  29
TORSDOF 15
ENDMDL
MODEL 9
REMARK VINA RESULT:      -6.6      4.363      7.333
REMARK  Name = 
REMARK  15 active torsions:
REMARK  status: ('A' for Active; 'I' for Inactive)
REMARK    1  A    between atoms: N_4  and  C_5
REMARK    2  A    between atoms: C_5  and  C_6
REMARK    3  A    between atoms: C_6  and  C_7
REMARK    4  A    between atoms: C_7  and  C_8
REMARK    5  A    between atoms: N_11  and  C_12
REMARK    6  A    between atoms: C_12  and  C_13
REMARK    7  A    between atoms: C_12  and  C_18
REMARK    8  A    between atoms: C_13  and  C_14
REMARK    9  A    between atoms: C_14  and  C_15
REMARK   10  A    between atoms: C_15  and  C_16
REMARK   11  A    between atoms: C_16  and  N_17
REMARK   12  A    between atoms: N_20  and  C_21
REMARK   13  A    between atoms: C_21  and  C_22
REMARK   14  A    between atoms: C_22  and  C_23
REMARK   15  A    between atoms: C_23  and  O_25
REMARK                            x       y       z     vdW  Elec       q    Type
REMARK                         _______ _______ _______ _____ _____    ______ ____
ROOT
ATOM      1  C   UNL     1       2.724   6.095  19.664  0.00  0.00    +0.000 C 
ENDROOT
BRANCH   1   5
ATOM      2  C   UNL     1       1.323   9.514  18.759  0.00  0.00    +0.000 C 
ATOM      3  C   UNL     1       2.577   9.391  17.892  0.00  0.00    +0.000 C 
ATOM      4  C   UNL     1       2.803   7.886  17.836  0.00  0.00    +0.000 C 
ATOM      5  N   UNL     1       2.327   7.418  19.123  0.00  0.00    +0.000 N 
ATOM      6  C   UNL     1       1.655   8.447  19.791  0.00  0.00    +0.000 C 
ATOM      7  O   UNL     1       1.375   8.540  20.973  0.00  0.00    +0.000 OA
BRANCH   2   8
ATOM      8  C   UNL     1       0.064   9.217  17.919  0.00  0.00    +0.000 C 
BRANCH   8   9
ATOM      9  C   UNL     1      -1.058  10.247  18.057  0.00  0.00    +0.000 C 
BRANCH   9  10
ATOM     10  C   UNL     1      -2.201   9.930  17.080  0.00  0.00    +0.000 C 
BRANCH  10  14
ATOM     11  N   UNL     1      -4.132  12.013  16.898  0.00  0.00    +0.000 NA
ATOM     12  C   UNL     1      -4.367  10.941  17.559  0.00  0.00    +0.000 C 
ATOM     13  N   UNL     1      -5.556  10.673  18.130  0.00  0.00    +0.000 N 
ATOM     14  N   UNL     1      -3.479   9.943  17.771  0.00  0.00    +0.000 N 
ATOM     15  H   UNL     1      -4.974  12.587  16.863  0.00  0.00    +0.000 HD
ATOM     16  H   UNL     1      -6.164  11.476  18.240  0.00  0.00    +0.000 HD
ATOM     17  H   UNL     1      -5.456  10.181  19.012  0.00  0.00    +0.000 HD
ATOM     18  H   UNL     1      -3.919   9.029  17.805  0.00  0.00    +0.000 HD
ENDBRANCH  10  14
ENDBRANCH   9  10
ENDBRANCH   8   9
ENDBRANCH   2   8
ENDBRANCH   1   5
BRANCH   1  19
ATOM     19  C   UNL     1       3.930   5.385  18.953  0.00  0.00    +0.000 C 
ATOM     20  O   UNL     1       5.081   5.372  19.390  0.00  0.00    +0.000 OA
ATOM     21  N   UNL     1       3.622   4.611  17.848  0.00  0.00    +0.000 N 
ATOM     22  H   UNL     1       2.677   4.254  17.740  0.00  0.00    +0.000 HD
BRANCH  21  23
ATOM     23  C   UNL     1       4.668   3.897  17.129  0.00  0.00    +0.000 C 
BRANCH  23  24
ATOM     24  C   UNL     1       5.290   4.691  15.983  0.00  0.00    +0.000 C 
BRANCH  24  25
ATOM     25  C   UNL     1       6.737   5.007  16.247  0.00  0.00    +0.000 C 
ATOM     26  O   UNL     1       7.396   5.846  15.653  0.00  0.00    +0.000 OA
BRANCH  25  27
ATOM     27  O   UNL     1       7.262   4.245  17.236  0.00  0.00    +0.000 OA
ATOM     28  H   UNL     1       8.111   4.581  17.583  0.00  0.00    +0.000 HD
ENDBRANCH  25  27
ENDBRANCH  24  25
ENDBRANCH  23  24
ENDBRANCH  21  23
ENDBRANCH   1  19
BRANCH   1  29
ATOM     29  C   UNL     1       1.521   5.182  20.000  0.00  0.00    +0.000 C 
BRANCH  29  30
ATOM     30  C   UNL     1       1.817   4.101  21.031  0.00  0.00    +0.000 C 
BRANCH  30  31
ATOM     31  C   UNL     1       1.570   2.684  20.483  0.00  0.00    +0.000 C 
BRANCH  31  32
ATOM     32  C   UNL     1       0.873   2.765  19.119  0.00  0.00    +0.000 C 
BRANCH  32  33
ATOM     33  N   UNL     1       1.610   2.031  18.097  0.00  0.00    +0.000 NA
ATOM     34  H   UNL     1       1.224   1.091  18.007  0.00  0.00    +0.000 HD
ATOM     35  H   UNL     1       2.574   1.909  18.408  0.00  0.00    +0.000 HD
ENDBRANCH  32  33
ENDBRANCH  31  32
ENDBRANCH  30  31
ENDBRANCH  29  30
ENDBRANCH   1  29
TORSDOF 15
ENDMDL
