MODEL 1
REMARK VINA RESULT:      -7.7      0.000      0.000
REMARK  Name = 
REMARK  5 active torsions:
REMARK  status: ('A' for Active; 'I' for Inactive)
REMARK    1  A    between atoms: C_1  and  C_2
REMARK    2  A    between atoms: C_3  and  C_4
REMARK    3  A    between atoms: N_9  and  C_10
REMARK    4  A    between atoms: C_13  and  N_14
REMARK    5  A    between atoms: N_26  and  C_27
REMARK                            x       y       z     vdW  Elec       q    Type
REMARK                         _______ _______ _______ _____ _____    ______ ____
ROOT
ATOM      1  C   UNL     1       2.542   7.440  18.517  0.00  0.00    +0.000 A 
ATOM      2  C   UNL     1       2.318   8.337  17.491  0.00  0.00    +0.000 A 
ATOM      3  C   UNL     1       1.658   9.489  17.820  0.00  0.00    +0.000 A 
ATOM      4  N   UNL     1       1.236   9.754  19.056  0.00  0.00    +0.000 NA
ATOM      5  C   UNL     1       1.472   8.843  20.012  0.00  0.00    +0.000 A 
ATOM      6  N   UNL     1       1.065   9.102  21.320  0.00  0.00    +0.000 N 
ATOM      7  N   UNL     1       2.128   7.689  19.784  0.00  0.00    +0.000 NA
ATOM      8  H   UNL     1       1.398   8.392  21.957  0.00  0.00    +0.000 HD
ENDROOT
BRANCH   1  11
ATOM      9  C   UNL     1       1.610   4.404  19.095  0.00  0.00    +0.000 C 
ATOM     10  C   UNL     1       2.896   4.895  18.504  0.00  0.00    +0.000 A 
ATOM     11  C   UNL     1       3.261   6.172  18.266  0.00  0.00    +0.000 A 
ATOM     12  S   UNL     1       4.861   6.248  17.549  0.00  0.00    +0.000 S 
ATOM     13  C   UNL     1       5.009   4.497  17.542  0.00  0.00    +0.000 A 
ATOM     14  O   UNL     1       5.979   3.907  17.097  0.00  0.00    +0.000 OA
ATOM     15  N   UNL     1       3.859   3.968  18.101  0.00  0.00    +0.000 N 
ATOM     16  C   UNL     1       3.707   2.535  18.232  0.00  0.00    +0.000 C 
ENDBRANCH   1  11
BRANCH   6  17
ATOM     17  C   UNL     1       0.225  10.095  21.842  0.00  0.00    +0.000 A 
ATOM     18  C   UNL     1       0.283  11.436  21.445  0.00  0.00    +0.000 A 
ATOM     19  C   UNL     1      -0.558  12.407  22.002  0.00  0.00    +0.000 A 
ATOM     20  C   UNL     1      -1.480  12.081  22.996  0.00  0.00    +0.000 A 
ATOM     21  C   UNL     1      -1.497  10.753  23.440  0.00  0.00    +0.000 A 
ATOM     22  C   UNL     1      -0.668   9.774  22.868  0.00  0.00    +0.000 A 
BRANCH  20  23
ATOM     23  N   UNL     1      -2.415  12.977  23.496  0.00  0.00    +0.000 N 
ATOM     24  C   UNL     1      -3.736  13.072  22.860  0.00  0.00    +0.000 C 
ATOM     25  C   UNL     1      -4.735  13.677  23.874  0.00  0.00    +0.000 C 
ATOM     26  N   UNL     1      -4.315  14.995  24.398  0.00  0.00    +0.000 NA
ATOM     27  C   UNL     1      -2.940  14.901  24.938  0.00  0.00    +0.000 C 
ATOM     28  C   UNL     1      -1.915  14.289  23.951  0.00  0.00    +0.000 C 
ATOM     29  H   UNL     1      -4.946  15.258  25.155  0.00  0.00    +0.000 HD
ENDBRANCH  20  23
ENDBRANCH   6  17
TORSDOF 3
ENDMDL
MODEL 2
REMARK VINA RESULT:      -7.7      0.857      1.237
REMARK  Name = 
REMARK  5 active torsions:
REMARK  status: ('A' for Active; 'I' for Inactive)
REMARK    1  A    between atoms: C_1  and  C_2
REMARK    2  A    between atoms: C_3  and  C_4
REMARK    3  A    between atoms: N_9  and  C_10
REMARK    4  A    between atoms: C_13  and  N_14
REMARK    5  A    between atoms: N_26  and  C_27
REMARK                            x       y       z     vdW  Elec       q    Type
REMARK                         _______ _______ _______ _____ _____    ______ ____
ROOT
ATOM      1  C   UNL     1       2.199   7.729  18.956  0.00  0.00    +0.000 A 
ATOM      2  C   UNL     1       1.861   8.455  17.831  0.00  0.00    +0.000 A 
ATOM      3  C   UNL     1       1.140   9.599  18.035  0.00  0.00    +0.000 A 
ATOM      4  N   UNL     1       0.765  10.011  19.246  0.00  0.00    +0.000 NA
ATOM      5  C   UNL     1       1.112   9.263  20.304  0.00  0.00    +0.000 A 
ATOM      6  N   UNL     1       0.755   9.680  21.585  0.00  0.00    +0.000 N 
ATOM      7  N   UNL     1       1.835   8.131  20.200  0.00  0.00    +0.000 NA
ATOM      8  H   UNL     1       1.170   9.091  22.293  0.00  0.00    +0.000 HD
ENDROOT
BRANCH   1  11
ATOM      9  C   UNL     1       1.836   4.916  20.498  0.00  0.00    +0.000 C 
ATOM     10  C   UNL     1       2.863   5.302  19.478  0.00  0.00    +0.000 A 
ATOM     11  C   UNL     1       2.991   6.486  18.842  0.00  0.00    +0.000 A 
ATOM     12  S   UNL     1       4.342   6.456  17.722  0.00  0.00    +0.000 S 
ATOM     13  C   UNL     1       4.707   4.782  18.108  0.00  0.00    +0.000 A 
ATOM     14  O   UNL     1       5.606   4.151  17.578  0.00  0.00    +0.000 OA
ATOM     15  N   UNL     1       3.808   4.358  19.072  0.00  0.00    +0.000 N 
ATOM     16  C   UNL     1       3.877   3.009  19.589  0.00  0.00    +0.000 C 
ENDBRANCH   1  11
BRANCH   6  17
ATOM     17  C   UNL     1      -0.124  10.684  22.013  0.00  0.00    +0.000 A 
ATOM     18  C   UNL     1      -0.034  12.015  21.590  0.00  0.00    +0.000 A 
ATOM     19  C   UNL     1      -0.918  12.998  22.054  0.00  0.00    +0.000 A 
ATOM     20  C   UNL     1      -1.917  12.694  22.977  0.00  0.00    +0.000 A 
ATOM     21  C   UNL     1      -1.969  11.377  23.450  0.00  0.00    +0.000 A 
ATOM     22  C   UNL     1      -1.097  10.386  22.971  0.00  0.00    +0.000 A 
BRANCH  20  23
ATOM     23  N   UNL     1      -2.889  13.600  23.379  0.00  0.00    +0.000 N 
ATOM     24  C   UNL     1      -2.483  14.855  24.026  0.00  0.00    +0.000 C 
ATOM     25  C   UNL     1      -3.624  15.887  23.872  0.00  0.00    +0.000 C 
ATOM     26  N   UNL     1      -4.918  15.418  24.414  0.00  0.00    +0.000 NA
ATOM     27  C   UNL     1      -5.256  14.102  23.827  0.00  0.00    +0.000 C 
ATOM     28  C   UNL     1      -4.129  13.047  23.955  0.00  0.00    +0.000 C 
ATOM     29  H   UNL     1      -5.641  16.088  24.152  0.00  0.00    +0.000 HD
ENDBRANCH  20  23
ENDBRANCH   6  17
TORSDOF 3
ENDMDL
MODEL 3
REMARK VINA RESULT:      -7.7      1.168      1.471
REMARK  Name = 
REMARK  5 active torsions:
REMARK  status: ('A' for Active; 'I' for Inactive)
REMARK    1  A    between atoms: C_1  and  C_2
REMARK    2  A    between atoms: C_3  and  C_4
REMARK    3  A    between atoms: N_9  and  C_10
REMARK    4  A    between atoms: C_13  and  N_14
REMARK    5  A    between atoms: N_26  and  C_27
REMARK                            x       y       z     vdW  Elec       q    Type
REMARK                         _______ _______ _______ _____ _____    ______ ____
ROOT
ATOM      1  C   UNL     1       2.460   7.385  19.067  0.00  0.00    +0.000 A 
ATOM      2  C   UNL     1       2.303   8.086  17.888  0.00  0.00    +0.000 A 
ATOM      3  C   UNL     1       1.539   9.219  17.947  0.00  0.00    +0.000 A 
ATOM      4  N   UNL     1       0.958   9.642  19.070  0.00  0.00    +0.000 NA
ATOM      5  C   UNL     1       1.136   8.917  20.184  0.00  0.00    +0.000 A 
ATOM      6  N   UNL     1       0.561   9.347  21.380  0.00  0.00    +0.000 N 
ATOM      7  N   UNL     1       1.885   7.799  20.224  0.00  0.00    +0.000 NA
ATOM      8  H   UNL     1       0.861   8.777  22.158  0.00  0.00    +0.000 HD
ENDROOT
BRANCH   1  11
ATOM      9  C   UNL     1       1.836   4.549  20.477  0.00  0.00    +0.000 C 
ATOM     10  C   UNL     1       3.046   4.964  19.697  0.00  0.00    +0.000 A 
ATOM     11  C   UNL     1       3.282   6.156  19.111  0.00  0.00    +0.000 A 
ATOM     12  S   UNL     1       4.837   6.162  18.296  0.00  0.00    +0.000 S 
ATOM     13  C   UNL     1       5.145   4.490  18.737  0.00  0.00    +0.000 A 
ATOM     14  O   UNL     1       6.146   3.880  18.401  0.00  0.00    +0.000 OA
ATOM     15  N   UNL     1       4.072   4.040  19.489  0.00  0.00    +0.000 N 
ATOM     16  C   UNL     1       4.058   2.687  19.999  0.00  0.00    +0.000 C 
ENDBRANCH   1  11
BRANCH   6  17
ATOM     17  C   UNL     1      -0.395  10.339  21.635  0.00  0.00    +0.000 A 
ATOM     18  C   UNL     1      -0.857  11.229  20.659  0.00  0.00    +0.000 A 
ATOM     19  C   UNL     1      -1.799  12.223  20.954  0.00  0.00    +0.000 A 
ATOM     20  C   UNL     1      -2.303  12.382  22.244  0.00  0.00    +0.000 A 
ATOM     21  C   UNL     1      -1.795  11.534  23.236  0.00  0.00    +0.000 A 
ATOM     22  C   UNL     1      -0.865  10.525  22.938  0.00  0.00    +0.000 A 
BRANCH  20  23
ATOM     23  N   UNL     1      -3.321  13.270  22.564  0.00  0.00    +0.000 N 
ATOM     24  C   UNL     1      -3.587  13.585  23.975  0.00  0.00    +0.000 C 
ATOM     25  C   UNL     1      -4.329  14.939  24.051  0.00  0.00    +0.000 C 
ATOM     26  N   UNL     1      -5.583  14.968  23.267  0.00  0.00    +0.000 NA
ATOM     27  C   UNL     1      -5.309  14.544  21.875  0.00  0.00    +0.000 C 
ATOM     28  C   UNL     1      -4.557  13.195  21.763  0.00  0.00    +0.000 C 
ATOM     29  H   UNL     1      -5.936  15.925  23.255  0.00  0.00    +0.000 HD
ENDBRANCH  20  23
ENDBRANCH   6  17
TORSDOF 3
ENDMDL
MODEL 4
REMARK VINA RESULT:      -7.6      1.054      1.477
REMARK  Name = 
REMARK  5 active torsions:
REMARK  status: ('A' for Active; 'I' for Inactive)
REMARK    1  A    between atoms: C_1  and  C_2
REMARK    2  A    between atoms: C_3  and  C_4
REMARK    3  A    between atoms: N_9  and  C_10
REMARK    4  A    between atoms: C_13  and  N_14
REMARK    5  A    between atoms: N_26  and  C_27
REMARK                            x       y       z     vdW  Elec       q    Type
REMARK                         _______ _______ _______ _____ _____    ______ ____
ROOT
ATOM      1  C   UNL     1       2.507   7.380  18.581  0.00  0.00    +0.000 A 
ATOM      2  C   UNL     1       2.210   8.217  17.524  0.00  0.00    +0.000 A 
ATOM      3  C   UNL     1       1.520   9.359  17.823  0.00  0.00    +0.000 A 
ATOM      4  N   UNL     1       1.134   9.667  19.061  0.00  0.00    +0.000 NA
ATOM      5  C   UNL     1       1.440   8.813  20.049  0.00  0.00    +0.000 A 
ATOM      6  N   UNL     1       1.073   9.120  21.359  0.00  0.00    +0.000 N 
ATOM      7  N   UNL     1       2.131   7.675  19.851  0.00  0.00    +0.000 NA
ATOM      8  H   UNL     1       1.457   8.455  22.015  0.00  0.00    +0.000 HD
ENDROOT
BRANCH   1  11
ATOM      9  C   UNL     1       5.327   6.925  17.077  0.00  0.00    +0.000 C 
ATOM     10  C   UNL     1       4.439   5.913  17.734  0.00  0.00    +0.000 A 
ATOM     11  C   UNL     1       3.264   6.129  18.363  0.00  0.00    +0.000 A 
ATOM     12  S   UNL     1       2.597   4.629  18.986  0.00  0.00    +0.000 S 
ATOM     13  C   UNL     1       3.974   3.704  18.407  0.00  0.00    +0.000 A 
ATOM     14  O   UNL     1       4.098   2.503  18.584  0.00  0.00    +0.000 OA
ATOM     15  N   UNL     1       4.835   4.574  17.761  0.00  0.00    +0.000 N 
ATOM     16  C   UNL     1       6.060   4.081  17.171  0.00  0.00    +0.000 C 
ENDBRANCH   1  11
BRANCH   6  17
ATOM     17  C   UNL     1       0.215  10.106  21.865  0.00  0.00    +0.000 A 
ATOM     18  C   UNL     1       0.253  11.443  21.452  0.00  0.00    +0.000 A 
ATOM     19  C   UNL     1      -0.606  12.407  21.995  0.00  0.00    +0.000 A 
ATOM     20  C   UNL     1      -1.526  12.079  22.990  0.00  0.00    +0.000 A 
ATOM     21  C   UNL     1      -1.522  10.756  23.450  0.00  0.00    +0.000 A 
ATOM     22  C   UNL     1      -0.676   9.784  22.893  0.00  0.00    +0.000 A 
BRANCH  20  23
ATOM     23  N   UNL     1      -2.476  12.966  23.476  0.00  0.00    +0.000 N 
ATOM     24  C   UNL     1      -3.779  13.068  22.803  0.00  0.00    +0.000 C 
ATOM     25  C   UNL     1      -4.807  13.656  23.797  0.00  0.00    +0.000 C 
ATOM     26  N   UNL     1      -4.406  14.966  24.353  0.00  0.00    +0.000 NA
ATOM     27  C   UNL     1      -3.047  14.866  24.931  0.00  0.00    +0.000 C 
ATOM     28  C   UNL     1      -1.993  14.271  23.964  0.00  0.00    +0.000 C 
ATOM     29  H   UNL     1      -5.059  15.218  25.094  0.00  0.00    +0.000 HD
ENDBRANCH  20  23
ENDBRANCH   6  17
TORSDOF 3
ENDMDL
MODEL 5
REMARK VINA RESULT:      -7.6      1.294      1.838
REMARK  Name = 
REMARK  5 active torsions:
REMARK  status: ('A' for Active; 'I' for Inactive)
REMARK    1  A    between atoms: C_1  and  C_2
REMARK    2  A    between atoms: C_3  and  C_4
REMARK    3  A    between atoms: N_9  and  C_10
REMARK    4  A    between atoms: C_13  and  N_14
REMARK    5  A    between atoms: N_26  and  C_27
REMARK                            x       y       z     vdW  Elec       q    Type
REMARK                         _______ _______ _______ _____ _____    ______ ____
ROOT
ATOM      1  C   UNL     1       2.254   7.659  18.964  0.00  0.00    +0.000 A 
ATOM      2  C   UNL     1       1.894   8.363  17.833  0.00  0.00    +0.000 A 
ATOM      3  C   UNL     1       1.177   9.510  18.028  0.00  0.00    +0.000 A 
ATOM      4  N   UNL     1       0.825   9.945  19.238  0.00  0.00    +0.000 NA
ATOM      5  C   UNL     1       1.192   9.217  20.303  0.00  0.00    +0.000 A 
ATOM      6  N   UNL     1       0.860   9.659  21.583  0.00  0.00    +0.000 N 
ATOM      7  N   UNL     1       1.913   8.084  20.207  0.00  0.00    +0.000 NA
ATOM      8  H   UNL     1       1.288   9.084  22.294  0.00  0.00    +0.000 HD
ENDROOT
BRANCH   1  11
ATOM      9  C   UNL     1       4.718   6.953  17.000  0.00  0.00    +0.000 C 
ATOM     10  C   UNL     1       4.073   6.094  18.044  0.00  0.00    +0.000 A 
ATOM     11  C   UNL     1       3.045   6.414  18.859  0.00  0.00    +0.000 A 
ATOM     12  S   UNL     1       2.648   5.079  19.927  0.00  0.00    +0.000 S 
ATOM     13  C   UNL     1       3.938   4.086  19.269  0.00  0.00    +0.000 A 
ATOM     14  O   UNL     1       4.192   2.962  19.670  0.00  0.00    +0.000 OA
ATOM     15  N   UNL     1       4.570   4.809  18.272  0.00  0.00    +0.000 N 
ATOM     16  C   UNL     1       5.677   4.230  17.543  0.00  0.00    +0.000 C 
ENDBRANCH   1  11
BRANCH   6  17
ATOM     17  C   UNL     1      -0.012  10.671  22.008  0.00  0.00    +0.000 A 
ATOM     18  C   UNL     1       0.117  12.009  21.619  0.00  0.00    +0.000 A 
ATOM     19  C   UNL     1      -0.761  12.999  22.080  0.00  0.00    +0.000 A 
ATOM     20  C   UNL     1      -1.793  12.694  22.966  0.00  0.00    +0.000 A 
ATOM     21  C   UNL     1      -1.886  11.368  23.406  0.00  0.00    +0.000 A 
ATOM     22  C   UNL     1      -1.019  10.371  22.930  0.00  0.00    +0.000 A 
BRANCH  20  23
ATOM     23  N   UNL     1      -2.759  13.610  23.360  0.00  0.00    +0.000 N 
ATOM     24  C   UNL     1      -2.352  14.821  24.087  0.00  0.00    +0.000 C 
ATOM     25  C   UNL     1      -3.453  15.894  23.924  0.00  0.00    +0.000 C 
ATOM     26  N   UNL     1      -4.787  15.441  24.376  0.00  0.00    +0.000 NA
ATOM     27  C   UNL     1      -5.131  14.164  23.710  0.00  0.00    +0.000 C 
ATOM     28  C   UNL     1      -4.043  13.070  23.845  0.00  0.00    +0.000 C 
ATOM     29  H   UNL     1      -5.475  16.145  24.109  0.00  0.00    +0.000 HD
ENDBRANCH  20  23
ENDBRANCH   6  17
TORSDOF 3
ENDMDL
MODEL 6
REMARK VINA RESULT:      -7.6      1.465      2.270
REMARK  Name = 
REMARK  5 active torsions:
REMARK  status: ('A' for Active; 'I' for Inactive)
REMARK    1  A    between atoms: C_1  and  C_2
REMARK    2  A    between atoms: C_3  and  C_4
REMARK    3  A    between atoms: N_9  and  C_10
REMARK    4  A    between atoms: C_13  and  N_14
REMARK    5  A    between atoms: N_26  and  C_27
REMARK                            x       y       z     vdW  Elec       q    Type
REMARK                         _______ _______ _______ _____ _____    ______ ____
ROOT
ATOM      1  C   UNL     1       3.285   6.196  18.883  0.00  0.00    +0.000 A 
ATOM      2  C   UNL     1       2.838   5.329  19.860  0.00  0.00    +0.000 A 
ATOM      3  C   UNL     1       1.902   5.816  20.729  0.00  0.00    +0.000 A 
ATOM      4  N   UNL     1       1.433   7.062  20.662  0.00  0.00    +0.000 NA
ATOM      5  C   UNL     1       1.909   7.865  19.699  0.00  0.00    +0.000 A 
ATOM      6  N   UNL     1       1.420   9.166  19.588  0.00  0.00    +0.000 N 
ATOM      7  N   UNL     1       2.819   7.466  18.790  0.00  0.00    +0.000 NA
ATOM      8  H   UNL     1       1.775   9.624  18.761  0.00  0.00    +0.000 HD
ENDROOT
BRANCH   1  11
ATOM      9  C   UNL     1       3.347   3.520  17.077  0.00  0.00    +0.000 C 
ATOM     10  C   UNL     1       4.336   4.645  17.124  0.00  0.00    +0.000 A 
ATOM     11  C   UNL     1       4.286   5.758  17.885  0.00  0.00    +0.000 A 
ATOM     12  S   UNL     1       5.670   6.794  17.581  0.00  0.00    +0.000 S 
ATOM     13  C   UNL     1       6.302   5.697  16.364  0.00  0.00    +0.000 A 
ATOM     14  O   UNL     1       7.320   5.914  15.727  0.00  0.00    +0.000 OA
ATOM     15  N   UNL     1       5.448   4.610  16.280  0.00  0.00    +0.000 N 
ATOM     16  C   UNL     1       5.728   3.534  15.355  0.00  0.00    +0.000 C 
ENDBRANCH   1  11
BRANCH   6  17
ATOM     17  C   UNL     1       0.626   9.927  20.458  0.00  0.00    +0.000 A 
ATOM     18  C   UNL     1       0.492   9.641  21.822  0.00  0.00    +0.000 A 
ATOM     19  C   UNL     1      -0.327  10.411  22.659  0.00  0.00    +0.000 A 
ATOM     20  C   UNL     1      -1.062  11.486  22.162  0.00  0.00    +0.000 A 
ATOM     21  C   UNL     1      -0.978  11.735  20.786  0.00  0.00    +0.000 A 
ATOM     22  C   UNL     1      -0.143  10.977  19.949  0.00  0.00    +0.000 A 
BRANCH  20  23
ATOM     23  N   UNL     1      -1.793  12.350  22.965  0.00  0.00    +0.000 N 
ATOM     24  C   UNL     1      -3.258  12.238  23.000  0.00  0.00    +0.000 C 
ATOM     25  C   UNL     1      -3.775  12.876  24.310  0.00  0.00    +0.000 C 
ATOM     26  N   UNL     1      -3.358  14.284  24.483  0.00  0.00    +0.000 NA
ATOM     27  C   UNL     1      -1.889  14.390  24.339  0.00  0.00    +0.000 C 
ATOM     28  C   UNL     1      -1.336  13.750  23.041  0.00  0.00    +0.000 C 
ATOM     29  H   UNL     1      -3.617  14.586  25.423  0.00  0.00    +0.000 HD
ENDBRANCH  20  23
ENDBRANCH   6  17
TORSDOF 3
ENDMDL
MODEL 7
REMARK VINA RESULT:      -7.6      1.761      2.531
REMARK  Name = 
REMARK  5 active torsions:
REMARK  status: ('A' for Active; 'I' for Inactive)
REMARK    1  A    between atoms: C_1  and  C_2
REMARK    2  A    between atoms: C_3  and  C_4
REMARK    3  A    between atoms: N_9  and  C_10
REMARK    4  A    between atoms: C_13  and  N_14
REMARK    5  A    between atoms: N_26  and  C_27
REMARK                            x       y       z     vdW  Elec       q    Type
REMARK                         _______ _______ _______ _____ _____    ______ ____
ROOT
ATOM      1  C   UNL     1       3.476   6.411  18.536  0.00  0.00    +0.000 A 
ATOM      2  C   UNL     1       3.116   5.690  19.657  0.00  0.00    +0.000 A 
ATOM      3  C   UNL     1       2.136   6.231  20.443  0.00  0.00    +0.000 A 
ATOM      4  N   UNL     1       1.548   7.395  20.167  0.00  0.00    +0.000 NA
ATOM      5  C   UNL     1       1.943   8.058  19.070  0.00  0.00    +0.000 A 
ATOM      6  N   UNL     1       1.329   9.265  18.741  0.00  0.00    +0.000 N 
ATOM      7  N   UNL     1       2.887   7.594  18.230  0.00  0.00    +0.000 NA
ATOM      8  H   UNL     1       1.638   9.603  17.841  0.00  0.00    +0.000 HD
ENDROOT
BRANCH   1  11
ATOM      9  C   UNL     1       3.582   3.631  16.897  0.00  0.00    +0.000 C 
ATOM     10  C   UNL     1       4.584   4.745  16.923  0.00  0.00    +0.000 A 
ATOM     11  C   UNL     1       4.514   5.903  17.613  0.00  0.00    +0.000 A 
ATOM     12  S   UNL     1       5.925   6.902  17.313  0.00  0.00    +0.000 S 
ATOM     13  C   UNL     1       6.597   5.727  16.193  0.00  0.00    +0.000 A 
ATOM     14  O   UNL     1       7.645   5.894  15.593  0.00  0.00    +0.000 OA
ATOM     15  N   UNL     1       5.732   4.647  16.135  0.00  0.00    +0.000 N 
ATOM     16  C   UNL     1       6.038   3.515  15.289  0.00  0.00    +0.000 C 
ENDBRANCH   1  11
BRANCH   6  17
ATOM     17  C   UNL     1       0.464  10.087  19.478  0.00  0.00    +0.000 A 
ATOM     18  C   UNL     1      -0.724  10.611  18.958  0.00  0.00    +0.000 A 
ATOM     19  C   UNL     1      -1.555  11.447  19.717  0.00  0.00    +0.000 A 
ATOM     20  C   UNL     1      -1.219  11.811  21.020  0.00  0.00    +0.000 A 
ATOM     21  C   UNL     1       0.001  11.339  21.520  0.00  0.00    +0.000 A 
ATOM     22  C   UNL     1       0.825  10.485  20.768  0.00  0.00    +0.000 A 
BRANCH  20  23
ATOM     23  N   UNL     1      -2.060  12.537  21.853  0.00  0.00    +0.000 N 
ATOM     24  C   UNL     1      -1.953  14.002  21.886  0.00  0.00    +0.000 C 
ATOM     25  C   UNL     1      -3.284  14.586  22.414  0.00  0.00    +0.000 C 
ATOM     26  N   UNL     1      -3.670  14.064  23.743  0.00  0.00    +0.000 NA
ATOM     27  C   UNL     1      -3.667  12.583  23.715  0.00  0.00    +0.000 C 
ATOM     28  C   UNL     1      -2.352  11.965  23.181  0.00  0.00    +0.000 C 
ATOM     29  H   UNL     1      -4.614  14.385  23.956  0.00  0.00    +0.000 HD
ENDBRANCH  20  23
ENDBRANCH   6  17
TORSDOF 3
ENDMDL
MODEL 8
REMARK VINA RESULT:      -7.5      4.252     10.352
REMARK  Name = 
REMARK  5 active torsions:
REMARK  status: ('A' for Active; 'I' for Inactive)
REMARK    1  A    between atoms: C_1  and  C_2
REMARK    2  A    between atoms: C_3  and  C_4
REMARK    3  A    between atoms: N_9  and  C_10
REMARK    4  A    between atoms: C_13  and  N_14
REMARK    5  A    between atoms: N_26  and  C_27
REMARK                            x       y       z     vdW  Elec       q    Type
REMARK                         _______ _______ _______ _____ _____    ______ ____
ROOT
ATOM      1  C   UNL     1      -1.708  12.371  20.566  0.00  0.00    +0.000 A 
ATOM      2  C   UNL     1      -2.441  12.114  19.425  0.00  0.00    +0.000 A 
ATOM      3  C   UNL     1      -2.036  11.053  18.663  0.00  0.00    +0.000 A 
ATOM      4  N   UNL     1      -0.985  10.296  18.979  0.00  0.00    +0.000 NA
ATOM      5  C   UNL     1      -0.303  10.596  20.094  0.00  0.00    +0.000 A 
ATOM      6  N   UNL     1       0.785   9.807  20.465  0.00  0.00    +0.000 N 
ATOM      7  N   UNL     1      -0.640  11.610  20.913  0.00  0.00    +0.000 NA
ATOM      8  H   UNL     1       1.139  10.070  21.373  0.00  0.00    +0.000 HD
ENDROOT
BRANCH   1  11
ATOM      9  C   UNL     1      -3.143  12.286  23.457  0.00  0.00    +0.000 C 
ATOM     10  C   UNL     1      -2.681  13.476  22.672  0.00  0.00    +0.000 A 
ATOM     11  C   UNL     1      -2.077  13.486  21.465  0.00  0.00    +0.000 A 
ATOM     12  S   UNL     1      -1.711  15.125  20.956  0.00  0.00    +0.000 S 
ATOM     13  C   UNL     1      -2.362  15.799  22.442  0.00  0.00    +0.000 A 
ATOM     14  O   UNL     1      -2.360  16.992  22.696  0.00  0.00    +0.000 OA
ATOM     15  N   UNL     1      -2.836  14.753  23.215  0.00  0.00    +0.000 N 
ATOM     16  C   UNL     1      -3.440  15.016  24.503  0.00  0.00    +0.000 C 
ENDBRANCH   1  11
BRANCH   6  17
ATOM     17  C   UNL     1       1.486   8.818  19.760  0.00  0.00    +0.000 A 
ATOM     18  C   UNL     1       1.874   8.958  18.423  0.00  0.00    +0.000 A 
ATOM     19  C   UNL     1       2.555   7.940  17.743  0.00  0.00    +0.000 A 
ATOM     20  C   UNL     1       2.858   6.730  18.366  0.00  0.00    +0.000 A 
ATOM     21  C   UNL     1       2.415   6.564  19.684  0.00  0.00    +0.000 A 
ATOM     22  C   UNL     1       1.749   7.590  20.374  0.00  0.00    +0.000 A 
BRANCH  20  23
ATOM     23  N   UNL     1       3.631   5.739  17.778  0.00  0.00    +0.000 N 
ATOM     24  C   UNL     1       3.836   4.467  18.487  0.00  0.00    +0.000 C 
ATOM     25  C   UNL     1       4.223   3.381  17.457  0.00  0.00    +0.000 C 
ATOM     26  N   UNL     1       5.418   3.727  16.657  0.00  0.00    +0.000 NA
ATOM     27  C   UNL     1       5.233   5.059  16.038  0.00  0.00    +0.000 C 
ATOM     28  C   UNL     1       4.834   6.170  17.041  0.00  0.00    +0.000 C 
ATOM     29  H   UNL     1       5.523   3.034  15.916  0.00  0.00    +0.000 HD
ENDBRANCH  20  23
ENDBRANCH   6  17
TORSDOF 3
ENDMDL
MODEL 9
REMARK VINA RESULT:      -7.5      4.708     10.205
REMARK  Name = 
REMARK  5 active torsions:
REMARK  status: ('A' for Active; 'I' for Inactive)
REMARK    1  A    between atoms: C_1  and  C_2
REMARK    2  A    between atoms: C_3  and  C_4
REMARK    3  A    between atoms: N_9  and  C_10
REMARK    4  A    between atoms: C_13  and  N_14
REMARK    5  A    between atoms: N_26  and  C_27
REMARK                            x       y       z     vdW  Elec       q    Type
REMARK                         _______ _______ _______ _____ _____    ______ ____
ROOT
ATOM      1  C   UNL     1      -0.719  12.516  19.380  0.00  0.00    +0.000 A 
ATOM      2  C   UNL     1      -1.598  12.045  18.425  0.00  0.00    +0.000 A 
ATOM      3  C   UNL     1      -1.478  10.728  18.079  0.00  0.00    +0.000 A 
ATOM      4  N   UNL     1      -0.562   9.921  18.615  0.00  0.00    +0.000 NA
ATOM      5  C   UNL     1       0.273  10.433  19.531  0.00  0.00    +0.000 A 
ATOM      6  N   UNL     1       1.225   9.607  20.128  0.00  0.00    +0.000 N 
ATOM      7  N   UNL     1       0.216  11.713  19.945  0.00  0.00    +0.000 NA
ATOM      8  H   UNL     1       1.711  10.084  20.873  0.00  0.00    +0.000 HD
ENDROOT
BRANCH   1  11
ATOM      9  C   UNL     1       1.326  14.948  18.807  0.00  0.00    +0.000 C 
ATOM     10  C   UNL     1       0.063  14.953  19.613  0.00  0.00    +0.000 A 
ATOM     11  C   UNL     1      -0.780  13.922  19.834  0.00  0.00    +0.000 A 
ATOM     12  S   UNL     1      -2.135  14.419  20.833  0.00  0.00    +0.000 S 
ATOM     13  C   UNL     1      -1.551  16.074  20.912  0.00  0.00    +0.000 A 
ATOM     14  O   UNL     1      -2.140  16.967  21.497  0.00  0.00    +0.000 OA
ATOM     15  N   UNL     1      -0.363  16.144  20.205  0.00  0.00    +0.000 N 
ATOM     16  C   UNL     1       0.353  17.397  20.106  0.00  0.00    +0.000 C 
ENDBRANCH   1  11
BRANCH   6  17
ATOM     17  C   UNL     1       1.653   8.313  19.801  0.00  0.00    +0.000 A 
ATOM     18  C   UNL     1       2.230   7.983  18.570  0.00  0.00    +0.000 A 
ATOM     19  C   UNL     1       2.627   6.673  18.269  0.00  0.00    +0.000 A 
ATOM     20  C   UNL     1       2.445   5.635  19.181  0.00  0.00    +0.000 A 
ATOM     21  C   UNL     1       1.809   5.950  20.389  0.00  0.00    +0.000 A 
ATOM     22  C   UNL     1       1.428   7.266  20.699  0.00  0.00    +0.000 A 
BRANCH  20  23
ATOM     23  N   UNL     1       2.925   4.348  18.981  0.00  0.00    +0.000 N 
ATOM     24  C   UNL     1       4.271   3.998  19.456  0.00  0.00    +0.000 C 
ATOM     25  C   UNL     1       4.357   2.463  19.625  0.00  0.00    +0.000 C 
ATOM     26  N   UNL     1       4.032   1.717  18.390  0.00  0.00    +0.000 NA
ATOM     27  C   UNL     1       2.719   2.162  17.870  0.00  0.00    +0.000 C 
ATOM     28  C   UNL     1       2.596   3.697  17.699  0.00  0.00    +0.000 C 
ATOM     29  H   UNL     1       3.975   0.725  18.617  0.00  0.00    +0.000 HD
ENDBRANCH  20  23
ENDBRANCH   6  17
TORSDOF 3
ENDMDL
