MODEL 1
REMARK VINA RESULT:      -9.8      0.000      0.000
REMARK  Name = 
REMARK  6 active torsions:
REMARK  status: ('A' for Active; 'I' for Inactive)
REMARK    1  A    between atoms: C_1  and  C_2
REMARK    2  A    between atoms: C_5  and  C_6
REMARK    3  A    between atoms: C_15  and  N_16
REMARK    4  A    between atoms: C_17  and  C_19
REMARK    5  A    between atoms: N_22  and  C_23
REMARK    6  A    between atoms: C_29  and  N_30
REMARK                            x       y       z     vdW  Elec       q    Type
REMARK                         _______ _______ _______ _____ _____    ______ ____
ROOT
ATOM      1  N   UNL     1       2.068   6.893  20.412  0.00  0.00    +0.000 N 
ATOM      2  C   UNL     1       1.627   8.149  20.002  0.00  0.00    +0.000 C 
ATOM      3  O   UNL     1       1.758   8.605  18.873  0.00  0.00    +0.000 OA
ATOM      4  H   UNL     1       2.082   6.733  21.413  0.00  0.00    +0.000 HD
ENDROOT
BRANCH   1  11
ATOM      5  C   UNL     1       0.923   4.133  20.488  0.00  0.00    +0.000 C 
ATOM      6  C   UNL     1       2.057   4.566  19.599  0.00  0.00    +0.000 A 
ATOM      7  C   UNL     1       2.587   3.587  18.738  0.00  0.00    +0.000 A 
ATOM      8  C   UNL     1       3.621   3.886  17.859  0.00  0.00    +0.000 A 
ATOM      9  C   UNL     1       4.152   5.178  17.796  0.00  0.00    +0.000 A 
ATOM     10  C   UNL     1       3.625   6.158  18.642  0.00  0.00    +0.000 A 
ATOM     11  C   UNL     1       2.593   5.874  19.563  0.00  0.00    +0.000 A 
BRANCH   9  12
ATOM     12  C   UNL     1       5.213   5.427  16.775  0.00  0.00    +0.000 C 
ATOM     13  O   UNL     1       5.950   6.390  16.987  0.00  0.00    +0.000 OA
ATOM     14  N   UNL     1       5.287   4.601  15.668  0.00  0.00    +0.000 N 
ATOM     15  C   UNL     1       6.277   4.755  14.702  0.00  0.00    +0.000 A 
ATOM     16  C   UNL     1       6.310   4.070  13.461  0.00  0.00    +0.000 A 
ATOM     17  C   UNL     1       7.424   4.555  12.825  0.00  0.00    +0.000 A 
ATOM     18  O   UNL     1       8.047   5.444  13.630  0.00  0.00    +0.000 OA
ATOM     19  N   UNL     1       7.338   5.566  14.803  0.00  0.00    +0.000 NA
ATOM     20  H   UNL     1       4.583   3.904  15.485  0.00  0.00    +0.000 HD
ENDBRANCH   9  12
ENDBRANCH   1  11
BRANCH   2  21
ATOM     21  C   UNL     1       0.971   8.961  21.011  0.00  0.00    +0.000 A 
ATOM     22  C   UNL     1       1.342   9.010  22.373  0.00  0.00    +0.000 A 
ATOM     23  N   UNL     1       0.720   9.967  23.055  0.00  0.00    +0.000 NA
ATOM     24  N   UNL     1      -0.127  10.532  22.157  0.00  0.00    +0.000 N 
ATOM     25  C   UNL     1       0.019   9.957  20.877  0.00  0.00    +0.000 A 
BRANCH  24  26
ATOM     26  C   UNL     1      -0.934  11.637  22.546  0.00  0.00    +0.000 A 
ATOM     27  C   UNL     1      -0.523  12.940  22.225  0.00  0.00    +0.000 A 
ATOM     28  C   UNL     1      -1.354  14.025  22.516  0.00  0.00    +0.000 A 
ATOM     29  C   UNL     1      -2.572  13.817  23.162  0.00  0.00    +0.000 A 
ATOM     30  C   UNL     1      -2.960  12.529  23.528  0.00  0.00    +0.000 A 
ATOM     31  C   UNL     1      -2.144  11.439  23.221  0.00  0.00    +0.000 A 
ENDBRANCH  24  26
BRANCH  25  32
ATOM     32  N   UNL     1      -0.557  10.453  19.740  0.00  0.00    +0.000 N 
ATOM     33  H   UNL     1      -1.528  10.186  19.552  0.00  0.00    +0.000 HD
ATOM     34  H   UNL     1      -0.449  11.447  19.545  0.00  0.00    +0.000 HD
ENDBRANCH  25  32
ENDBRANCH   2  21
TORSDOF 5
ENDMDL
MODEL 2
REMARK VINA RESULT:      -8.8      1.109      1.351
REMARK  Name = 
REMARK  6 active torsions:
REMARK  status: ('A' for Active; 'I' for Inactive)
REMARK    1  A    between atoms: C_1  and  C_2
REMARK    2  A    between atoms: C_5  and  C_6
REMARK    3  A    between atoms: C_15  and  N_16
REMARK    4  A    between atoms: C_17  and  C_19
REMARK    5  A    between atoms: N_22  and  C_23
REMARK    6  A    between atoms: C_29  and  N_30
REMARK                            x       y       z     vdW  Elec       q    Type
REMARK                         _______ _______ _______ _____ _____    ______ ____
ROOT
ATOM      1  N   UNL     1       2.367   7.264  19.776  0.00  0.00    +0.000 N 
ATOM      2  C   UNL     1       1.767   8.360  19.161  0.00  0.00    +0.000 C 
ATOM      3  O   UNL     1       1.783   8.587  17.957  0.00  0.00    +0.000 OA
ATOM      4  H   UNL     1       2.455   7.315  20.785  0.00  0.00    +0.000 HD
ENDROOT
BRANCH   1  11
ATOM      5  C   UNL     1       1.644   4.477  20.576  0.00  0.00    +0.000 C 
ATOM      6  C   UNL     1       2.619   4.829  19.485  0.00  0.00    +0.000 A 
ATOM      7  C   UNL     1       3.204   3.752  18.796  0.00  0.00    +0.000 A 
ATOM      8  C   UNL     1       4.101   3.965  17.755  0.00  0.00    +0.000 A 
ATOM      9  C   UNL     1       4.432   5.263  17.356  0.00  0.00    +0.000 A 
ATOM     10  C   UNL     1       3.848   6.339  18.030  0.00  0.00    +0.000 A 
ATOM     11  C   UNL     1       2.954   6.150  19.107  0.00  0.00    +0.000 A 
BRANCH   9  12
ATOM     12  C   UNL     1       5.349   5.399  16.185  0.00  0.00    +0.000 C 
ATOM     13  O   UNL     1       6.045   6.415  16.160  0.00  0.00    +0.000 OA
ATOM     14  N   UNL     1       5.345   4.418  15.210  0.00  0.00    +0.000 N 
ATOM     15  C   UNL     1       6.204   4.465  14.116  0.00  0.00    +0.000 A 
ATOM     16  C   UNL     1       6.135   3.601  12.994  0.00  0.00    +0.000 A 
ATOM     17  C   UNL     1       7.135   4.031  12.160  0.00  0.00    +0.000 A 
ATOM     18  O   UNL     1       7.791   5.059  12.743  0.00  0.00    +0.000 OA
ATOM     19  N   UNL     1       7.217   5.327  13.964  0.00  0.00    +0.000 NA
ATOM     20  H   UNL     1       4.668   3.671  15.220  0.00  0.00    +0.000 HD
ENDBRANCH   9  12
ENDBRANCH   1  11
BRANCH   2  21
ATOM     21  C   UNL     1       1.081   9.293  20.037  0.00  0.00    +0.000 A 
ATOM     22  C   UNL     1       1.150   9.274  21.448  0.00  0.00    +0.000 A 
ATOM     23  N   UNL     1       0.596  10.340  22.018  0.00  0.00    +0.000 NA
ATOM     24  N   UNL     1       0.093  11.059  20.982  0.00  0.00    +0.000 N 
ATOM     25  C   UNL     1       0.397  10.460  19.741  0.00  0.00    +0.000 A 
BRANCH  24  26
ATOM     26  C   UNL     1      -0.544  12.306  21.232  0.00  0.00    +0.000 A 
ATOM     27  C   UNL     1      -1.914  12.449  20.957  0.00  0.00    +0.000 A 
ATOM     28  C   UNL     1      -2.571  13.637  21.289  0.00  0.00    +0.000 A 
ATOM     29  C   UNL     1      -1.858  14.695  21.853  0.00  0.00    +0.000 A 
ATOM     30  C   UNL     1      -0.488  14.573  22.080  0.00  0.00    +0.000 A 
ATOM     31  C   UNL     1       0.170  13.382  21.771  0.00  0.00    +0.000 A 
ENDBRANCH  24  26
BRANCH  25  32
ATOM     32  N   UNL     1       0.192  11.055  18.527  0.00  0.00    +0.000 N 
ATOM     33  H   UNL     1       0.084  12.073  18.517  0.00  0.00    +0.000 HD
ATOM     34  H   UNL     1       0.799  10.785  17.754  0.00  0.00    +0.000 HD
ENDBRANCH  25  32
ENDBRANCH   2  21
TORSDOF 5
ENDMDL
MODEL 3
REMARK VINA RESULT:      -8.8      1.374      1.755
REMARK  Name = 
REMARK  6 active torsions:
REMARK  status: ('A' for Active; 'I' for Inactive)
REMARK    1  A    between atoms: C_1  and  C_2
REMARK    2  A    between atoms: C_5  and  C_6
REMARK    3  A    between atoms: C_15  and  N_16
REMARK    4  A    between atoms: C_17  and  C_19
REMARK    5  A    between atoms: N_22  and  C_23
REMARK    6  A    between atoms: C_29  and  N_30
REMARK                            x       y       z     vdW  Elec       q    Type
REMARK                         _______ _______ _______ _____ _____    ______ ____
ROOT
ATOM      1  N   UNL     1       2.260   8.028  19.283  0.00  0.00    +0.000 N 
ATOM      2  C   UNL     1       1.801   9.087  18.503  0.00  0.00    +0.000 C 
ATOM      3  O   UNL     1       1.970   9.195  17.295  0.00  0.00    +0.000 OA
ATOM      4  H   UNL     1       2.233   8.172  20.286  0.00  0.00    +0.000 HD
ENDROOT
BRANCH   1  11
ATOM      5  C   UNL     1       1.507   5.387  20.464  0.00  0.00    +0.000 C 
ATOM      6  C   UNL     1       2.504   5.576  19.352  0.00  0.00    +0.000 A 
ATOM      7  C   UNL     1       3.096   4.409  18.837  0.00  0.00    +0.000 A 
ATOM      8  C   UNL     1       4.012   4.467  17.794  0.00  0.00    +0.000 A 
ATOM      9  C   UNL     1       4.358   5.692  17.217  0.00  0.00    +0.000 A 
ATOM     10  C   UNL     1       3.767   6.856  17.717  0.00  0.00    +0.000 A 
ATOM     11  C   UNL     1       2.853   6.827  18.794  0.00  0.00    +0.000 A 
BRANCH   9  12
ATOM     12  C   UNL     1       5.297   5.655  16.056  0.00  0.00    +0.000 C 
ATOM     13  O   UNL     1       6.083   6.599  15.968  0.00  0.00    +0.000 OA
ATOM     14  N   UNL     1       5.214   4.606  15.158  0.00  0.00    +0.000 N 
ATOM     15  C   UNL     1       6.087   4.492  14.080  0.00  0.00    +0.000 A 
ATOM     16  C   UNL     1       5.952   3.554  13.025  0.00  0.00    +0.000 A 
ATOM     17  C   UNL     1       6.996   3.827  12.180  0.00  0.00    +0.000 A 
ATOM     18  O   UNL     1       7.737   4.834  12.695  0.00  0.00    +0.000 OA
ATOM     19  N   UNL     1       7.176   5.245  13.882  0.00  0.00    +0.000 NA
ATOM     20  H   UNL     1       4.473   3.926  15.213  0.00  0.00    +0.000 HD
ENDBRANCH   9  12
ENDBRANCH   1  11
BRANCH   2  21
ATOM     21  C   UNL     1       1.075  10.133  19.202  0.00  0.00    +0.000 A 
ATOM     22  C   UNL     1       1.049  11.492  18.816  0.00  0.00    +0.000 A 
ATOM     23  N   UNL     1       0.165  12.216  19.496  0.00  0.00    +0.000 NA
ATOM     24  N   UNL     1      -0.370  11.349  20.393  0.00  0.00    +0.000 N 
ATOM     25  C   UNL     1       0.146  10.046  20.224  0.00  0.00    +0.000 A 
BRANCH  24  26
ATOM     26  C   UNL     1      -1.399  11.788  21.272  0.00  0.00    +0.000 A 
ATOM     27  C   UNL     1      -2.499  12.488  20.752  0.00  0.00    +0.000 A 
ATOM     28  C   UNL     1      -3.561  12.838  21.590  0.00  0.00    +0.000 A 
ATOM     29  C   UNL     1      -3.509  12.529  22.950  0.00  0.00    +0.000 A 
ATOM     30  C   UNL     1      -2.394  11.879  23.477  0.00  0.00    +0.000 A 
ATOM     31  C   UNL     1      -1.340  11.507  22.642  0.00  0.00    +0.000 A 
ENDBRANCH  24  26
BRANCH  25  32
ATOM     32  N   UNL     1      -0.348   8.935  20.849  0.00  0.00    +0.000 N 
ATOM     33  H   UNL     1      -1.365   8.823  20.870  0.00  0.00    +0.000 HD
ATOM     34  H   UNL     1       0.074   8.034  20.626  0.00  0.00    +0.000 HD
ENDBRANCH  25  32
ENDBRANCH   2  21
TORSDOF 5
ENDMDL
MODEL 4
REMARK VINA RESULT:      -8.4      3.512     11.374
REMARK  Name = 
REMARK  6 active torsions:
REMARK  status: ('A' for Active; 'I' for Inactive)
REMARK    1  A    between atoms: C_1  and  C_2
REMARK    2  A    between atoms: C_5  and  C_6
REMARK    3  A    between atoms: C_15  and  N_16
REMARK    4  A    between atoms: C_17  and  C_19
REMARK    5  A    between atoms: N_22  and  C_23
REMARK    6  A    between atoms: C_29  and  N_30
REMARK                            x       y       z     vdW  Elec       q    Type
REMARK                         _______ _______ _______ _____ _____    ______ ____
ROOT
ATOM      1  N   UNL     1       0.632  11.147  20.333  0.00  0.00    +0.000 N 
ATOM      2  C   UNL     1       0.809   9.796  20.619  0.00  0.00    +0.000 C 
ATOM      3  O   UNL     1       0.534   9.262  21.686  0.00  0.00    +0.000 OA
ATOM      4  H   UNL     1       1.093  11.488  19.496  0.00  0.00    +0.000 HD
ENDROOT
BRANCH   1  11
ATOM      5  C   UNL     1       1.865  13.815  20.876  0.00  0.00    +0.000 C 
ATOM      6  C   UNL     1       0.541  13.356  21.424  0.00  0.00    +0.000 A 
ATOM      7  C   UNL     1      -0.154  14.273  22.233  0.00  0.00    +0.000 A 
ATOM      8  C   UNL     1      -1.397  13.960  22.771  0.00  0.00    +0.000 A 
ATOM      9  C   UNL     1      -1.996  12.725  22.508  0.00  0.00    +0.000 A 
ATOM     10  C   UNL     1      -1.315  11.811  21.699  0.00  0.00    +0.000 A 
ATOM     11  C   UNL     1      -0.040  12.095  21.161  0.00  0.00    +0.000 A 
BRANCH   9  12
ATOM     12  C   UNL     1      -3.361  12.499  23.070  0.00  0.00    +0.000 C 
ATOM     13  O   UNL     1      -3.441  11.672  23.978  0.00  0.00    +0.000 OA
ATOM     14  N   UNL     1      -4.432  13.194  22.535  0.00  0.00    +0.000 N 
ATOM     15  C   UNL     1      -5.721  13.060  23.041  0.00  0.00    +0.000 A 
ATOM     16  C   UNL     1      -6.887  13.594  22.437  0.00  0.00    +0.000 A 
ATOM     17  C   UNL     1      -7.917  13.188  23.247  0.00  0.00    +0.000 A 
ATOM     18  O   UNL     1      -7.416  12.487  24.289  0.00  0.00    +0.000 OA
ATOM     19  N   UNL     1      -6.048  12.411  24.166  0.00  0.00    +0.000 NA
ATOM     20  H   UNL     1      -4.326  13.768  21.713  0.00  0.00    +0.000 HD
ENDBRANCH   9  12
ENDBRANCH   1  11
BRANCH   2  21
ATOM     21  C   UNL     1       1.371   8.982  19.556  0.00  0.00    +0.000 A 
ATOM     22  C   UNL     1       1.592   9.425  18.232  0.00  0.00    +0.000 A 
ATOM     23  N   UNL     1       2.289   8.564  17.497  0.00  0.00    +0.000 NA
ATOM     24  N   UNL     1       2.490   7.500  18.316  0.00  0.00    +0.000 N 
ATOM     25  C   UNL     1       1.961   7.731  19.604  0.00  0.00    +0.000 A 
BRANCH  24  26
ATOM     26  C   UNL     1       3.251   6.389  17.856  0.00  0.00    +0.000 A 
ATOM     27  C   UNL     1       4.568   6.590  17.414  0.00  0.00    +0.000 A 
ATOM     28  C   UNL     1       5.357   5.494  17.054  0.00  0.00    +0.000 A 
ATOM     29  C   UNL     1       4.822   4.206  17.092  0.00  0.00    +0.000 A 
ATOM     30  C   UNL     1       3.498   4.010  17.482  0.00  0.00    +0.000 A 
ATOM     31  C   UNL     1       2.712   5.097  17.864  0.00  0.00    +0.000 A 
ENDBRANCH  24  26
BRANCH  25  32
ATOM     32  N   UNL     1       2.185   6.924  20.685  0.00  0.00    +0.000 N 
ATOM     33  H   UNL     1       2.706   6.058  20.522  0.00  0.00    +0.000 HD
ATOM     34  H   UNL     1       2.531   7.356  21.540  0.00  0.00    +0.000 HD
ENDBRANCH  25  32
ENDBRANCH   2  21
TORSDOF 5
ENDMDL
MODEL 5
REMARK VINA RESULT:      -8.2      1.286      1.934
REMARK  Name = 
REMARK  6 active torsions:
REMARK  status: ('A' for Active; 'I' for Inactive)
REMARK    1  A    between atoms: C_1  and  C_2
REMARK    2  A    between atoms: C_5  and  C_6
REMARK    3  A    between atoms: C_15  and  N_16
REMARK    4  A    between atoms: C_17  and  C_19
REMARK    5  A    between atoms: N_22  and  C_23
REMARK    6  A    between atoms: C_29  and  N_30
REMARK                            x       y       z     vdW  Elec       q    Type
REMARK                         _______ _______ _______ _____ _____    ______ ____
ROOT
ATOM      1  N   UNL     1       2.024   7.864  19.180  0.00  0.00    +0.000 N 
ATOM      2  C   UNL     1       1.713   8.928  18.337  0.00  0.00    +0.000 C 
ATOM      3  O   UNL     1       2.210   9.120  17.234  0.00  0.00    +0.000 OA
ATOM      4  H   UNL     1       1.698   7.945  20.136  0.00  0.00    +0.000 HD
ENDROOT
BRANCH   1  11
ATOM      5  C   UNL     1       1.859   5.344  20.780  0.00  0.00    +0.000 C 
ATOM      6  C   UNL     1       2.769   5.551  19.599  0.00  0.00    +0.000 A 
ATOM      7  C   UNL     1       3.576   4.459  19.232  0.00  0.00    +0.000 A 
ATOM      8  C   UNL     1       4.436   4.535  18.142  0.00  0.00    +0.000 A 
ATOM      9  C   UNL     1       4.508   5.698  17.372  0.00  0.00    +0.000 A 
ATOM     10  C   UNL     1       3.703   6.785  17.725  0.00  0.00    +0.000 A 
ATOM     11  C   UNL     1       2.840   6.743  18.843  0.00  0.00    +0.000 A 
BRANCH   9  12
ATOM     12  C   UNL     1       5.407   5.668  16.180  0.00  0.00    +0.000 C 
ATOM     13  O   UNL     1       6.211   6.596  16.086  0.00  0.00    +0.000 OA
ATOM     14  N   UNL     1       5.271   4.642  15.261  0.00  0.00    +0.000 N 
ATOM     15  C   UNL     1       6.104   4.534  14.152  0.00  0.00    +0.000 A 
ATOM     16  C   UNL     1       5.913   3.624  13.081  0.00  0.00    +0.000 A 
ATOM     17  C   UNL     1       6.935   3.894  12.207  0.00  0.00    +0.000 A 
ATOM     18  O   UNL     1       7.715   4.872  12.720  0.00  0.00    +0.000 OA
ATOM     19  N   UNL     1       7.203   5.268  13.934  0.00  0.00    +0.000 NA
ATOM     20  H   UNL     1       4.516   3.977  15.325  0.00  0.00    +0.000 HD
ENDBRANCH   9  12
ENDBRANCH   1  11
BRANCH   2  21
ATOM     21  C   UNL     1       0.725   9.871  18.830  0.00  0.00    +0.000 A 
ATOM     22  C   UNL     1      -0.404  10.309  18.104  0.00  0.00    +0.000 A 
ATOM     23  N   UNL     1      -1.259  11.019  18.835  0.00  0.00    +0.000 NA
ATOM     24  N   UNL     1      -0.671  11.111  20.055  0.00  0.00    +0.000 N 
ATOM     25  C   UNL     1       0.542  10.392  20.100  0.00  0.00    +0.000 A 
BRANCH  24  26
ATOM     26  C   UNL     1      -1.343  11.783  21.114  0.00  0.00    +0.000 A 
ATOM     27  C   UNL     1      -1.376  11.201  22.390  0.00  0.00    +0.000 A 
ATOM     28  C   UNL     1      -1.948  11.896  23.459  0.00  0.00    +0.000 A 
ATOM     29  C   UNL     1      -2.524  13.149  23.248  0.00  0.00    +0.000 A 
ATOM     30  C   UNL     1      -2.538  13.707  21.971  0.00  0.00    +0.000 A 
ATOM     31  C   UNL     1      -1.949  13.027  20.904  0.00  0.00    +0.000 A 
ENDBRANCH  24  26
BRANCH  25  32
ATOM     32  N   UNL     1       1.249  10.145  21.244  0.00  0.00    +0.000 N 
ATOM     33  H   UNL     1       0.733  10.168  22.128  0.00  0.00    +0.000 HD
ATOM     34  H   UNL     1       1.875   9.341  21.254  0.00  0.00    +0.000 HD
ENDBRANCH  25  32
ENDBRANCH   2  21
TORSDOF 5
ENDMDL
MODEL 6
REMARK VINA RESULT:      -8.1      3.632     10.818
REMARK  Name = 
REMARK  6 active torsions:
REMARK  status: ('A' for Active; 'I' for Inactive)
REMARK    1  A    between atoms: C_1  and  C_2
REMARK    2  A    between atoms: C_5  and  C_6
REMARK    3  A    between atoms: C_15  and  N_16
REMARK    4  A    between atoms: C_17  and  C_19
REMARK    5  A    between atoms: N_22  and  C_23
REMARK    6  A    between atoms: C_29  and  N_30
REMARK                            x       y       z     vdW  Elec       q    Type
REMARK                         _______ _______ _______ _____ _____    ______ ____
ROOT
ATOM      1  N   UNL     1       1.333  10.073  18.820  0.00  0.00    +0.000 N 
ATOM      2  C   UNL     1       1.627   9.013  19.675  0.00  0.00    +0.000 C 
ATOM      3  O   UNL     1       1.515   9.043  20.894  0.00  0.00    +0.000 OA
ATOM      4  H   UNL     1       1.669   9.980  17.868  0.00  0.00    +0.000 HD
ENDROOT
BRANCH   1  11
ATOM      5  C   UNL     1       2.621  12.686  18.150  0.00  0.00    +0.000 C 
ATOM      6  C   UNL     1       1.315  12.537  18.884  0.00  0.00    +0.000 A 
ATOM      7  C   UNL     1       0.665  13.728  19.253  0.00  0.00    +0.000 A 
ATOM      8  C   UNL     1      -0.558  13.706  19.914  0.00  0.00    +0.000 A 
ATOM      9  C   UNL     1      -1.183  12.492  20.214  0.00  0.00    +0.000 A 
ATOM     10  C   UNL     1      -0.547  11.304  19.843  0.00  0.00    +0.000 A 
ATOM     11  C   UNL     1       0.708  11.299  19.194  0.00  0.00    +0.000 A 
BRANCH   9  12
ATOM     12  C   UNL     1      -2.526  12.562  20.863  0.00  0.00    +0.000 C 
ATOM     13  O   UNL     1      -3.482  12.735  20.108  0.00  0.00    +0.000 OA
ATOM     14  N   UNL     1      -2.613  12.457  22.241  0.00  0.00    +0.000 N 
ATOM     15  C   UNL     1      -3.837  12.473  22.902  0.00  0.00    +0.000 A 
ATOM     16  C   UNL     1      -3.996  12.551  24.309  0.00  0.00    +0.000 A 
ATOM     17  C   UNL     1      -5.353  12.579  24.506  0.00  0.00    +0.000 A 
ATOM     18  O   UNL     1      -5.980  12.488  23.312  0.00  0.00    +0.000 OA
ATOM     19  N   UNL     1      -5.037  12.416  22.311  0.00  0.00    +0.000 NA
ATOM     20  H   UNL     1      -1.788  12.437  22.818  0.00  0.00    +0.000 HD
ENDBRANCH   9  12
ENDBRANCH   1  11
BRANCH   2  21
ATOM     21  C   UNL     1       2.106   7.795  19.048  0.00  0.00    +0.000 A 
ATOM     22  C   UNL     1       2.873   7.746  17.862  0.00  0.00    +0.000 A 
ATOM     23  N   UNL     1       3.353   6.535  17.593  0.00  0.00    +0.000 NA
ATOM     24  N   UNL     1       2.854   5.744  18.577  0.00  0.00    +0.000 N 
ATOM     25  C   UNL     1       2.103   6.490  19.510  0.00  0.00    +0.000 A 
BRANCH  24  26
ATOM     26  C   UNL     1       3.206   4.366  18.622  0.00  0.00    +0.000 A 
ATOM     27  C   UNL     1       4.144   3.923  19.568  0.00  0.00    +0.000 A 
ATOM     28  C   UNL     1       4.424   2.559  19.686  0.00  0.00    +0.000 A 
ATOM     29  C   UNL     1       3.805   1.643  18.835  0.00  0.00    +0.000 A 
ATOM     30  C   UNL     1       2.912   2.086  17.860  0.00  0.00    +0.000 A 
ATOM     31  C   UNL     1       2.611   3.445  17.752  0.00  0.00    +0.000 A 
ENDBRANCH  24  26
BRANCH  25  32
ATOM     32  N   UNL     1       1.648   5.998  20.702  0.00  0.00    +0.000 N 
ATOM     33  H   UNL     1       2.349   5.770  21.412  0.00  0.00    +0.000 HD
ATOM     34  H   UNL     1       0.873   6.483  21.154  0.00  0.00    +0.000 HD
ENDBRANCH  25  32
ENDBRANCH   2  21
TORSDOF 5
ENDMDL
MODEL 7
REMARK VINA RESULT:      -8.0      3.821     11.273
REMARK  Name = 
REMARK  6 active torsions:
REMARK  status: ('A' for Active; 'I' for Inactive)
REMARK    1  A    between atoms: C_1  and  C_2
REMARK    2  A    between atoms: C_5  and  C_6
REMARK    3  A    between atoms: C_15  and  N_16
REMARK    4  A    between atoms: C_17  and  C_19
REMARK    5  A    between atoms: N_22  and  C_23
REMARK    6  A    between atoms: C_29  and  N_30
REMARK                            x       y       z     vdW  Elec       q    Type
REMARK                         _______ _______ _______ _____ _____    ______ ____
ROOT
ATOM      1  N   UNL     1       0.373  11.040  19.084  0.00  0.00    +0.000 N 
ATOM      2  C   UNL     1       0.970  10.061  19.874  0.00  0.00    +0.000 C 
ATOM      3  O   UNL     1       1.011  10.075  21.098  0.00  0.00    +0.000 OA
ATOM      4  H   UNL     1       0.596  11.008  18.095  0.00  0.00    +0.000 HD
ENDROOT
BRANCH   1  11
ATOM      5  C   UNL     1       1.473  13.819  19.094  0.00  0.00    +0.000 C 
ATOM      6  C   UNL     1       0.096  13.441  19.569  0.00  0.00    +0.000 A 
ATOM      7  C   UNL     1      -0.718  14.492  20.028  0.00  0.00    +0.000 A 
ATOM      8  C   UNL     1      -2.016  14.257  20.467  0.00  0.00    +0.000 A 
ATOM      9  C   UNL     1      -2.552  12.966  20.447  0.00  0.00    +0.000 A 
ATOM     10  C   UNL     1      -1.752  11.918  19.984  0.00  0.00    +0.000 A 
ATOM     11  C   UNL     1      -0.422  12.126  19.557  0.00  0.00    +0.000 A 
BRANCH   9  12
ATOM     12  C   UNL     1      -3.976  12.815  20.871  0.00  0.00    +0.000 C 
ATOM     13  O   UNL     1      -4.781  12.557  19.977  0.00  0.00    +0.000 OA
ATOM     14  N   UNL     1      -4.303  12.996  22.204  0.00  0.00    +0.000 N 
ATOM     15  C   UNL     1      -5.604  12.829  22.670  0.00  0.00    +0.000 A 
ATOM     16  C   UNL     1      -6.046  13.169  23.973  0.00  0.00    +0.000 A 
ATOM     17  C   UNL     1      -7.386  12.876  23.974  0.00  0.00    +0.000 A 
ATOM     18  O   UNL     1      -7.732  12.361  22.773  0.00  0.00    +0.000 OA
ATOM     19  N   UNL     1      -6.622  12.325  21.961  0.00  0.00    +0.000 NA
ATOM     20  H   UNL     1      -3.623  13.325  22.871  0.00  0.00    +0.000 HD
ENDBRANCH   9  12
ENDBRANCH   1  11
BRANCH   2  21
ATOM     21  C   UNL     1       1.589   8.953  19.168  0.00  0.00    +0.000 A 
ATOM     22  C   UNL     1       2.176   9.041  17.887  0.00  0.00    +0.000 A 
ATOM     23  N   UNL     1       2.844   7.946  17.536  0.00  0.00    +0.000 NA
ATOM     24  N   UNL     1       2.654   7.085  18.568  0.00  0.00    +0.000 N 
ATOM     25  C   UNL     1       1.908   7.680  19.607  0.00  0.00    +0.000 A 
BRANCH  24  26
ATOM     26  C   UNL     1       3.275   5.805  18.542  0.00  0.00    +0.000 A 
ATOM     27  C   UNL     1       2.660   4.752  17.846  0.00  0.00    +0.000 A 
ATOM     28  C   UNL     1       3.307   3.519  17.733  0.00  0.00    +0.000 A 
ATOM     29  C   UNL     1       4.544   3.321  18.347  0.00  0.00    +0.000 A 
ATOM     30  C   UNL     1       5.133   4.349  19.082  0.00  0.00    +0.000 A 
ATOM     31  C   UNL     1       4.502   5.590  19.181  0.00  0.00    +0.000 A 
ENDBRANCH  24  26
BRANCH  25  32
ATOM     32  N   UNL     1       1.730   7.123  20.844  0.00  0.00    +0.000 N 
ATOM     33  H   UNL     1       1.057   6.355  20.920  0.00  0.00    +0.000 HD
ATOM     34  H   UNL     1       2.561   6.882  21.382  0.00  0.00    +0.000 HD
ENDBRANCH  25  32
ENDBRANCH   2  21
TORSDOF 5
ENDMDL
MODEL 8
REMARK VINA RESULT:      -8.0      3.692     11.361
REMARK  Name = 
REMARK  6 active torsions:
REMARK  status: ('A' for Active; 'I' for Inactive)
REMARK    1  A    between atoms: C_1  and  C_2
REMARK    2  A    between atoms: C_5  and  C_6
REMARK    3  A    between atoms: C_15  and  N_16
REMARK    4  A    between atoms: C_17  and  C_19
REMARK    5  A    between atoms: N_22  and  C_23
REMARK    6  A    between atoms: C_29  and  N_30
REMARK                            x       y       z     vdW  Elec       q    Type
REMARK                         _______ _______ _______ _____ _____    ______ ____
ROOT
ATOM      1  N   UNL     1       0.222  11.062  19.357  0.00  0.00    +0.000 N 
ATOM      2  C   UNL     1       0.939  10.082  20.040  0.00  0.00    +0.000 C 
ATOM      3  O   UNL     1       1.147  10.076  21.247  0.00  0.00    +0.000 OA
ATOM      4  H   UNL     1       0.308  11.051  18.347  0.00  0.00    +0.000 HD
ENDROOT
BRANCH   1  11
ATOM      5  C   UNL     1       0.842  13.906  18.679  0.00  0.00    +0.000 C 
ATOM      6  C   UNL     1      -0.229  13.469  19.642  0.00  0.00    +0.000 A 
ATOM      7  C   UNL     1      -0.990  14.490  20.238  0.00  0.00    +0.000 A 
ATOM      8  C   UNL     1      -2.020  14.196  21.125  0.00  0.00    +0.000 A 
ATOM      9  C   UNL     1      -2.336  12.870  21.434  0.00  0.00    +0.000 A 
ATOM     10  C   UNL     1      -1.589  11.849  20.840  0.00  0.00    +0.000 A 
ATOM     11  C   UNL     1      -0.522  12.121  19.956  0.00  0.00    +0.000 A 
BRANCH   9  12
ATOM     12  C   UNL     1      -3.500  12.644  22.342  0.00  0.00    +0.000 C 
ATOM     13  O   UNL     1      -3.288  11.932  23.324  0.00  0.00    +0.000 OA
ATOM     14  N   UNL     1      -4.722  13.210  22.022  0.00  0.00    +0.000 N 
ATOM     15  C   UNL     1      -5.834  13.071  22.847  0.00  0.00    +0.000 A 
ATOM     16  C   UNL     1      -7.151  13.465  22.501  0.00  0.00    +0.000 A 
ATOM     17  C   UNL     1      -7.917  13.108  23.582  0.00  0.00    +0.000 A 
ATOM     18  O   UNL     1      -7.122  12.569  24.533  0.00  0.00    +0.000 OA
ATOM     19  N   UNL     1      -5.823  12.551  24.080  0.00  0.00    +0.000 NA
ATOM     20  H   UNL     1      -4.867  13.682  21.143  0.00  0.00    +0.000 HD
ENDBRANCH   9  12
ENDBRANCH   1  11
BRANCH   2  21
ATOM     21  C   UNL     1       1.477   9.000  19.234  0.00  0.00    +0.000 A 
ATOM     22  C   UNL     1       1.913   9.131  17.897  0.00  0.00    +0.000 A 
ATOM     23  N   UNL     1       2.540   8.051  17.439  0.00  0.00    +0.000 NA
ATOM     24  N   UNL     1       2.473   7.158  18.459  0.00  0.00    +0.000 N 
ATOM     25  C   UNL     1       1.849   7.717  19.595  0.00  0.00    +0.000 A 
BRANCH  24  26
ATOM     26  C   UNL     1       3.092   5.884  18.324  0.00  0.00    +0.000 A 
ATOM     27  C   UNL     1       4.431   5.721  18.714  0.00  0.00    +0.000 A 
ATOM     28  C   UNL     1       5.017   4.453  18.677  0.00  0.00    +0.000 A 
ATOM     29  C   UNL     1       4.287   3.359  18.214  0.00  0.00    +0.000 A 
ATOM     30  C   UNL     1       2.974   3.528  17.778  0.00  0.00    +0.000 A 
ATOM     31  C   UNL     1       2.375   4.787  17.833  0.00  0.00    +0.000 A 
ENDBRANCH  24  26
BRANCH  25  32
ATOM     32  N   UNL     1       1.817   7.123  20.827  0.00  0.00    +0.000 N 
ATOM     33  H   UNL     1       1.012   6.526  21.038  0.00  0.00    +0.000 HD
ATOM     34  H   UNL     1       2.662   6.657  21.154  0.00  0.00    +0.000 HD
ENDBRANCH  25  32
ENDBRANCH   2  21
TORSDOF 5
ENDMDL
MODEL 9
REMARK VINA RESULT:      -7.9      3.608     10.955
REMARK  Name = 
REMARK  6 active torsions:
REMARK  status: ('A' for Active; 'I' for Inactive)
REMARK    1  A    between atoms: C_1  and  C_2
REMARK    2  A    between atoms: C_5  and  C_6
REMARK    3  A    between atoms: C_15  and  N_16
REMARK    4  A    between atoms: C_17  and  C_19
REMARK    5  A    between atoms: N_22  and  C_23
REMARK    6  A    between atoms: C_29  and  N_30
REMARK                            x       y       z     vdW  Elec       q    Type
REMARK                         _______ _______ _______ _____ _____    ______ ____
ROOT
ATOM      1  N   UNL     1       1.259   9.832  19.470  0.00  0.00    +0.000 N 
ATOM      2  C   UNL     1       1.562   8.686  20.201  0.00  0.00    +0.000 C 
ATOM      3  O   UNL     1       1.464   8.582  21.418  0.00  0.00    +0.000 OA
ATOM      4  H   UNL     1       1.583   9.844  18.510  0.00  0.00    +0.000 HD
ENDROOT
BRANCH   1  11
ATOM      5  C   UNL     1       2.194  12.532  18.593  0.00  0.00    +0.000 C 
ATOM      6  C   UNL     1       1.080  12.289  19.575  0.00  0.00    +0.000 A 
ATOM      7  C   UNL     1       0.438  13.430  20.088  0.00  0.00    +0.000 A 
ATOM      8  C   UNL     1      -0.620  13.318  20.984  0.00  0.00    +0.000 A 
ATOM      9  C   UNL     1      -1.083  12.062  21.386  0.00  0.00    +0.000 A 
ATOM     10  C   UNL     1      -0.455  10.924  20.874  0.00  0.00    +0.000 A 
ATOM     11  C   UNL     1       0.638  11.009  19.983  0.00  0.00    +0.000 A 
BRANCH   9  12
ATOM     12  C   UNL     1      -2.266  12.035  22.297  0.00  0.00    +0.000 C 
ATOM     13  O   UNL     1      -2.114  11.435  23.361  0.00  0.00    +0.000 OA
ATOM     14  N   UNL     1      -3.440  12.645  21.892  0.00  0.00    +0.000 N 
ATOM     15  C   UNL     1      -4.564  12.690  22.710  0.00  0.00    +0.000 A 
ATOM     16  C   UNL     1      -5.847  13.135  22.300  0.00  0.00    +0.000 A 
ATOM     17  C   UNL     1      -6.643  12.970  23.404  0.00  0.00    +0.000 A 
ATOM     18  O   UNL     1      -5.897  12.494  24.426  0.00  0.00    +0.000 OA
ATOM     19  N   UNL     1      -4.600  12.325  23.998  0.00  0.00    +0.000 NA
ATOM     20  H   UNL     1      -3.544  13.016  20.960  0.00  0.00    +0.000 HD
ENDBRANCH   9  12
ENDBRANCH   1  11
BRANCH   2  21
ATOM     21  C   UNL     1       2.033   7.543  19.439  0.00  0.00    +0.000 A 
ATOM     22  C   UNL     1       2.822   7.624  18.270  0.00  0.00    +0.000 A 
ATOM     23  N   UNL     1       3.287   6.446  17.865  0.00  0.00    +0.000 NA
ATOM     24  N   UNL     1       2.755   5.551  18.736  0.00  0.00    +0.000 N 
ATOM     25  C   UNL     1       1.998   6.192  19.739  0.00  0.00    +0.000 A 
BRANCH  24  26
ATOM     26  C   UNL     1       3.083   4.171  18.619  0.00  0.00    +0.000 A 
ATOM     27  C   UNL     1       4.101   3.632  19.422  0.00  0.00    +0.000 A 
ATOM     28  C   UNL     1       4.365   2.261  19.386  0.00  0.00    +0.000 A 
ATOM     29  C   UNL     1       3.647   1.434  18.522  0.00  0.00    +0.000 A 
ATOM     30  C   UNL     1       2.671   1.975  17.686  0.00  0.00    +0.000 A 
ATOM     31  C   UNL     1       2.387   3.341  17.733  0.00  0.00    +0.000 A 
ENDBRANCH  24  26
BRANCH  25  32
ATOM     32  N   UNL     1       1.511   5.569  20.855  0.00  0.00    +0.000 N 
ATOM     33  H   UNL     1       1.480   6.114  21.720  0.00  0.00    +0.000 HD
ATOM     34  H   UNL     1       0.639   5.047  20.767  0.00  0.00    +0.000 HD
ENDBRANCH  25  32
ENDBRANCH   2  21
TORSDOF 5
ENDMDL
