MODEL 1
REMARK VINA RESULT:      -9.0      0.000      0.000
REMARK  Name = 
REMARK  5 active torsions:
REMARK  status: ('A' for Active; 'I' for Inactive)
REMARK    1  A    between atoms: C_1  and  C_2
REMARK    2  A    between atoms: C_3  and  C_4
REMARK    3  A    between atoms: N_6  and  C_7
REMARK    4  A    between atoms: C_14  and  C_15
REMARK    5  A    between atoms: C_15  and  C_16
REMARK                            x       y       z     vdW  Elec       q    Type
REMARK                         _______ _______ _______ _____ _____    ______ ____
ROOT
ATOM      1  C   UNL     1       5.178   3.996  17.389  0.00  0.00    +0.000 C 
ATOM      2  O   UNL     1       5.906   4.396  18.302  0.00  0.00    +0.000 OA
ATOM      3  N   UNL     1       3.918   3.461  17.749  0.00  0.00    +0.000 N 
ATOM      4  H   UNL     1       3.282   3.224  16.999  0.00  0.00    +0.000 HD
ENDROOT
BRANCH   1   7
ATOM      5  C   UNL     1       5.751   6.680  15.716  0.00  0.00    +0.000 C 
ATOM      6  C   UNL     1       6.203   5.299  15.423  0.00  0.00    +0.000 A 
ATOM      7  C   UNL     1       5.698   4.126  15.997  0.00  0.00    +0.000 A 
ATOM      8  O   UNL     1       5.679   3.189  14.964  0.00  0.00    +0.000 OA
ATOM      9  C   UNL     1       6.322   3.773  13.861  0.00  0.00    +0.000 A 
ATOM     10  C   UNL     1       6.355   3.406  12.518  0.00  0.00    +0.000 A 
ATOM     11  F   UNL     1       5.594   2.420  12.034  0.00  0.00    +0.000 F 
ATOM     12  C   UNL     1       7.100   4.194  11.608  0.00  0.00    +0.000 A 
ATOM     13  C   UNL     1       7.868   5.274  12.048  0.00  0.00    +0.000 A 
ATOM     14  C   UNL     1       7.789   5.676  13.380  0.00  0.00    +0.000 A 
ATOM     15  C   UNL     1       6.941   4.956  14.256  0.00  0.00    +0.000 A 
ENDBRANCH   1   7
BRANCH   3  16
ATOM     16  C   UNL     1       3.394   3.652  19.168  0.00  0.00    +0.000 C 
ATOM     17  C   UNL     1       2.992   2.388  20.006  0.00  0.00    +0.000 C 
ATOM     18  C   UNL     1       2.499   2.812  21.438  0.00  0.00    +0.000 C 
ATOM     19  C   UNL     1       1.308   3.779  21.342  0.00  0.00    +0.000 C 
ATOM     20  N   UNL     1       0.986   4.040  19.928  0.00  0.00    +0.000 NA
ATOM     21  C   UNL     1       0.622   2.734  19.316  0.00  0.00    +0.000 C 
ATOM     22  C   UNL     1       1.774   1.720  19.362  0.00  0.00    +0.000 C 
ATOM     23  C   UNL     1       2.165   4.652  19.221  0.00  0.00    +0.000 C 
BRANCH  23  24
ATOM     24  C   UNL     1       2.677   5.987  19.850  0.00  0.00    +0.000 C 
BRANCH  24  25
ATOM     25  C   UNL     1       2.082   7.331  19.510  0.00  0.00    +0.000 A 
ATOM     26  C   UNL     1       2.314   7.847  18.229  0.00  0.00    +0.000 A 
ATOM     27  C   UNL     1       1.943   9.155  17.912  0.00  0.00    +0.000 A 
ATOM     28  C   UNL     1       1.347   9.907  18.892  0.00  0.00    +0.000 A 
ATOM     29  N   UNL     1       1.072   9.442  20.144  0.00  0.00    +0.000 NA
ATOM     30  C   UNL     1       1.447   8.164  20.416  0.00  0.00    +0.000 A 
ENDBRANCH  24  25
ENDBRANCH  23  24
ENDBRANCH   3  16
TORSDOF 4
ENDMDL
MODEL 2
REMARK VINA RESULT:      -8.5      3.692      7.960
REMARK  Name = 
REMARK  5 active torsions:
REMARK  status: ('A' for Active; 'I' for Inactive)
REMARK    1  A    between atoms: C_1  and  C_2
REMARK    2  A    between atoms: C_3  and  C_4
REMARK    3  A    between atoms: N_6  and  C_7
REMARK    4  A    between atoms: C_14  and  C_15
REMARK    5  A    between atoms: C_15  and  C_16
REMARK                            x       y       z     vdW  Elec       q    Type
REMARK                         _______ _______ _______ _____ _____    ______ ____
ROOT
ATOM      1  C   UNL     1       2.706   6.748  19.084  0.00  0.00    +0.000 C 
ATOM      2  O   UNL     1       2.285   6.111  18.114  0.00  0.00    +0.000 OA
ATOM      3  N   UNL     1       3.951   6.354  19.629  0.00  0.00    +0.000 N 
ATOM      4  H   UNL     1       4.343   6.934  20.359  0.00  0.00    +0.000 HD
ENDROOT
BRANCH   1   7
ATOM      5  C   UNL     1       2.306   9.659  17.782  0.00  0.00    +0.000 C 
ATOM      6  C   UNL     1       1.493   9.002  18.833  0.00  0.00    +0.000 A 
ATOM      7  C   UNL     1       1.862   7.874  19.577  0.00  0.00    +0.000 A 
ATOM      8  O   UNL     1       1.383   8.110  20.866  0.00  0.00    +0.000 OA
ATOM      9  C   UNL     1       0.605   9.278  20.813  0.00  0.00    +0.000 A 
ATOM     10  C   UNL     1       0.119  10.103  21.824  0.00  0.00    +0.000 A 
ATOM     11  F   UNL     1       0.475   9.942  23.103  0.00  0.00    +0.000 F 
ATOM     12  C   UNL     1      -0.653  11.237  21.475  0.00  0.00    +0.000 A 
ATOM     13  C   UNL     1      -1.008  11.489  20.148  0.00  0.00    +0.000 A 
ATOM     14  C   UNL     1      -0.473  10.698  19.133  0.00  0.00    +0.000 A 
ATOM     15  C   UNL     1       0.402   9.642  19.485  0.00  0.00    +0.000 A 
ENDBRANCH   1   7
BRANCH   3  16
ATOM     16  C   UNL     1       4.840   5.385  18.857  0.00  0.00    +0.000 C 
ATOM     17  C   UNL     1       6.199   5.904  18.271  0.00  0.00    +0.000 C 
ATOM     18  C   UNL     1       6.960   4.742  17.534  0.00  0.00    +0.000 C 
ATOM     19  C   UNL     1       6.096   4.149  16.409  0.00  0.00    +0.000 C 
ATOM     20  N   UNL     1       4.793   4.837  16.362  0.00  0.00    +0.000 NA
ATOM     21  C   UNL     1       5.068   6.271  16.080  0.00  0.00    +0.000 C 
ATOM     22  C   UNL     1       5.917   6.935  17.174  0.00  0.00    +0.000 C 
ATOM     23  C   UNL     1       4.064   4.679  17.669  0.00  0.00    +0.000 C 
BRANCH  23  24
ATOM     24  C   UNL     1       3.809   3.197  18.094  0.00  0.00    +0.000 C 
BRANCH  24  25
ATOM     25  C   UNL     1       3.053   2.827  19.346  0.00  0.00    +0.000 A 
ATOM     26  C   UNL     1       1.659   2.963  19.337  0.00  0.00    +0.000 A 
ATOM     27  C   UNL     1       0.923   2.807  20.513  0.00  0.00    +0.000 A 
ATOM     28  C   UNL     1       1.608   2.516  21.665  0.00  0.00    +0.000 A 
ATOM     29  N   UNL     1       2.960   2.343  21.721  0.00  0.00    +0.000 NA
ATOM     30  C   UNL     1       3.643   2.502  20.557  0.00  0.00    +0.000 A 
ENDBRANCH  24  25
ENDBRANCH  23  24
ENDBRANCH   3  16
TORSDOF 4
ENDMDL
MODEL 3
REMARK VINA RESULT:      -8.3      3.882      7.570
REMARK  Name = 
REMARK  5 active torsions:
REMARK  status: ('A' for Active; 'I' for Inactive)
REMARK    1  A    between atoms: C_1  and  C_2
REMARK    2  A    between atoms: C_3  and  C_4
REMARK    3  A    between atoms: N_6  and  C_7
REMARK    4  A    between atoms: C_14  and  C_15
REMARK    5  A    between atoms: C_15  and  C_16
REMARK                            x       y       z     vdW  Elec       q    Type
REMARK                         _______ _______ _______ _____ _____    ______ ____
ROOT
ATOM      1  C   UNL     1       2.397   6.432  19.289  0.00  0.00    +0.000 C 
ATOM      2  O   UNL     1       3.415   6.049  19.874  0.00  0.00    +0.000 OA
ATOM      3  N   UNL     1       1.983   5.694  18.155  0.00  0.00    +0.000 N 
ATOM      4  H   UNL     1       1.099   5.946  17.734  0.00  0.00    +0.000 HD
ENDROOT
BRANCH   1   7
ATOM      5  C   UNL     1       2.299   9.412  18.088  0.00  0.00    +0.000 C 
ATOM      6  C   UNL     1       1.448   8.817  19.146  0.00  0.00    +0.000 A 
ATOM      7  C   UNL     1       1.704   7.630  19.843  0.00  0.00    +0.000 A 
ATOM      8  O   UNL     1       1.295   7.877  21.154  0.00  0.00    +0.000 OA
ATOM      9  C   UNL     1       0.657   9.128  21.162  0.00  0.00    +0.000 A 
ATOM     10  C   UNL     1       0.301   9.969  22.212  0.00  0.00    +0.000 A 
ATOM     11  F   UNL     1       0.674   9.726  23.473  0.00  0.00    +0.000 F 
ATOM     12  C   UNL     1      -0.345  11.195  21.923  0.00  0.00    +0.000 A 
ATOM     13  C   UNL     1      -0.707  11.531  20.617  0.00  0.00    +0.000 A 
ATOM     14  C   UNL     1      -0.298  10.718  19.561  0.00  0.00    +0.000 A 
ATOM     15  C   UNL     1       0.458   9.557  19.852  0.00  0.00    +0.000 A 
ENDBRANCH   1   7
BRANCH   3  16
ATOM     16  C   UNL     1       2.609   4.333  17.870  0.00  0.00    +0.000 C 
ATOM     17  C   UNL     1       1.751   3.040  18.103  0.00  0.00    +0.000 C 
ATOM     18  C   UNL     1       2.580   1.756  17.732  0.00  0.00    +0.000 C 
ATOM     19  C   UNL     1       3.875   1.683  18.558  0.00  0.00    +0.000 C 
ATOM     20  N   UNL     1       3.969   2.854  19.448  0.00  0.00    +0.000 NA
ATOM     21  C   UNL     1       2.791   2.804  20.356  0.00  0.00    +0.000 C 
ATOM     22  C   UNL     1       1.458   2.889  19.598  0.00  0.00    +0.000 C 
ATOM     23  C   UNL     1       3.974   4.128  18.649  0.00  0.00    +0.000 C 
BRANCH  23  24
ATOM     24  C   UNL     1       5.128   4.231  17.600  0.00  0.00    +0.000 C 
BRANCH  24  25
ATOM     25  C   UNL     1       6.149   5.342  17.617  0.00  0.00    +0.000 A 
ATOM     26  C   UNL     1       7.107   5.340  18.639  0.00  0.00    +0.000 A 
ATOM     27  C   UNL     1       7.963   6.429  18.812  0.00  0.00    +0.000 A 
ATOM     28  C   UNL     1       7.833   7.489  17.952  0.00  0.00    +0.000 A 
ATOM     29  N   UNL     1       6.939   7.527  16.922  0.00  0.00    +0.000 NA
ATOM     30  C   UNL     1       6.123   6.449  16.785  0.00  0.00    +0.000 A 
ENDBRANCH  24  25
ENDBRANCH  23  24
ENDBRANCH   3  16
TORSDOF 4
ENDMDL
MODEL 4
REMARK VINA RESULT:      -8.3      3.395      7.742
REMARK  Name = 
REMARK  5 active torsions:
REMARK  status: ('A' for Active; 'I' for Inactive)
REMARK    1  A    between atoms: C_1  and  C_2
REMARK    2  A    between atoms: C_3  and  C_4
REMARK    3  A    between atoms: N_6  and  C_7
REMARK    4  A    between atoms: C_14  and  C_15
REMARK    5  A    between atoms: C_15  and  C_16
REMARK                            x       y       z     vdW  Elec       q    Type
REMARK                         _______ _______ _______ _____ _____    ______ ____
ROOT
ATOM      1  C   UNL     1       2.963   7.312  18.827  0.00  0.00    +0.000 C 
ATOM      2  O   UNL     1       2.974   6.473  19.733  0.00  0.00    +0.000 OA
ATOM      3  N   UNL     1       4.011   7.257  17.878  0.00  0.00    +0.000 N 
ATOM      4  H   UNL     1       3.951   7.878  17.082  0.00  0.00    +0.000 HD
ENDROOT
BRANCH   1   7
ATOM      5  C   UNL     1       1.181   8.316  21.306  0.00  0.00    +0.000 C 
ATOM      6  C   UNL     1       1.294   8.911  19.953  0.00  0.00    +0.000 A 
ATOM      7  C   UNL     1       1.840   8.293  18.821  0.00  0.00    +0.000 A 
ATOM      8  O   UNL     1       1.032   8.694  17.757  0.00  0.00    +0.000 OA
ATOM      9  C   UNL     1       0.144   9.662  18.251  0.00  0.00    +0.000 A 
ATOM     10  C   UNL     1      -1.024  10.196  17.712  0.00  0.00    +0.000 A 
ATOM     11  F   UNL     1      -1.575   9.710  16.595  0.00  0.00    +0.000 F 
ATOM     12  C   UNL     1      -1.733  11.178  18.444  0.00  0.00    +0.000 A 
ATOM     13  C   UNL     1      -1.236  11.682  19.647  0.00  0.00    +0.000 A 
ATOM     14  C   UNL     1      -0.100  11.107  20.215  0.00  0.00    +0.000 A 
ATOM     15  C   UNL     1       0.530  10.037  19.535  0.00  0.00    +0.000 A 
ENDBRANCH   1   7
BRANCH   3  16
ATOM     16  C   UNL     1       4.925   6.037  17.832  0.00  0.00    +0.000 C 
ATOM     17  C   UNL     1       6.370   6.147  18.433  0.00  0.00    +0.000 C 
ATOM     18  C   UNL     1       7.127   4.776  18.297  0.00  0.00    +0.000 C 
ATOM     19  C   UNL     1       7.204   4.336  16.826  0.00  0.00    +0.000 C 
ATOM     20  N   UNL     1       6.524   5.326  15.971  0.00  0.00    +0.000 NA
ATOM     21  C   UNL     1       7.242   6.617  16.146  0.00  0.00    +0.000 C 
ATOM     22  C   UNL     1       7.194   7.126  17.593  0.00  0.00    +0.000 C 
ATOM     23  C   UNL     1       5.078   5.461  16.363  0.00  0.00    +0.000 C 
BRANCH  23  24
ATOM     24  C   UNL     1       4.261   4.130  16.297  0.00  0.00    +0.000 C 
BRANCH  24  25
ATOM     25  C   UNL     1       3.439   3.619  17.454  0.00  0.00    +0.000 A 
ATOM     26  C   UNL     1       2.075   3.935  17.481  0.00  0.00    +0.000 A 
ATOM     27  C   UNL     1       1.301   3.645  18.606  0.00  0.00    +0.000 A 
ATOM     28  C   UNL     1       1.920   3.044  19.672  0.00  0.00    +0.000 A 
ATOM     29  N   UNL     1       3.237   2.689  19.684  0.00  0.00    +0.000 NA
ATOM     30  C   UNL     1       3.958   2.986  18.571  0.00  0.00    +0.000 A 
ENDBRANCH  24  25
ENDBRANCH  23  24
ENDBRANCH   3  16
TORSDOF 4
ENDMDL
MODEL 5
REMARK VINA RESULT:      -8.2      3.565      7.728
REMARK  Name = 
REMARK  5 active torsions:
REMARK  status: ('A' for Active; 'I' for Inactive)
REMARK    1  A    between atoms: C_1  and  C_2
REMARK    2  A    between atoms: C_3  and  C_4
REMARK    3  A    between atoms: N_6  and  C_7
REMARK    4  A    between atoms: C_14  and  C_15
REMARK    5  A    between atoms: C_15  and  C_16
REMARK                            x       y       z     vdW  Elec       q    Type
REMARK                         _______ _______ _______ _____ _____    ______ ____
ROOT
ATOM      1  C   UNL     1       2.332   6.619  19.452  0.00  0.00    +0.000 C 
ATOM      2  O   UNL     1       3.167   6.163  20.240  0.00  0.00    +0.000 OA
ATOM      3  N   UNL     1       2.170   5.949  18.217  0.00  0.00    +0.000 N 
ATOM      4  H   UNL     1       1.421   6.261  17.613  0.00  0.00    +0.000 HD
ENDROOT
BRANCH   1   7
ATOM      5  C   UNL     1       2.251   9.525  18.080  0.00  0.00    +0.000 C 
ATOM      6  C   UNL     1       1.341   8.967  19.109  0.00  0.00    +0.000 A 
ATOM      7  C   UNL     1       1.575   7.828  19.888  0.00  0.00    +0.000 A 
ATOM      8  O   UNL     1       1.069   8.136  21.152  0.00  0.00    +0.000 OA
ATOM      9  C   UNL     1       0.404   9.367  21.045  0.00  0.00    +0.000 A 
ATOM     10  C   UNL     1      -0.044  10.255  22.019  0.00  0.00    +0.000 A 
ATOM     11  F   UNL     1       0.245  10.092  23.314  0.00  0.00    +0.000 F 
ATOM     12  C   UNL     1      -0.695  11.446  21.616  0.00  0.00    +0.000 A 
ATOM     13  C   UNL     1      -0.972  11.699  20.271  0.00  0.00    +0.000 A 
ATOM     14  C   UNL     1      -0.472  10.841  19.294  0.00  0.00    +0.000 A 
ATOM     15  C   UNL     1       0.288   9.718  19.702  0.00  0.00    +0.000 A 
ENDBRANCH   1   7
BRANCH   3  16
ATOM     16  C   UNL     1       2.792   4.571  18.018  0.00  0.00    +0.000 C 
ATOM     17  C   UNL     1       1.849   3.323  17.892  0.00  0.00    +0.000 C 
ATOM     18  C   UNL     1       2.693   2.015  17.675  0.00  0.00    +0.000 C 
ATOM     19  C   UNL     1       3.686   1.807  18.831  0.00  0.00    +0.000 C 
ATOM     20  N   UNL     1       3.566   2.911  19.800  0.00  0.00    +0.000 NA
ATOM     21  C   UNL     1       2.174   2.881  20.323  0.00  0.00    +0.000 C 
ATOM     22  C   UNL     1       1.126   3.098  19.222  0.00  0.00    +0.000 C 
ATOM     23  C   UNL     1       3.860   4.230  19.139  0.00  0.00    +0.000 C 
BRANCH  23  24
ATOM     24  C   UNL     1       5.274   4.324  18.479  0.00  0.00    +0.000 C 
BRANCH  24  25
ATOM     25  C   UNL     1       5.472   4.644  17.019  0.00  0.00    +0.000 A 
ATOM     26  C   UNL     1       5.715   3.580  16.140  0.00  0.00    +0.000 A 
ATOM     27  C   UNL     1       6.081   3.824  14.815  0.00  0.00    +0.000 A 
ATOM     28  C   UNL     1       6.190   5.129  14.409  0.00  0.00    +0.000 A 
ATOM     29  N   UNL     1       5.935   6.199  15.216  0.00  0.00    +0.000 NA
ATOM     30  C   UNL     1       5.581   5.923  16.499  0.00  0.00    +0.000 A 
ENDBRANCH  24  25
ENDBRANCH  23  24
ENDBRANCH   3  16
TORSDOF 4
ENDMDL
MODEL 6
REMARK VINA RESULT:      -8.1      3.364      7.800
REMARK  Name = 
REMARK  5 active torsions:
REMARK  status: ('A' for Active; 'I' for Inactive)
REMARK    1  A    between atoms: C_1  and  C_2
REMARK    2  A    between atoms: C_3  and  C_4
REMARK    3  A    between atoms: N_6  and  C_7
REMARK    4  A    between atoms: C_14  and  C_15
REMARK    5  A    between atoms: C_15  and  C_16
REMARK                            x       y       z     vdW  Elec       q    Type
REMARK                         _______ _______ _______ _____ _____    ______ ____
ROOT
ATOM      1  C   UNL     1       2.482   7.552  19.045  0.00  0.00    +0.000 C 
ATOM      2  O   UNL     1       2.600   6.914  20.096  0.00  0.00    +0.000 OA
ATOM      3  N   UNL     1       3.370   7.234  17.990  0.00  0.00    +0.000 N 
ATOM      4  H   UNL     1       3.212   7.685  17.098  0.00  0.00    +0.000 HD
ENDROOT
BRANCH   1   7
ATOM      5  C   UNL     1       0.634   8.627  21.444  0.00  0.00    +0.000 C 
ATOM      6  C   UNL     1       0.841   9.224  20.103  0.00  0.00    +0.000 A 
ATOM      7  C   UNL     1       1.410   8.587  18.994  0.00  0.00    +0.000 A 
ATOM      8  O   UNL     1       0.675   9.034  17.895  0.00  0.00    +0.000 OA
ATOM      9  C   UNL     1      -0.187  10.042  18.354  0.00  0.00    +0.000 A 
ATOM     10  C   UNL     1      -1.300  10.635  17.764  0.00  0.00    +0.000 A 
ATOM     11  F   UNL     1      -1.820  10.184  16.618  0.00  0.00    +0.000 F 
ATOM     12  C   UNL     1      -1.995  11.647  18.469  0.00  0.00    +0.000 A 
ATOM     13  C   UNL     1      -1.532  12.118  19.700  0.00  0.00    +0.000 A 
ATOM     14  C   UNL     1      -0.455  11.485  20.316  0.00  0.00    +0.000 A 
ATOM     15  C   UNL     1       0.154  10.389  19.659  0.00  0.00    +0.000 A 
ENDBRANCH   1   7
BRANCH   3  16
ATOM     16  C   UNL     1       4.218   5.970  18.071  0.00  0.00    +0.000 C 
ATOM     17  C   UNL     1       5.768   6.107  18.267  0.00  0.00    +0.000 C 
ATOM     18  C   UNL     1       6.440   4.687  18.343  0.00  0.00    +0.000 C 
ATOM     19  C   UNL     1       6.142   3.873  17.073  0.00  0.00    +0.000 C 
ATOM     20  N   UNL     1       5.294   4.660  16.160  0.00  0.00    +0.000 NA
ATOM     21  C   UNL     1       6.060   5.883  15.802  0.00  0.00    +0.000 C 
ATOM     22  C   UNL     1       6.381   6.756  17.024  0.00  0.00    +0.000 C 
ATOM     23  C   UNL     1       3.992   5.018  16.823  0.00  0.00    +0.000 C 
BRANCH  23  24
ATOM     24  C   UNL     1       3.157   3.793  17.317  0.00  0.00    +0.000 C 
BRANCH  24  25
ATOM     25  C   UNL     1       2.601   3.696  18.715  0.00  0.00    +0.000 A 
ATOM     26  C   UNL     1       3.396   3.093  19.698  0.00  0.00    +0.000 A 
ATOM     27  C   UNL     1       2.872   2.814  20.962  0.00  0.00    +0.000 A 
ATOM     28  C   UNL     1       1.565   3.150  21.204  0.00  0.00    +0.000 A 
ATOM     29  N   UNL     1       0.758   3.766  20.291  0.00  0.00    +0.000 NA
ATOM     30  C   UNL     1       1.302   4.022  19.072  0.00  0.00    +0.000 A 
ENDBRANCH  24  25
ENDBRANCH  23  24
ENDBRANCH   3  16
TORSDOF 4
ENDMDL
MODEL 7
REMARK VINA RESULT:      -8.1      3.490      7.705
REMARK  Name = 
REMARK  5 active torsions:
REMARK  status: ('A' for Active; 'I' for Inactive)
REMARK    1  A    between atoms: C_1  and  C_2
REMARK    2  A    between atoms: C_3  and  C_4
REMARK    3  A    between atoms: N_6  and  C_7
REMARK    4  A    between atoms: C_14  and  C_15
REMARK    5  A    between atoms: C_15  and  C_16
REMARK                            x       y       z     vdW  Elec       q    Type
REMARK                         _______ _______ _______ _____ _____    ______ ____
ROOT
ATOM      1  C   UNL     1       2.259   7.698  18.225  0.00  0.00    +0.000 C 
ATOM      2  O   UNL     1       3.373   7.925  17.744  0.00  0.00    +0.000 OA
ATOM      3  N   UNL     1       1.859   6.345  18.330  0.00  0.00    +0.000 N 
ATOM      4  H   UNL     1       0.990   6.153  18.812  0.00  0.00    +0.000 HD
ENDROOT
BRANCH   1   7
ATOM      5  C   UNL     1       1.038   8.331  21.131  0.00  0.00    +0.000 C 
ATOM      6  C   UNL     1       1.194   9.250  19.978  0.00  0.00    +0.000 A 
ATOM      7  C   UNL     1       1.451   8.877  18.653  0.00  0.00    +0.000 A 
ATOM      8  O   UNL     1       0.696   9.752  17.872  0.00  0.00    +0.000 OA
ATOM      9  C   UNL     1       0.153  10.717  18.734  0.00  0.00    +0.000 A 
ATOM     10  C   UNL     1      -0.866  11.647  18.545  0.00  0.00    +0.000 A 
ATOM     11  F   UNL     1      -1.623  11.655  17.443  0.00  0.00    +0.000 F 
ATOM     12  C   UNL     1      -1.214  12.513  19.609  0.00  0.00    +0.000 A 
ATOM     13  C   UNL     1      -0.496  12.509  20.807  0.00  0.00    +0.000 A 
ATOM     14  C   UNL     1       0.483  11.540  21.018  0.00  0.00    +0.000 A 
ATOM     15  C   UNL     1       0.736  10.597  19.993  0.00  0.00    +0.000 A 
ENDBRANCH   1   7
BRANCH   3  16
ATOM     16  C   UNL     1       2.886   5.237  18.129  0.00  0.00    +0.000 C 
ATOM     17  C   UNL     1       2.406   3.847  17.580  0.00  0.00    +0.000 C 
ATOM     18  C   UNL     1       3.623   2.864  17.432  0.00  0.00    +0.000 C 
ATOM     19  C   UNL     1       4.341   2.676  18.778  0.00  0.00    +0.000 C 
ATOM     20  N   UNL     1       3.684   3.491  19.815  0.00  0.00    +0.000 NA
ATOM     21  C   UNL     1       2.282   3.009  19.924  0.00  0.00    +0.000 C 
ATOM     22  C   UNL     1       1.497   3.180  18.615  0.00  0.00    +0.000 C 
ATOM     23  C   UNL     1       3.721   4.949  19.445  0.00  0.00    +0.000 C 
BRANCH  23  24
ATOM     24  C   UNL     1       5.156   5.525  19.221  0.00  0.00    +0.000 C 
BRANCH  24  25
ATOM     25  C   UNL     1       5.909   5.358  17.924  0.00  0.00    +0.000 A 
ATOM     26  C   UNL     1       5.292   5.795  16.745  0.00  0.00    +0.000 A 
ATOM     27  C   UNL     1       5.857   5.509  15.501  0.00  0.00    +0.000 A 
ATOM     28  C   UNL     1       7.027   4.795  15.476  0.00  0.00    +0.000 A 
ATOM     29  N   UNL     1       7.683   4.374  16.596  0.00  0.00    +0.000 NA
ATOM     30  C   UNL     1       7.104   4.670  17.789  0.00  0.00    +0.000 A 
ENDBRANCH  24  25
ENDBRANCH  23  24
ENDBRANCH   3  16
TORSDOF 4
ENDMDL
MODEL 8
REMARK VINA RESULT:      -8.0      3.876      8.153
REMARK  Name = 
REMARK  5 active torsions:
REMARK  status: ('A' for Active; 'I' for Inactive)
REMARK    1  A    between atoms: C_1  and  C_2
REMARK    2  A    between atoms: C_3  and  C_4
REMARK    3  A    between atoms: N_6  and  C_7
REMARK    4  A    between atoms: C_14  and  C_15
REMARK    5  A    between atoms: C_15  and  C_16
REMARK                            x       y       z     vdW  Elec       q    Type
REMARK                         _______ _______ _______ _____ _____    ______ ____
ROOT
ATOM      1  C   UNL     1       2.398   7.281  19.750  0.00  0.00    +0.000 C 
ATOM      2  O   UNL     1       2.497   6.437  20.646  0.00  0.00    +0.000 OA
ATOM      3  N   UNL     1       3.204   7.106  18.600  0.00  0.00    +0.000 N 
ATOM      4  H   UNL     1       3.054   7.739  17.826  0.00  0.00    +0.000 HD
ENDROOT
BRANCH   1   7
ATOM      5  C   UNL     1       1.913   9.886  17.931  0.00  0.00    +0.000 C 
ATOM      6  C   UNL     1       1.056   9.346  19.013  0.00  0.00    +0.000 A 
ATOM      7  C   UNL     1       1.433   8.396  19.969  0.00  0.00    +0.000 A 
ATOM      8  O   UNL     1       0.820   8.803  21.155  0.00  0.00    +0.000 OA
ATOM      9  C   UNL     1      -0.031   9.873  20.837  0.00  0.00    +0.000 A 
ATOM     10  C   UNL     1      -0.667  10.811  21.646  0.00  0.00    +0.000 A 
ATOM     11  F   UNL     1      -0.421  10.900  22.957  0.00  0.00    +0.000 F 
ATOM     12  C   UNL     1      -1.483  11.799  21.043  0.00  0.00    +0.000 A 
ATOM     13  C   UNL     1      -1.729  11.793  19.669  0.00  0.00    +0.000 A 
ATOM     14  C   UNL     1      -1.047  10.892  18.853  0.00  0.00    +0.000 A 
ATOM     15  C   UNL     1      -0.135   9.990  19.453  0.00  0.00    +0.000 A 
ENDBRANCH   1   7
BRANCH   3  16
ATOM     16  C   UNL     1       3.925   5.781  18.378  0.00  0.00    +0.000 C 
ATOM     17  C   UNL     1       5.493   5.751  18.429  0.00  0.00    +0.000 C 
ATOM     18  C   UNL     1       6.024   4.290  18.195  0.00  0.00    +0.000 C 
ATOM     19  C   UNL     1       5.533   3.740  16.846  0.00  0.00    +0.000 C 
ATOM     20  N   UNL     1       4.689   4.743  16.172  0.00  0.00    +0.000 NA
ATOM     21  C   UNL     1       5.538   5.943  15.945  0.00  0.00    +0.000 C 
ATOM     22  C   UNL     1       6.053   6.557  17.254  0.00  0.00    +0.000 C 
ATOM     23  C   UNL     1       3.495   5.086  17.020  0.00  0.00    +0.000 C 
BRANCH  23  24
ATOM     24  C   UNL     1       2.589   3.867  17.387  0.00  0.00    +0.000 C 
BRANCH  24  25
ATOM     25  C   UNL     1       2.380   3.404  18.808  0.00  0.00    +0.000 A 
ATOM     26  C   UNL     1       1.149   3.681  19.415  0.00  0.00    +0.000 A 
ATOM     27  C   UNL     1       0.958   3.438  20.777  0.00  0.00    +0.000 A 
ATOM     28  C   UNL     1       2.010   2.922  21.490  0.00  0.00    +0.000 A 
ATOM     29  N   UNL     1       3.218   2.606  20.939  0.00  0.00    +0.000 NA
ATOM     30  C   UNL     1       3.366   2.856  19.612  0.00  0.00    +0.000 A 
ENDBRANCH  24  25
ENDBRANCH  23  24
ENDBRANCH   3  16
TORSDOF 4
ENDMDL
MODEL 9
REMARK VINA RESULT:      -8.0      3.399      7.774
REMARK  Name = 
REMARK  5 active torsions:
REMARK  status: ('A' for Active; 'I' for Inactive)
REMARK    1  A    between atoms: C_1  and  C_2
REMARK    2  A    between atoms: C_3  and  C_4
REMARK    3  A    between atoms: N_6  and  C_7
REMARK    4  A    between atoms: C_14  and  C_15
REMARK    5  A    between atoms: C_15  and  C_16
REMARK                            x       y       z     vdW  Elec       q    Type
REMARK                         _______ _______ _______ _____ _____    ______ ____
ROOT
ATOM      1  C   UNL     1       2.692   6.944  18.682  0.00  0.00    +0.000 C 
ATOM      2  O   UNL     1       2.383   6.297  17.676  0.00  0.00    +0.000 OA
ATOM      3  N   UNL     1       3.836   6.522  19.400  0.00  0.00    +0.000 N 
ATOM      4  H   UNL     1       4.146   7.107  20.165  0.00  0.00    +0.000 HD
ENDROOT
BRANCH   1   7
ATOM      5  C   UNL     1       1.102   7.497  21.420  0.00  0.00    +0.000 C 
ATOM      6  C   UNL     1       1.402   8.447  20.322  0.00  0.00    +0.000 A 
ATOM      7  C   UNL     1       1.830   8.110  19.032  0.00  0.00    +0.000 A 
ATOM      8  O   UNL     1       1.179   9.004  18.183  0.00  0.00    +0.000 OA
ATOM      9  C   UNL     1       0.524   9.945  18.993  0.00  0.00    +0.000 A 
ATOM     10  C   UNL     1      -0.466  10.879  18.697  0.00  0.00    +0.000 A 
ATOM     11  F   UNL     1      -1.073  10.915  17.507  0.00  0.00    +0.000 F 
ATOM     12  C   UNL     1      -0.953  11.715  19.730  0.00  0.00    +0.000 A 
ATOM     13  C   UNL     1      -0.397  11.681  21.010  0.00  0.00    +0.000 A 
ATOM     14  C   UNL     1       0.551  10.708  21.321  0.00  0.00    +0.000 A 
ATOM     15  C   UNL     1       0.939   9.792  20.313  0.00  0.00    +0.000 A 
ENDBRANCH   1   7
BRANCH   3  16
ATOM     16  C   UNL     1       4.785   5.505  18.778  0.00  0.00    +0.000 C 
ATOM     17  C   UNL     1       6.185   5.989  18.262  0.00  0.00    +0.000 C 
ATOM     18  C   UNL     1       7.005   4.781  17.678  0.00  0.00    +0.000 C 
ATOM     19  C   UNL     1       6.234   4.097  16.538  0.00  0.00    +0.000 C 
ATOM     20  N   UNL     1       4.937   4.768  16.336  0.00  0.00    +0.000 NA
ATOM     21  C   UNL     1       5.230   6.178  15.967  0.00  0.00    +0.000 C 
ATOM     22  C   UNL     1       5.988   6.931  17.071  0.00  0.00    +0.000 C 
ATOM     23  C   UNL     1       4.107   4.704  17.589  0.00  0.00    +0.000 C 
BRANCH  23  24
ATOM     24  C   UNL     1       3.823   3.257  18.106  0.00  0.00    +0.000 C 
BRANCH  24  25
ATOM     25  C   UNL     1       3.025   2.979  19.355  0.00  0.00    +0.000 A 
ATOM     26  C   UNL     1       1.670   3.335  19.363  0.00  0.00    +0.000 A 
ATOM     27  C   UNL     1       0.925   3.268  20.542  0.00  0.00    +0.000 A 
ATOM     28  C   UNL     1       1.561   2.842  21.679  0.00  0.00    +0.000 A 
ATOM     29  N   UNL     1       2.869   2.454  21.718  0.00  0.00    +0.000 NA
ATOM     30  C   UNL     1       3.562   2.532  20.551  0.00  0.00    +0.000 A 
ENDBRANCH  24  25
ENDBRANCH  23  24
ENDBRANCH   3  16
TORSDOF 4
ENDMDL
