MODEL 1
REMARK VINA RESULT:      -8.0      0.000      0.000
REMARK  Name = 
REMARK  3 active torsions:
REMARK  status: ('A' for Active; 'I' for Inactive)
REMARK    1  A    between atoms: C_2  and  C_3
REMARK    2  A    between atoms: C_2  and  C_8
REMARK    3  A    between atoms: C_9  and  C_10
REMARK                            x       y       z     vdW  Elec       q    Type
REMARK                         _______ _______ _______ _____ _____    ______ ____
ROOT
ATOM      1  C   UNL     1       6.138   4.407  17.795  0.00  0.00    +0.000 A 
ATOM      2  C   UNL     1       5.495   4.197  16.567  0.00  0.00    +0.000 A 
ATOM      3  N   UNL     1       4.174   3.803  16.551  0.00  0.00    +0.000 N 
ATOM      4  O   UNL     1       3.538   3.693  15.460  0.00  0.00    +0.000 OA
ATOM      5  C   UNL     1       3.502   3.516  17.764  0.00  0.00    +0.000 A 
ATOM      6  C   UNL     1       2.165   3.056  17.785  0.00  0.00    +0.000 A 
ATOM      7  C   UNL     1       1.519   2.755  18.988  0.00  0.00    +0.000 A 
ATOM      8  C   UNL     1       2.192   2.920  20.192  0.00  0.00    +0.000 A 
ATOM      9 CL   UNL     1       1.422   2.524  21.674  0.00  0.00    +0.000 Cl
ATOM     10  C   UNL     1       3.497   3.402  20.198  0.00  0.00    +0.000 A 
ATOM     11  C   UNL     1       4.161   3.710  18.992  0.00  0.00    +0.000 A 
ATOM     12  N   UNL     1       5.461   4.228  19.001  0.00  0.00    +0.000 N 
ATOM     13  O   UNL     1       5.958   4.594  20.117  0.00  0.00    +0.000 OA
ENDROOT
BRANCH   2  14
ATOM     14  C   UNL     1       6.096   4.395  15.215  0.00  0.00    +0.000 C 
ATOM     15  F   UNL     1       7.444   4.570  15.227  0.00  0.00    +0.000 F 
ATOM     16  F   UNL     1       5.931   3.323  14.391  0.00  0.00    +0.000 F 
ATOM     17  F   UNL     1       5.583   5.472  14.562  0.00  0.00    +0.000 F 
ENDBRANCH   2  14
BRANCH   1  19
ATOM     18  O   UNL     1       8.418   4.156  17.831  0.00  0.00    +0.000 OA
ATOM     19  C   UNL     1       7.498   4.967  17.914  0.00  0.00    +0.000 C 
BRANCH  19  20
ATOM     20  C   UNL     1       7.681   6.400  18.031  0.00  0.00    +0.000 A 
ATOM     21  C   UNL     1       8.372   7.140  18.970  0.00  0.00    +0.000 A 
ATOM     22  C   UNL     1       8.428   8.466  18.480  0.00  0.00    +0.000 A 
ATOM     23  C   UNL     1       7.694   8.475  17.317  0.00  0.00    +0.000 A 
ATOM     24  O   UNL     1       7.199   7.234  17.055  0.00  0.00    +0.000 OA
ENDBRANCH  19  20
ENDBRANCH   1  19
TORSDOF 3
ENDMDL
MODEL 2
REMARK VINA RESULT:      -7.8      2.344      3.304
REMARK  Name = 
REMARK  3 active torsions:
REMARK  status: ('A' for Active; 'I' for Inactive)
REMARK    1  A    between atoms: C_2  and  C_3
REMARK    2  A    between atoms: C_2  and  C_8
REMARK    3  A    between atoms: C_9  and  C_10
REMARK                            x       y       z     vdW  Elec       q    Type
REMARK                         _______ _______ _______ _____ _____    ______ ____
ROOT
ATOM      1  C   UNL     1       5.215   4.880  17.969  0.00  0.00    +0.000 A 
ATOM      2  C   UNL     1       4.480   6.048  17.718  0.00  0.00    +0.000 A 
ATOM      3  N   UNL     1       3.320   6.285  18.425  0.00  0.00    +0.000 N 
ATOM      4  O   UNL     1       2.682   7.372  18.288  0.00  0.00    +0.000 OA
ATOM      5  C   UNL     1       2.823   5.311  19.324  0.00  0.00    +0.000 A 
ATOM      6  C   UNL     1       1.608   5.494  20.026  0.00  0.00    +0.000 A 
ATOM      7  C   UNL     1       1.116   4.516  20.895  0.00  0.00    +0.000 A 
ATOM      8  C   UNL     1       1.834   3.342  21.089  0.00  0.00    +0.000 A 
ATOM      9 CL   UNL     1       1.225   2.119  22.129  0.00  0.00    +0.000 Cl
ATOM     10  C   UNL     1       3.047   3.153  20.435  0.00  0.00    +0.000 A 
ATOM     11  C   UNL     1       3.556   4.132  19.556  0.00  0.00    +0.000 A 
ATOM     12  N   UNL     1       4.793   3.957  18.926  0.00  0.00    +0.000 N 
ATOM     13  O   UNL     1       5.534   2.992  19.307  0.00  0.00    +0.000 OA
ENDROOT
BRANCH   2  14
ATOM     14  C   UNL     1       4.847   7.126  16.754  0.00  0.00    +0.000 C 
ATOM     15  F   UNL     1       4.827   6.738  15.452  0.00  0.00    +0.000 F 
ATOM     16  F   UNL     1       3.986   8.182  16.775  0.00  0.00    +0.000 F 
ATOM     17  F   UNL     1       6.090   7.633  16.978  0.00  0.00    +0.000 F 
ENDBRANCH   2  14
BRANCH   1  19
ATOM     18  O   UNL     1       7.468   4.496  18.166  0.00  0.00    +0.000 OA
ATOM     19  C   UNL     1       6.536   4.609  17.372  0.00  0.00    +0.000 C 
BRANCH  19  20
ATOM     20  C   UNL     1       6.655   4.409  15.941  0.00  0.00    +0.000 A 
ATOM     21  C   UNL     1       5.935   3.596  15.088  0.00  0.00    +0.000 A 
ATOM     22  C   UNL     1       6.301   3.963  13.772  0.00  0.00    +0.000 A 
ATOM     23  C   UNL     1       7.286   4.915  13.901  0.00  0.00    +0.000 A 
ATOM     24  O   UNL     1       7.540   5.164  15.215  0.00  0.00    +0.000 OA
ENDBRANCH  19  20
ENDBRANCH   1  19
TORSDOF 3
ENDMDL
MODEL 3
REMARK VINA RESULT:      -7.4      3.280      5.496
REMARK  Name = 
REMARK  3 active torsions:
REMARK  status: ('A' for Active; 'I' for Inactive)
REMARK    1  A    between atoms: C_2  and  C_3
REMARK    2  A    between atoms: C_2  and  C_8
REMARK    3  A    between atoms: C_9  and  C_10
REMARK                            x       y       z     vdW  Elec       q    Type
REMARK                         _______ _______ _______ _____ _____    ______ ____
ROOT
ATOM      1  C   UNL     1       5.527   4.322  17.748  0.00  0.00    +0.000 A 
ATOM      2  C   UNL     1       6.610   5.209  17.675  0.00  0.00    +0.000 A 
ATOM      3  N   UNL     1       7.138   5.535  16.443  0.00  0.00    +0.000 N 
ATOM      4  O   UNL     1       8.056   6.403  16.335  0.00  0.00    +0.000 OA
ATOM      5  C   UNL     1       6.656   4.902  15.272  0.00  0.00    +0.000 A 
ATOM      6  C   UNL     1       7.210   5.169  13.998  0.00  0.00    +0.000 A 
ATOM      7  C   UNL     1       6.741   4.521  12.852  0.00  0.00    +0.000 A 
ATOM      8  C   UNL     1       5.702   3.605  12.954  0.00  0.00    +0.000 A 
ATOM      9 CL   UNL     1       5.137   2.779  11.558  0.00  0.00    +0.000 Cl
ATOM     10  C   UNL     1       5.119   3.350  14.191  0.00  0.00    +0.000 A 
ATOM     11  C   UNL     1       5.582   3.997  15.356  0.00  0.00    +0.000 A 
ATOM     12  N   UNL     1       4.972   3.767  16.595  0.00  0.00    +0.000 N 
ATOM     13  O   UNL     1       3.877   3.114  16.617  0.00  0.00    +0.000 OA
ENDROOT
BRANCH   2  14
ATOM     14  C   UNL     1       7.261   5.898  18.827  0.00  0.00    +0.000 C 
ATOM     15  F   UNL     1       6.526   5.883  19.971  0.00  0.00    +0.000 F 
ATOM     16  F   UNL     1       8.435   5.320  19.206  0.00  0.00    +0.000 F 
ATOM     17  F   UNL     1       7.535   7.207  18.573  0.00  0.00    +0.000 F 
ENDBRANCH   2  14
BRANCH   1  19
ATOM     18  O   UNL     1       5.280   3.130  19.693  0.00  0.00    +0.000 OA
ATOM     19  C   UNL     1       4.803   4.026  18.999  0.00  0.00    +0.000 C 
BRANCH  19  20
ATOM     20  C   UNL     1       3.661   4.832  19.380  0.00  0.00    +0.000 A 
ATOM     21  C   UNL     1       2.642   4.575  20.276  0.00  0.00    +0.000 A 
ATOM     22  C   UNL     1       1.930   5.785  20.440  0.00  0.00    +0.000 A 
ATOM     23  C   UNL     1       2.500   6.685  19.570  0.00  0.00    +0.000 A 
ATOM     24  O   UNL     1       3.527   6.106  18.888  0.00  0.00    +0.000 OA
ENDBRANCH  19  20
ENDBRANCH   1  19
TORSDOF 3
ENDMDL
MODEL 4
REMARK VINA RESULT:      -7.3      4.054      5.101
REMARK  Name = 
REMARK  3 active torsions:
REMARK  status: ('A' for Active; 'I' for Inactive)
REMARK    1  A    between atoms: C_2  and  C_3
REMARK    2  A    between atoms: C_2  and  C_8
REMARK    3  A    between atoms: C_9  and  C_10
REMARK                            x       y       z     vdW  Elec       q    Type
REMARK                         _______ _______ _______ _____ _____    ______ ____
ROOT
ATOM      1  C   UNL     1       3.430   4.693  18.505  0.00  0.00    +0.000 A 
ATOM      2  C   UNL     1       2.976   4.057  19.670  0.00  0.00    +0.000 A 
ATOM      3  N   UNL     1       2.186   4.755  20.559  0.00  0.00    +0.000 N 
ATOM      4  O   UNL     1       1.684   4.184  21.574  0.00  0.00    +0.000 OA
ATOM      5  C   UNL     1       1.919   6.129  20.348  0.00  0.00    +0.000 A 
ATOM      6  C   UNL     1       1.159   6.891  21.266  0.00  0.00    +0.000 A 
ATOM      7  C   UNL     1       0.920   8.252  21.058  0.00  0.00    +0.000 A 
ATOM      8  C   UNL     1       1.425   8.875  19.924  0.00  0.00    +0.000 A 
ATOM      9 CL   UNL     1       1.166  10.554  19.672  0.00  0.00    +0.000 Cl
ATOM     10  C   UNL     1       2.147   8.140  18.990  0.00  0.00    +0.000 A 
ATOM     11  C   UNL     1       2.395   6.765  19.187  0.00  0.00    +0.000 A 
ATOM     12  N   UNL     1       3.092   6.018  18.230  0.00  0.00    +0.000 N 
ATOM     13  O   UNL     1       3.329   6.555  17.098  0.00  0.00    +0.000 OA
ENDROOT
BRANCH   2  14
ATOM     14  C   UNL     1       3.234   2.639  20.054  0.00  0.00    +0.000 C 
ATOM     15  F   UNL     1       4.396   2.132  19.563  0.00  0.00    +0.000 F 
ATOM     16  F   UNL     1       3.362   2.460  21.399  0.00  0.00    +0.000 F 
ATOM     17  F   UNL     1       2.251   1.793  19.641  0.00  0.00    +0.000 F 
ENDBRANCH   2  14
BRANCH   1  19
ATOM     18  O   UNL     1       3.462   3.315  16.672  0.00  0.00    +0.000 OA
ATOM     19  C   UNL     1       4.155   3.992  17.429  0.00  0.00    +0.000 C 
BRANCH  19  20
ATOM     20  C   UNL     1       5.581   4.196  17.266  0.00  0.00    +0.000 A 
ATOM     21  C   UNL     1       6.334   4.381  16.124  0.00  0.00    +0.000 A 
ATOM     22  C   UNL     1       7.627   4.768  16.549  0.00  0.00    +0.000 A 
ATOM     23  C   UNL     1       7.611   4.710  17.923  0.00  0.00    +0.000 A 
ATOM     24  O   UNL     1       6.385   4.322  18.371  0.00  0.00    +0.000 OA
ENDBRANCH  19  20
ENDBRANCH   1  19
TORSDOF 3
ENDMDL
MODEL 5
REMARK VINA RESULT:      -7.0      7.083      8.306
REMARK  Name = 
REMARK  3 active torsions:
REMARK  status: ('A' for Active; 'I' for Inactive)
REMARK    1  A    between atoms: C_2  and  C_3
REMARK    2  A    between atoms: C_2  and  C_8
REMARK    3  A    between atoms: C_9  and  C_10
REMARK                            x       y       z     vdW  Elec       q    Type
REMARK                         _______ _______ _______ _____ _____    ______ ____
ROOT
ATOM      1  C   UNL     1       1.102   9.439  19.220  0.00  0.00    +0.000 A 
ATOM      2  C   UNL     1       0.946   8.614  20.343  0.00  0.00    +0.000 A 
ATOM      3  N   UNL     1       1.699   7.463  20.450  0.00  0.00    +0.000 N 
ATOM      4  O   UNL     1       1.649   6.744  21.492  0.00  0.00    +0.000 OA
ATOM      5  C   UNL     1       2.548   7.068  19.388  0.00  0.00    +0.000 A 
ATOM      6  C   UNL     1       3.293   5.866  19.437  0.00  0.00    +0.000 A 
ATOM      7  C   UNL     1       4.111   5.475  18.373  0.00  0.00    +0.000 A 
ATOM      8  C   UNL     1       4.210   6.282  17.246  0.00  0.00    +0.000 A 
ATOM      9 CL   UNL     1       5.186   5.797  15.919  0.00  0.00    +0.000 Cl
ATOM     10  C   UNL     1       3.512   7.483  17.189  0.00  0.00    +0.000 A 
ATOM     11  C   UNL     1       2.683   7.891  18.255  0.00  0.00    +0.000 A 
ATOM     12  N   UNL     1       2.009   9.117  18.211  0.00  0.00    +0.000 N 
ATOM     13  O   UNL     1       2.307   9.938  17.282  0.00  0.00    +0.000 OA
ENDROOT
BRANCH   2  14
ATOM     14  C   UNL     1       0.043   8.870  21.504  0.00  0.00    +0.000 C 
ATOM     15  F   UNL     1      -0.690  10.010  21.396  0.00  0.00    +0.000 F 
ATOM     16  F   UNL     1      -0.905   7.907  21.670  0.00  0.00    +0.000 F 
ATOM     17  F   UNL     1       0.715   8.965  22.683  0.00  0.00    +0.000 F 
ENDBRANCH   2  14
BRANCH   1  19
ATOM     18  O   UNL     1       1.110  11.719  19.477  0.00  0.00    +0.000 OA
ATOM     19  C   UNL     1       0.452  10.757  19.085  0.00  0.00    +0.000 C 
BRANCH  19  20
ATOM     20  C   UNL     1      -0.843  10.861  18.443  0.00  0.00    +0.000 A 
ATOM     21  C   UNL     1      -1.457  10.031  17.525  0.00  0.00    +0.000 A 
ATOM     22  C   UNL     1      -2.797  10.469  17.415  0.00  0.00    +0.000 A 
ATOM     23  C   UNL     1      -2.898  11.592  18.203  0.00  0.00    +0.000 A 
ATOM     24  O   UNL     1      -1.706  11.866  18.801  0.00  0.00    +0.000 OA
ENDBRANCH  19  20
ENDBRANCH   1  19
TORSDOF 3
ENDMDL
MODEL 6
REMARK VINA RESULT:      -6.9      4.146      5.111
REMARK  Name = 
REMARK  3 active torsions:
REMARK  status: ('A' for Active; 'I' for Inactive)
REMARK    1  A    between atoms: C_2  and  C_3
REMARK    2  A    between atoms: C_2  and  C_8
REMARK    3  A    between atoms: C_9  and  C_10
REMARK                            x       y       z     vdW  Elec       q    Type
REMARK                         _______ _______ _______ _____ _____    ______ ____
ROOT
ATOM      1  C   UNL     1       3.379   4.922  18.511  0.00  0.00    +0.000 A 
ATOM      2  C   UNL     1       2.968   4.263  19.678  0.00  0.00    +0.000 A 
ATOM      3  N   UNL     1       2.180   4.932  20.593  0.00  0.00    +0.000 N 
ATOM      4  O   UNL     1       1.717   4.338  21.613  0.00  0.00    +0.000 OA
ATOM      5  C   UNL     1       1.874   6.300  20.402  0.00  0.00    +0.000 A 
ATOM      6  C   UNL     1       1.116   7.034  21.345  0.00  0.00    +0.000 A 
ATOM      7  C   UNL     1       0.838   8.390  21.157  0.00  0.00    +0.000 A 
ATOM      8  C   UNL     1       1.301   9.037  20.018  0.00  0.00    +0.000 A 
ATOM      9 CL   UNL     1       0.993  10.711  19.790  0.00  0.00    +0.000 Cl
ATOM     10  C   UNL     1       2.020   8.330  19.061  0.00  0.00    +0.000 A 
ATOM     11  C   UNL     1       2.307   6.960  19.237  0.00  0.00    +0.000 A 
ATOM     12  N   UNL     1       3.001   6.240  18.257  0.00  0.00    +0.000 N 
ATOM     13  O   UNL     1       3.198   6.795  17.126  0.00  0.00    +0.000 OA
ENDROOT
BRANCH   2  14
ATOM     14  C   UNL     1       3.270   2.848  20.042  0.00  0.00    +0.000 C 
ATOM     15  F   UNL     1       3.109   2.567  21.362  0.00  0.00    +0.000 F 
ATOM     16  F   UNL     1       2.448   1.949  19.432  0.00  0.00    +0.000 F 
ATOM     17  F   UNL     1       4.544   2.485  19.732  0.00  0.00    +0.000 F 
ENDBRANCH   2  14
BRANCH   1  19
ATOM     18  O   UNL     1       3.403   3.569  16.659  0.00  0.00    +0.000 OA
ATOM     19  C   UNL     1       4.097   4.251  17.411  0.00  0.00    +0.000 C 
BRANCH  19  20
ATOM     20  C   UNL     1       5.514   4.487  17.223  0.00  0.00    +0.000 A 
ATOM     21  C   UNL     1       6.521   4.672  18.149  0.00  0.00    +0.000 A 
ATOM     22  C   UNL     1       7.742   4.622  17.436  0.00  0.00    +0.000 A 
ATOM     23  C   UNL     1       7.405   4.497  16.109  0.00  0.00    +0.000 A 
ATOM     24  O   UNL     1       6.052   4.457  15.961  0.00  0.00    +0.000 OA
ENDBRANCH  19  20
ENDBRANCH   1  19
TORSDOF 3
ENDMDL
MODEL 7
REMARK VINA RESULT:      -6.8      4.303      4.949
REMARK  Name = 
REMARK  3 active torsions:
REMARK  status: ('A' for Active; 'I' for Inactive)
REMARK    1  A    between atoms: C_2  and  C_3
REMARK    2  A    between atoms: C_2  and  C_8
REMARK    3  A    between atoms: C_9  and  C_10
REMARK                            x       y       z     vdW  Elec       q    Type
REMARK                         _______ _______ _______ _____ _____    ______ ____
ROOT
ATOM      1  C   UNL     1       3.594   5.826  18.721  0.00  0.00    +0.000 A 
ATOM      2  C   UNL     1       3.058   4.924  19.652  0.00  0.00    +0.000 A 
ATOM      3  N   UNL     1       2.023   5.328  20.469  0.00  0.00    +0.000 N 
ATOM      4  O   UNL     1       1.456   4.513  21.257  0.00  0.00    +0.000 OA
ATOM      5  C   UNL     1       1.572   6.670  20.436  0.00  0.00    +0.000 A 
ATOM      6  C   UNL     1       0.550   7.135  21.297  0.00  0.00    +0.000 A 
ATOM      7  C   UNL     1       0.128   8.467  21.271  0.00  0.00    +0.000 A 
ATOM      8  C   UNL     1       0.710   9.357  20.376  0.00  0.00    +0.000 A 
ATOM      9 CL   UNL     1       0.223  11.003  20.355  0.00  0.00    +0.000 Cl
ATOM     10  C   UNL     1       1.693   8.915  19.497  0.00  0.00    +0.000 A 
ATOM     11  C   UNL     1       2.128   7.573  19.512  0.00  0.00    +0.000 A 
ATOM     12  N   UNL     1       3.093   7.122  18.604  0.00  0.00    +0.000 N 
ATOM     13  O   UNL     1       3.427   7.893  17.645  0.00  0.00    +0.000 OA
ENDROOT
BRANCH   2  14
ATOM     14  C   UNL     1       3.478   3.505  19.844  0.00  0.00    +0.000 C 
ATOM     15  F   UNL     1       4.811   3.293  19.679  0.00  0.00    +0.000 F 
ATOM     16  F   UNL     1       3.244   3.040  21.103  0.00  0.00    +0.000 F 
ATOM     17  F   UNL     1       2.853   2.651  18.990  0.00  0.00    +0.000 F 
ENDBRANCH   2  14
BRANCH   1  19
ATOM     18  O   UNL     1       4.176   4.797  16.755  0.00  0.00    +0.000 OA
ATOM     19  C   UNL     1       4.598   5.446  17.710  0.00  0.00    +0.000 C 
BRANCH  19  20
ATOM     20  C   UNL     1       5.965   5.911  17.839  0.00  0.00    +0.000 A 
ATOM     21  C   UNL     1       6.661   6.858  17.114  0.00  0.00    +0.000 A 
ATOM     22  C   UNL     1       7.871   7.091  17.808  0.00  0.00    +0.000 A 
ATOM     23  C   UNL     1       7.882   6.210  18.864  0.00  0.00    +0.000 A 
ATOM     24  O   UNL     1       6.748   5.457  18.870  0.00  0.00    +0.000 OA
ENDBRANCH  19  20
ENDBRANCH   1  19
TORSDOF 3
ENDMDL
MODEL 8
REMARK VINA RESULT:      -6.7     10.617     11.606
REMARK  Name = 
REMARK  3 active torsions:
REMARK  status: ('A' for Active; 'I' for Inactive)
REMARK    1  A    between atoms: C_2  and  C_3
REMARK    2  A    between atoms: C_2  and  C_8
REMARK    3  A    between atoms: C_9  and  C_10
REMARK                            x       y       z     vdW  Elec       q    Type
REMARK                         _______ _______ _______ _____ _____    ______ ____
ROOT
ATOM      1  C   UNL     1      -1.542  12.160  20.205  0.00  0.00    +0.000 A 
ATOM      2  C   UNL     1      -2.826  12.569  20.594  0.00  0.00    +0.000 A 
ATOM      3  N   UNL     1      -3.894  12.346  19.750  0.00  0.00    +0.000 N 
ATOM      4  O   UNL     1      -5.079  12.620  20.109  0.00  0.00    +0.000 OA
ATOM      5  C   UNL     1      -3.682  11.799  18.462  0.00  0.00    +0.000 A 
ATOM      6  C   UNL     1      -4.744  11.607  17.548  0.00  0.00    +0.000 A 
ATOM      7  C   UNL     1      -4.519  11.086  16.271  0.00  0.00    +0.000 A 
ATOM      8  C   UNL     1      -3.230  10.737  15.887  0.00  0.00    +0.000 A 
ATOM      9 CL   UNL     1      -2.935  10.126  14.309  0.00  0.00    +0.000 Cl
ATOM     10  C   UNL     1      -2.174  10.886  16.779  0.00  0.00    +0.000 A 
ATOM     11  C   UNL     1      -2.387  11.409  18.072  0.00  0.00    +0.000 A 
ATOM     12  N   UNL     1      -1.330  11.526  18.981  0.00  0.00    +0.000 N 
ATOM     13  O   UNL     1      -0.217  10.977  18.688  0.00  0.00    +0.000 OA
ENDROOT
BRANCH   2  14
ATOM     14  C   UNL     1      -3.187  13.216  21.889  0.00  0.00    +0.000 C 
ATOM     15  F   UNL     1      -3.834  12.395  22.759  0.00  0.00    +0.000 F 
ATOM     16  F   UNL     1      -2.104  13.632  22.603  0.00  0.00    +0.000 F 
ATOM     17  F   UNL     1      -3.990  14.303  21.730  0.00  0.00    +0.000 F 
ENDBRANCH   2  14
BRANCH   1  19
ATOM     18  O   UNL     1       0.262  13.279  21.073  0.00  0.00    +0.000 OA
ATOM     19  C   UNL     1      -0.367  12.223  21.094  0.00  0.00    +0.000 C 
BRANCH  19  20
ATOM     20  C   UNL     1      -0.072  11.115  21.980  0.00  0.00    +0.000 A 
ATOM     21  C   UNL     1      -0.827  10.548  22.987  0.00  0.00    +0.000 A 
ATOM     22  C   UNL     1      -0.169   9.355  23.366  0.00  0.00    +0.000 A 
ATOM     23  C   UNL     1       0.994   9.310  22.632  0.00  0.00    +0.000 A 
ATOM     24  O   UNL     1       1.085  10.396  21.816  0.00  0.00    +0.000 OA
ENDBRANCH  19  20
ENDBRANCH   1  19
TORSDOF 3
ENDMDL
MODEL 9
REMARK VINA RESULT:      -6.6      4.602      5.560
REMARK  Name = 
REMARK  3 active torsions:
REMARK  status: ('A' for Active; 'I' for Inactive)
REMARK    1  A    between atoms: C_2  and  C_3
REMARK    2  A    between atoms: C_2  and  C_8
REMARK    3  A    between atoms: C_9  and  C_10
REMARK                            x       y       z     vdW  Elec       q    Type
REMARK                         _______ _______ _______ _____ _____    ______ ____
ROOT
ATOM      1  C   UNL     1       3.398   5.444  18.437  0.00  0.00    +0.000 A 
ATOM      2  C   UNL     1       2.702   5.156  19.620  0.00  0.00    +0.000 A 
ATOM      3  N   UNL     1       1.926   6.135  20.206  0.00  0.00    +0.000 N 
ATOM      4  O   UNL     1       1.213   5.881  21.224  0.00  0.00    +0.000 OA
ATOM      5  C   UNL     1       1.912   7.446  19.674  0.00  0.00    +0.000 A 
ATOM      6  C   UNL     1       1.174   8.490  20.279  0.00  0.00    +0.000 A 
ATOM      7  C   UNL     1       1.185   9.786  19.756  0.00  0.00    +0.000 A 
ATOM      8  C   UNL     1       1.925  10.062  18.613  0.00  0.00    +0.000 A 
ATOM      9 CL   UNL     1       1.973  11.657  17.979  0.00  0.00    +0.000 Cl
ATOM     10  C   UNL     1       2.633   9.046  17.981  0.00  0.00    +0.000 A 
ATOM     11  C   UNL     1       2.630   7.732  18.497  0.00  0.00    +0.000 A 
ATOM     12  N   UNL     1       3.314   6.702  17.842  0.00  0.00    +0.000 N 
ATOM     13  O   UNL     1       3.777   6.931  16.676  0.00  0.00    +0.000 OA
ENDROOT
BRANCH   2  14
ATOM     14  C   UNL     1       2.677   3.843  20.328  0.00  0.00    +0.000 C 
ATOM     15  F   UNL     1       3.831   3.132  20.220  0.00  0.00    +0.000 F 
ATOM     16  F   UNL     1       2.511   3.961  21.675  0.00  0.00    +0.000 F 
ATOM     17  F   UNL     1       1.686   3.023  19.883  0.00  0.00    +0.000 F 
ENDBRANCH   2  14
BRANCH   1  19
ATOM     18  O   UNL     1       3.440   3.660  16.996  0.00  0.00    +0.000 OA
ATOM     19  C   UNL     1       4.132   4.428  17.661  0.00  0.00    +0.000 C 
BRANCH  19  20
ATOM     20  C   UNL     1       5.582   4.437  17.648  0.00  0.00    +0.000 A 
ATOM     21  C   UNL     1       6.469   4.290  16.601  0.00  0.00    +0.000 A 
ATOM     22  C   UNL     1       7.749   4.618  17.104  0.00  0.00    +0.000 A 
ATOM     23  C   UNL     1       7.582   4.859  18.448  0.00  0.00    +0.000 A 
ATOM     24  O   UNL     1       6.275   4.710  18.800  0.00  0.00    +0.000 OA
ENDBRANCH  19  20
ENDBRANCH   1  19
TORSDOF 3
ENDMDL
