MODEL 1
REMARK VINA RESULT:      -6.1      0.000      0.000
REMARK  Name = 
REMARK  7 active torsions:
REMARK  status: ('A' for Active; 'I' for Inactive)
REMARK    1  A    between atoms: C_1  and  N_2
REMARK    2  A    between atoms: N_2  and  C_3
REMARK    3  A    between atoms: N_2  and  C_10
REMARK    4  A    between atoms: C_3  and  C_4
REMARK    5  A    between atoms: C_10  and  C_11
REMARK    6  A    between atoms: C_11  and  C_12
REMARK    7  A    between atoms: C_11  and  N_17
REMARK                            x       y       z     vdW  Elec       q    Type
REMARK                         _______ _______ _______ _____ _____    ______ ____
ROOT
ATOM      1  C   UNL     1       4.165   5.112  17.860  0.00  0.00    +0.000 C 
ENDROOT
BRANCH   1   2
ATOM      2  N   UNL     1       4.697   5.357  16.474  0.00  0.00    +0.000 NA
ATOM      3  C   UNL     1       5.869   4.510  16.124  0.00  0.00    +0.000 C 
ATOM      4  C   UNL     1       7.156   4.877  16.886  0.00  0.00    +0.000 C 
ATOM      5  O   UNL     1       7.517   6.250  16.674  0.00  0.00    +0.000 OA
ATOM      6  C   UNL     1       6.439   7.125  17.023  0.00  0.00    +0.000 C 
ATOM      7  C   UNL     1       5.154   6.758  16.257  0.00  0.00    +0.000 C 
ENDBRANCH   1   2
BRANCH   1   8
ATOM      8  C   UNL     1       3.946   3.622  18.145  0.00  0.00    +0.000 A 
ATOM      9  C   UNL     1       3.074   2.727  17.544  0.00  0.00    +0.000 A 
ATOM     10  C   UNL     1       3.130   1.424  18.121  0.00  0.00    +0.000 A 
ATOM     11  C   UNL     1       4.066   1.346  19.125  0.00  0.00    +0.000 A 
ATOM     12  S   UNL     1       4.807   2.854  19.428  0.00  0.00    +0.000 S 
ENDBRANCH   1   8
BRANCH   1  13
ATOM     13  C   UNL     1       2.808   5.894  18.084  0.00  0.00    +0.000 C 
BRANCH  13  15
ATOM     14  C   UNL     1       2.358   8.264  18.347  0.00  0.00    +0.000 C 
ATOM     15  N   UNL     1       2.772   7.040  19.041  0.00  0.00    +0.000 NA
BRANCH  15  16
ATOM     16  C   UNL     1       1.825   6.680  20.125  0.00  0.00    +0.000 C 
BRANCH  16  17
ATOM     17  C   UNL     1       1.686   5.213  20.461  0.00  0.00    +0.000 A 
ATOM     18  C   UNL     1       2.467   4.666  21.486  0.00  0.00    +0.000 A 
ATOM     19  C   UNL     1       2.288   3.335  21.830  0.00  0.00    +0.000 A 
ATOM     20  N   UNL     1       1.396   2.521  21.230  0.00  0.00    +0.000 NA
ATOM     21  C   UNL     1       0.642   3.069  20.251  0.00  0.00    +0.000 A 
ATOM     22  C   UNL     1       0.742   4.391  19.842  0.00  0.00    +0.000 A 
ENDBRANCH  16  17
ENDBRANCH  15  16
ENDBRANCH  13  15
ENDBRANCH   1  13
TORSDOF 6
ENDMDL
MODEL 2
REMARK VINA RESULT:      -6.1      0.687      1.344
REMARK  Name = 
REMARK  7 active torsions:
REMARK  status: ('A' for Active; 'I' for Inactive)
REMARK    1  A    between atoms: C_1  and  N_2
REMARK    2  A    between atoms: N_2  and  C_3
REMARK    3  A    between atoms: N_2  and  C_10
REMARK    4  A    between atoms: C_3  and  C_4
REMARK    5  A    between atoms: C_10  and  C_11
REMARK    6  A    between atoms: C_11  and  C_12
REMARK    7  A    between atoms: C_11  and  N_17
REMARK                            x       y       z     vdW  Elec       q    Type
REMARK                         _______ _______ _______ _____ _____    ______ ____
ROOT
ATOM      1  C   UNL     1       4.263   5.136  17.964  0.00  0.00    +0.000 C 
ENDROOT
BRANCH   1   2
ATOM      2  N   UNL     1       4.765   5.282  16.553  0.00  0.00    +0.000 NA
ATOM      3  C   UNL     1       5.953   4.440  16.250  0.00  0.00    +0.000 C 
ATOM      4  C   UNL     1       7.242   4.899  16.956  0.00  0.00    +0.000 C 
ATOM      5  O   UNL     1       7.563   6.259  16.628  0.00  0.00    +0.000 OA
ATOM      6  C   UNL     1       6.468   7.132  16.926  0.00  0.00    +0.000 C 
ATOM      7  C   UNL     1       5.180   6.673  16.216  0.00  0.00    +0.000 C 
ENDBRANCH   1   2
BRANCH   1   8
ATOM      8  C   UNL     1       4.145   3.669  18.391  0.00  0.00    +0.000 A 
ATOM      9  C   UNL     1       4.787   2.993  19.417  0.00  0.00    +0.000 A 
ATOM     10  C   UNL     1       4.446   1.610  19.471  0.00  0.00    +0.000 A 
ATOM     11  C   UNL     1       3.527   1.269  18.507  0.00  0.00    +0.000 A 
ATOM     12  S   UNL     1       3.147   2.586  17.490  0.00  0.00    +0.000 S 
ENDBRANCH   1   8
BRANCH   1  13
ATOM     13  C   UNL     1       2.859   5.846  18.135  0.00  0.00    +0.000 C 
BRANCH  13  15
ATOM     14  C   UNL     1       2.424   8.218  18.406  0.00  0.00    +0.000 C 
ATOM     15  N   UNL     1       2.719   6.966  19.112  0.00  0.00    +0.000 NA
BRANCH  15  16
ATOM     16  C   UNL     1       1.628   6.600  20.049  0.00  0.00    +0.000 C 
BRANCH  16  17
ATOM     17  C   UNL     1       1.574   5.164  20.517  0.00  0.00    +0.000 A 
ATOM     18  C   UNL     1       0.730   4.259  19.863  0.00  0.00    +0.000 A 
ATOM     19  C   UNL     1       0.733   2.931  20.260  0.00  0.00    +0.000 A 
ATOM     20  N   UNL     1       1.509   2.447  21.250  0.00  0.00    +0.000 NA
ATOM     21  C   UNL     1       2.327   3.332  21.862  0.00  0.00    +0.000 A 
ATOM     22  C   UNL     1       2.401   4.678  21.533  0.00  0.00    +0.000 A 
ENDBRANCH  16  17
ENDBRANCH  15  16
ENDBRANCH  13  15
ENDBRANCH   1  13
TORSDOF 6
ENDMDL
MODEL 3
REMARK VINA RESULT:      -6.1      2.785      5.014
REMARK  Name = 
REMARK  7 active torsions:
REMARK  status: ('A' for Active; 'I' for Inactive)
REMARK    1  A    between atoms: C_1  and  N_2
REMARK    2  A    between atoms: N_2  and  C_3
REMARK    3  A    between atoms: N_2  and  C_10
REMARK    4  A    between atoms: C_3  and  C_4
REMARK    5  A    between atoms: C_10  and  C_11
REMARK    6  A    between atoms: C_11  and  C_12
REMARK    7  A    between atoms: C_11  and  N_17
REMARK                            x       y       z     vdW  Elec       q    Type
REMARK                         _______ _______ _______ _____ _____    ______ ____
ROOT
ATOM      1  C   UNL     1       3.921   4.544  18.700  0.00  0.00    +0.000 C 
ENDROOT
BRANCH   1   2
ATOM      2  N   UNL     1       3.719   3.305  19.530  0.00  0.00    +0.000 NA
ATOM      3  C   UNL     1       3.601   2.059  18.726  0.00  0.00    +0.000 C 
ATOM      4  C   UNL     1       2.294   1.958  17.917  0.00  0.00    +0.000 C 
ATOM      5  O   UNL     1       1.143   2.051  18.768  0.00  0.00    +0.000 OA
ATOM      6  C   UNL     1       1.177   3.250  19.550  0.00  0.00    +0.000 C 
ATOM      7  C   UNL     1       2.483   3.348  20.361  0.00  0.00    +0.000 C 
ENDBRANCH   1   2
BRANCH   1   8
ATOM      8  C   UNL     1       5.267   4.542  17.969  0.00  0.00    +0.000 A 
ATOM      9  C   UNL     1       6.546   4.721  18.472  0.00  0.00    +0.000 A 
ATOM     10  C   UNL     1       7.551   4.697  17.461  0.00  0.00    +0.000 A 
ATOM     11  C   UNL     1       7.019   4.467  16.214  0.00  0.00    +0.000 A 
ATOM     12  S   UNL     1       5.316   4.369  16.252  0.00  0.00    +0.000 S 
ENDBRANCH   1   8
BRANCH   1  13
ATOM     13  C   UNL     1       3.814   5.843  19.598  0.00  0.00    +0.000 C 
BRANCH  13  15
ATOM     14  C   UNL     1       2.214   6.598  17.937  0.00  0.00    +0.000 C 
ATOM     15  N   UNL     1       2.845   6.915  19.223  0.00  0.00    +0.000 NA
BRANCH  15  16
ATOM     16  C   UNL     1       1.844   7.007  20.314  0.00  0.00    +0.000 C 
BRANCH  16  17
ATOM     17  C   UNL     1       1.324   8.383  20.660  0.00  0.00    +0.000 A 
ATOM     18  C   UNL     1       1.131   9.321  19.639  0.00  0.00    +0.000 A 
ATOM     19  C   UNL     1       0.595  10.560  19.958  0.00  0.00    +0.000 A 
ATOM     20  N   UNL     1       0.242  10.923  21.207  0.00  0.00    +0.000 NA
ATOM     21  C   UNL     1       0.425  10.001  22.178  0.00  0.00    +0.000 A 
ATOM     22  C   UNL     1       0.945   8.734  21.958  0.00  0.00    +0.000 A 
ENDBRANCH  16  17
ENDBRANCH  15  16
ENDBRANCH  13  15
ENDBRANCH   1  13
TORSDOF 6
ENDMDL
MODEL 4
REMARK VINA RESULT:      -5.9      2.849      6.685
REMARK  Name = 
REMARK  7 active torsions:
REMARK  status: ('A' for Active; 'I' for Inactive)
REMARK    1  A    between atoms: C_1  and  N_2
REMARK    2  A    between atoms: N_2  and  C_3
REMARK    3  A    between atoms: N_2  and  C_10
REMARK    4  A    between atoms: C_3  and  C_4
REMARK    5  A    between atoms: C_10  and  C_11
REMARK    6  A    between atoms: C_11  and  C_12
REMARK    7  A    between atoms: C_11  and  N_17
REMARK                            x       y       z     vdW  Elec       q    Type
REMARK                         _______ _______ _______ _____ _____    ______ ____
ROOT
ATOM      1  C   UNL     1       3.157   5.173  18.287  0.00  0.00    +0.000 C 
ENDROOT
BRANCH   1   2
ATOM      2  N   UNL     1       2.066   4.232  17.852  0.00  0.00    +0.000 NA
ATOM      3  C   UNL     1       1.195   3.769  18.965  0.00  0.00    +0.000 C 
ATOM      4  C   UNL     1       1.891   2.808  19.947  0.00  0.00    +0.000 C 
ATOM      5  O   UNL     1       2.405   1.651  19.271  0.00  0.00    +0.000 OA
ATOM      6  C   UNL     1       3.281   2.026  18.202  0.00  0.00    +0.000 C 
ATOM      7  C   UNL     1       2.582   2.985  17.220  0.00  0.00    +0.000 C 
ENDBRANCH   1   2
BRANCH   1   8
ATOM      8  C   UNL     1       2.603   6.446  18.935  0.00  0.00    +0.000 A 
ATOM      9  C   UNL     1       2.150   6.654  20.229  0.00  0.00    +0.000 A 
ATOM     10  C   UNL     1       1.664   7.977  20.443  0.00  0.00    +0.000 A 
ATOM     11  C   UNL     1       1.788   8.758  19.318  0.00  0.00    +0.000 A 
ATOM     12  S   UNL     1       2.402   7.877  17.992  0.00  0.00    +0.000 S 
ENDBRANCH   1   8
BRANCH   1  13
ATOM     13  C   UNL     1       4.078   5.567  17.062  0.00  0.00    +0.000 C 
BRANCH  13  15
ATOM     14  C   UNL     1       5.932   4.692  18.360  0.00  0.00    +0.000 C 
ATOM     15  N   UNL     1       5.486   5.071  17.015  0.00  0.00    +0.000 NA
BRANCH  15  16
ATOM     16  C   UNL     1       5.516   3.916  16.085  0.00  0.00    +0.000 C 
BRANCH  16  17
ATOM     17  C   UNL     1       6.197   4.122  14.751  0.00  0.00    +0.000 A 
ATOM     18  C   UNL     1       5.736   3.424  13.629  0.00  0.00    +0.000 A 
ATOM     19  C   UNL     1       6.326   3.666  12.398  0.00  0.00    +0.000 A 
ATOM     20  N   UNL     1       7.332   4.543  12.210  0.00  0.00    +0.000 NA
ATOM     21  C   UNL     1       7.756   5.217  13.302  0.00  0.00    +0.000 A 
ATOM     22  C   UNL     1       7.225   5.051  14.573  0.00  0.00    +0.000 A 
ENDBRANCH  16  17
ENDBRANCH  15  16
ENDBRANCH  13  15
ENDBRANCH   1  13
TORSDOF 6
ENDMDL
MODEL 5
REMARK VINA RESULT:      -5.8      2.761      5.379
REMARK  Name = 
REMARK  7 active torsions:
REMARK  status: ('A' for Active; 'I' for Inactive)
REMARK    1  A    between atoms: C_1  and  N_2
REMARK    2  A    between atoms: N_2  and  C_3
REMARK    3  A    between atoms: N_2  and  C_10
REMARK    4  A    between atoms: C_3  and  C_4
REMARK    5  A    between atoms: C_10  and  C_11
REMARK    6  A    between atoms: C_11  and  C_12
REMARK    7  A    between atoms: C_11  and  N_17
REMARK                            x       y       z     vdW  Elec       q    Type
REMARK                         _______ _______ _______ _____ _____    ______ ____
ROOT
ATOM      1  C   UNL     1       3.581   5.015  18.133  0.00  0.00    +0.000 C 
ENDROOT
BRANCH   1   2
ATOM      2  N   UNL     1       3.524   4.087  19.316  0.00  0.00    +0.000 NA
ATOM      3  C   UNL     1       3.792   2.665  18.975  0.00  0.00    +0.000 C 
ATOM      4  C   UNL     1       2.672   1.995  18.158  0.00  0.00    +0.000 C 
ATOM      5  O   UNL     1       1.413   2.060  18.844  0.00  0.00    +0.000 OA
ATOM      6  C   UNL     1       1.077   3.412  19.175  0.00  0.00    +0.000 C 
ATOM      7  C   UNL     1       2.198   4.079  19.995  0.00  0.00    +0.000 C 
ENDBRANCH   1   2
BRANCH   1   8
ATOM      8  C   UNL     1       4.818   4.772  17.261  0.00  0.00    +0.000 A 
ATOM      9  C   UNL     1       4.907   4.256  15.978  0.00  0.00    +0.000 A 
ATOM     10  C   UNL     1       6.251   4.140  15.517  0.00  0.00    +0.000 A 
ATOM     11  C   UNL     1       7.154   4.599  16.445  0.00  0.00    +0.000 A 
ATOM     12  S   UNL     1       6.393   5.085  17.893  0.00  0.00    +0.000 S 
ENDBRANCH   1   8
BRANCH   1  13
ATOM     13  C   UNL     1       3.561   6.525  18.604  0.00  0.00    +0.000 C 
BRANCH  13  15
ATOM     14  C   UNL     1       1.973   7.654  20.050  0.00  0.00    +0.000 C 
ATOM     15  N   UNL     1       2.259   7.255  18.668  0.00  0.00    +0.000 NA
BRANCH  15  16
ATOM     16  C   UNL     1       2.369   8.433  17.773  0.00  0.00    +0.000 C 
BRANCH  16  17
ATOM     17  C   UNL     1       1.440   9.594  18.042  0.00  0.00    +0.000 A 
ATOM     18  C   UNL     1       0.059   9.416  17.899  0.00  0.00    +0.000 A 
ATOM     19  C   UNL     1      -0.790  10.468  18.208  0.00  0.00    +0.000 A 
ATOM     20  N   UNL     1      -0.363  11.670  18.645  0.00  0.00    +0.000 NA
ATOM     21  C   UNL     1       0.972  11.820  18.789  0.00  0.00    +0.000 A 
ATOM     22  C   UNL     1       1.900  10.826  18.514  0.00  0.00    +0.000 A 
ENDBRANCH  16  17
ENDBRANCH  15  16
ENDBRANCH  13  15
ENDBRANCH   1  13
TORSDOF 6
ENDMDL
MODEL 6
REMARK VINA RESULT:      -5.8      2.961      5.489
REMARK  Name = 
REMARK  7 active torsions:
REMARK  status: ('A' for Active; 'I' for Inactive)
REMARK    1  A    between atoms: C_1  and  N_2
REMARK    2  A    between atoms: N_2  and  C_3
REMARK    3  A    between atoms: N_2  and  C_10
REMARK    4  A    between atoms: C_3  and  C_4
REMARK    5  A    between atoms: C_10  and  C_11
REMARK    6  A    between atoms: C_11  and  C_12
REMARK    7  A    between atoms: C_11  and  N_17
REMARK                            x       y       z     vdW  Elec       q    Type
REMARK                         _______ _______ _______ _____ _____    ______ ____
ROOT
ATOM      1  C   UNL     1       3.290   5.222  18.670  0.00  0.00    +0.000 C 
ENDROOT
BRANCH   1   2
ATOM      2  N   UNL     1       3.379   4.484  19.978  0.00  0.00    +0.000 NA
ATOM      3  C   UNL     1       3.565   3.016  19.825  0.00  0.00    +0.000 C 
ATOM      4  C   UNL     1       2.327   2.281  19.280  0.00  0.00    +0.000 C 
ATOM      5  O   UNL     1       1.179   2.502  20.112  0.00  0.00    +0.000 OA
ATOM      6  C   UNL     1       0.922   3.901  20.274  0.00  0.00    +0.000 C 
ATOM      7  C   UNL     1       2.161   4.633  20.823  0.00  0.00    +0.000 C 
ENDBRANCH   1   2
BRANCH   1   8
ATOM      8  C   UNL     1       4.427   4.850  17.712  0.00  0.00    +0.000 A 
ATOM      9  C   UNL     1       4.387   4.121  16.534  0.00  0.00    +0.000 A 
ATOM     10  C   UNL     1       5.672   3.946  15.944  0.00  0.00    +0.000 A 
ATOM     11  C   UNL     1       6.659   4.573  16.666  0.00  0.00    +0.000 A 
ATOM     12  S   UNL     1       6.052   5.291  18.090  0.00  0.00    +0.000 S 
ENDBRANCH   1   8
BRANCH   1  13
ATOM     13  C   UNL     1       3.296   6.786  18.908  0.00  0.00    +0.000 C 
BRANCH  13  15
ATOM     14  C   UNL     1       1.745   7.966  20.354  0.00  0.00    +0.000 C 
ATOM     15  N   UNL     1       1.998   7.522  18.979  0.00  0.00    +0.000 NA
BRANCH  15  16
ATOM     16  C   UNL     1       2.091   8.670  18.044  0.00  0.00    +0.000 C 
BRANCH  16  17
ATOM     17  C   UNL     1       1.119   9.809  18.251  0.00  0.00    +0.000 A 
ATOM     18  C   UNL     1       1.604  11.065  18.634  0.00  0.00    +0.000 A 
ATOM     19  C   UNL     1       0.713  12.119  18.761  0.00  0.00    +0.000 A 
ATOM     20  N   UNL     1      -0.612  12.010  18.537  0.00  0.00    +0.000 NA
ATOM     21  C   UNL     1      -1.061  10.793  18.157  0.00  0.00    +0.000 A 
ATOM     22  C   UNL     1      -0.248   9.681  17.994  0.00  0.00    +0.000 A 
ENDBRANCH  16  17
ENDBRANCH  15  16
ENDBRANCH  13  15
ENDBRANCH   1  13
TORSDOF 6
ENDMDL
MODEL 7
REMARK VINA RESULT:      -5.8      2.713      4.884
REMARK  Name = 
REMARK  7 active torsions:
REMARK  status: ('A' for Active; 'I' for Inactive)
REMARK    1  A    between atoms: C_1  and  N_2
REMARK    2  A    between atoms: N_2  and  C_3
REMARK    3  A    between atoms: N_2  and  C_10
REMARK    4  A    between atoms: C_3  and  C_4
REMARK    5  A    between atoms: C_10  and  C_11
REMARK    6  A    between atoms: C_11  and  C_12
REMARK    7  A    between atoms: C_11  and  N_17
REMARK                            x       y       z     vdW  Elec       q    Type
REMARK                         _______ _______ _______ _____ _____    ______ ____
ROOT
ATOM      1  C   UNL     1       3.847   4.480  18.457  0.00  0.00    +0.000 C 
ENDROOT
BRANCH   1   2
ATOM      2  N   UNL     1       3.858   3.283  19.369  0.00  0.00    +0.000 NA
ATOM      3  C   UNL     1       3.558   2.001  18.676  0.00  0.00    +0.000 C 
ATOM      4  C   UNL     1       2.096   1.868  18.210  0.00  0.00    +0.000 C 
ATOM      5  O   UNL     1       1.182   2.008  19.307  0.00  0.00    +0.000 OA
ATOM      6  C   UNL     1       1.395   3.242  20.000  0.00  0.00    +0.000 C 
ATOM      7  C   UNL     1       2.857   3.371  20.469  0.00  0.00    +0.000 C 
ENDBRANCH   1   2
BRANCH   1   8
ATOM      8  C   UNL     1       5.025   4.475  17.476  0.00  0.00    +0.000 A 
ATOM      9  C   UNL     1       5.047   4.169  16.124  0.00  0.00    +0.000 A 
ATOM     10  C   UNL     1       6.355   4.236  15.560  0.00  0.00    +0.000 A 
ATOM     11  C   UNL     1       7.295   4.624  16.486  0.00  0.00    +0.000 A 
ATOM     12  S   UNL     1       6.619   4.819  18.041  0.00  0.00    +0.000 S 
ENDBRANCH   1   8
BRANCH   1  13
ATOM     13  C   UNL     1       3.869   5.822  19.295  0.00  0.00    +0.000 C 
BRANCH  13  15
ATOM     14  C   UNL     1       1.951   6.438  17.941  0.00  0.00    +0.000 C 
ATOM     15  N   UNL     1       2.839   6.870  19.027  0.00  0.00    +0.000 NA
BRANCH  15  16
ATOM     16  C   UNL     1       2.090   7.085  20.289  0.00  0.00    +0.000 C 
BRANCH  16  17
ATOM     17  C   UNL     1       1.269   8.350  20.397  0.00  0.00    +0.000 A 
ATOM     18  C   UNL     1       0.459   8.550  21.521  0.00  0.00    +0.000 A 
ATOM     19  C   UNL     1      -0.241   9.740  21.641  0.00  0.00    +0.000 A 
ATOM     20  N   UNL     1      -0.193  10.732  20.730  0.00  0.00    +0.000 NA
ATOM     21  C   UNL     1       0.603  10.527  19.657  0.00  0.00    +0.000 A 
ATOM     22  C   UNL     1       1.349   9.375  19.452  0.00  0.00    +0.000 A 
ENDBRANCH  16  17
ENDBRANCH  15  16
ENDBRANCH  13  15
ENDBRANCH   1  13
TORSDOF 6
ENDMDL
MODEL 8
REMARK VINA RESULT:      -5.7      2.790      5.163
REMARK  Name = 
REMARK  7 active torsions:
REMARK  status: ('A' for Active; 'I' for Inactive)
REMARK    1  A    between atoms: C_1  and  N_2
REMARK    2  A    between atoms: N_2  and  C_3
REMARK    3  A    between atoms: N_2  and  C_10
REMARK    4  A    between atoms: C_3  and  C_4
REMARK    5  A    between atoms: C_10  and  C_11
REMARK    6  A    between atoms: C_11  and  C_12
REMARK    7  A    between atoms: C_11  and  N_17
REMARK                            x       y       z     vdW  Elec       q    Type
REMARK                         _______ _______ _______ _____ _____    ______ ____
ROOT
ATOM      1  C   UNL     1       3.873   4.607  18.798  0.00  0.00    +0.000 C 
ENDROOT
BRANCH   1   2
ATOM      2  N   UNL     1       3.655   3.389  19.654  0.00  0.00    +0.000 NA
ATOM      3  C   UNL     1       3.523   2.127  18.877  0.00  0.00    +0.000 C 
ATOM      4  C   UNL     1       2.216   2.024  18.067  0.00  0.00    +0.000 C 
ATOM      5  O   UNL     1       1.065   2.150  18.914  0.00  0.00    +0.000 OA
ATOM      6  C   UNL     1       1.113   3.365  19.670  0.00  0.00    +0.000 C 
ATOM      7  C   UNL     1       2.418   3.464  20.482  0.00  0.00    +0.000 C 
ENDBRANCH   1   2
BRANCH   1   8
ATOM      8  C   UNL     1       5.270   4.633  18.168  0.00  0.00    +0.000 A 
ATOM      9  C   UNL     1       6.491   4.954  18.739  0.00  0.00    +0.000 A 
ATOM     10  C   UNL     1       7.571   4.906  17.809  0.00  0.00    +0.000 A 
ATOM     11  C   UNL     1       7.154   4.516  16.558  0.00  0.00    +0.000 A 
ATOM     12  S   UNL     1       5.463   4.298  16.486  0.00  0.00    +0.000 S 
ENDBRANCH   1   8
BRANCH   1  13
ATOM     13  C   UNL     1       3.653   5.929  19.639  0.00  0.00    +0.000 C 
BRANCH  13  15
ATOM     14  C   UNL     1       2.030   6.519  17.934  0.00  0.00    +0.000 C 
ATOM     15  N   UNL     1       2.796   7.017  19.082  0.00  0.00    +0.000 NA
BRANCH  15  16
ATOM     16  C   UNL     1       1.903   7.478  20.174  0.00  0.00    +0.000 C 
BRANCH  16  17
ATOM     17  C   UNL     1       1.182   8.791  19.968  0.00  0.00    +0.000 A 
ATOM     18  C   UNL     1       0.255   9.223  20.924  0.00  0.00    +0.000 A 
ATOM     19  C   UNL     1      -0.355  10.457  20.758  0.00  0.00    +0.000 A 
ATOM     20  N   UNL     1      -0.109  11.279  19.719  0.00  0.00    +0.000 NA
ATOM     21  C   UNL     1       0.798  10.852  18.813  0.00  0.00    +0.000 A 
ATOM     22  C   UNL     1       1.466   9.639  18.895  0.00  0.00    +0.000 A 
ENDBRANCH  16  17
ENDBRANCH  15  16
ENDBRANCH  13  15
ENDBRANCH   1  13
TORSDOF 6
ENDMDL
MODEL 9
REMARK VINA RESULT:      -5.7      2.777      5.001
REMARK  Name = 
REMARK  7 active torsions:
REMARK  status: ('A' for Active; 'I' for Inactive)
REMARK    1  A    between atoms: C_1  and  N_2
REMARK    2  A    between atoms: N_2  and  C_3
REMARK    3  A    between atoms: N_2  and  C_10
REMARK    4  A    between atoms: C_3  and  C_4
REMARK    5  A    between atoms: C_10  and  C_11
REMARK    6  A    between atoms: C_11  and  C_12
REMARK    7  A    between atoms: C_11  and  N_17
REMARK                            x       y       z     vdW  Elec       q    Type
REMARK                         _______ _______ _______ _____ _____    ______ ____
ROOT
ATOM      1  C   UNL     1       3.662   4.306  18.659  0.00  0.00    +0.000 C 
ENDROOT
BRANCH   1   2
ATOM      2  N   UNL     1       3.563   3.024  19.440  0.00  0.00    +0.000 NA
ATOM      3  C   UNL     1       2.813   1.950  18.734  0.00  0.00    +0.000 C 
ATOM      4  C   UNL     1       1.300   2.216  18.618  0.00  0.00    +0.000 C 
ATOM      5  O   UNL     1       0.701   2.406  19.908  0.00  0.00    +0.000 OA
ATOM      6  C   UNL     1       1.358   3.453  20.631  0.00  0.00    +0.000 C 
ATOM      7  C   UNL     1       2.870   3.183  20.749  0.00  0.00    +0.000 C 
ENDBRANCH   1   2
BRANCH   1   8
ATOM      8  C   UNL     1       4.843   4.303  17.682  0.00  0.00    +0.000 A 
ATOM      9  C   UNL     1       4.910   3.838  16.378  0.00  0.00    +0.000 A 
ATOM     10  C   UNL     1       6.209   3.971  15.806  0.00  0.00    +0.000 A 
ATOM     11  C   UNL     1       7.095   4.564  16.674  0.00  0.00    +0.000 A 
ATOM     12  S   UNL     1       6.388   4.877  18.196  0.00  0.00    +0.000 S 
ENDBRANCH   1   8
BRANCH   1  13
ATOM     13  C   UNL     1       3.791   5.546  19.633  0.00  0.00    +0.000 C 
BRANCH  13  15
ATOM     14  C   UNL     1       2.498   6.749  17.969  0.00  0.00    +0.000 C 
ATOM     15  N   UNL     1       3.025   6.793  19.337  0.00  0.00    +0.000 NA
BRANCH  15  16
ATOM     16  C   UNL     1       1.934   6.888  20.338  0.00  0.00    +0.000 C 
BRANCH  16  17
ATOM     17  C   UNL     1       1.415   8.270  20.664  0.00  0.00    +0.000 A 
ATOM     18  C   UNL     1       1.130   9.161  19.622  0.00  0.00    +0.000 A 
ATOM     19  C   UNL     1       0.596  10.403  19.927  0.00  0.00    +0.000 A 
ATOM     20  N   UNL     1       0.329  10.815  21.183  0.00  0.00    +0.000 NA
ATOM     21  C   UNL     1       0.599   9.938  22.175  0.00  0.00    +0.000 A 
ATOM     22  C   UNL     1       1.126   8.671  21.970  0.00  0.00    +0.000 A 
ENDBRANCH  16  17
ENDBRANCH  15  16
ENDBRANCH  13  15
ENDBRANCH   1  13
TORSDOF 6
ENDMDL
