MODEL 1
REMARK VINA RESULT:      -8.5      0.000      0.000
REMARK  Name = 
REMARK  7 active torsions:
REMARK  status: ('A' for Active; 'I' for Inactive)
REMARK    1  A    between atoms: C_1  and  C_2
REMARK    2  A    between atoms: C_2  and  C_3
REMARK    3  A    between atoms: C_2  and  C_4
REMARK    4  A    between atoms: C_5  and  C_6
REMARK    5  A    between atoms: CA_17  and  C_18
REMARK    6  A    between atoms: C_18  and  OXT_20
REMARK    7  A    between atoms: C_21  and  C_22
REMARK                            x       y       z     vdW  Elec       q    Type
REMARK                         _______ _______ _______ _____ _____    ______ ____
ROOT
ATOM      1  C   UNL     1       1.848   8.002  19.208  0.00  0.00    +0.000 A 
ATOM      2  C   UNL     1       1.832   6.907  20.112  0.00  0.00    +0.000 A 
ATOM      3  N   UNL     1       1.305   7.432  21.265  0.00  0.00    +0.000 N 
ATOM      4  CA  UNL     1       0.926   8.756  21.175  0.00  0.00    +0.000 A 
ATOM      5  C   UNL     1       1.090   9.168  19.817  0.00  0.00    +0.000 A 
ATOM      6  H   UNL     1       1.202   6.897  22.121  0.00  0.00    +0.000 HD
ENDROOT
BRANCH   2   7
ATOM      7  C   UNL     1       2.380   5.493  20.183  0.00  0.00    +0.000 A 
ATOM      8  C   UNL     1       2.239   4.819  21.413  0.00  0.00    +0.000 A 
ATOM      9  C   UNL     1       1.869   3.478  21.459  0.00  0.00    +0.000 A 
ATOM     10  F   UNL     1       2.916   2.656  21.722  0.00  0.00    +0.000 F 
ATOM     11  C   UNL     1       1.046   3.037  20.436  0.00  0.00    +0.000 A 
ATOM     12  C   UNL     1       1.545   3.389  19.183  0.00  0.00    +0.000 A 
ATOM     13  C   UNL     1       1.723   2.602  18.014  0.00  0.00    +0.000 A 
ATOM     14  C   UNL     1       3.005   2.916  17.625  0.00  0.00    +0.000 A 
ATOM     15  N   UNL     1       3.400   4.041  18.325  0.00  0.00    +0.000 N 
ATOM     16  C   UNL     1       2.348   4.554  19.101  0.00  0.00    +0.000 A 
ATOM     17  H   UNL     1       4.364   4.301  18.459  0.00  0.00    +0.000 HD
ENDBRANCH   2   7
BRANCH   5  18
ATOM     18  C   UNL     1       0.295  10.424  19.302  0.00  0.00    +0.000 A 
ATOM     19  C   UNL     1       0.948  11.670  19.554  0.00  0.00    +0.000 A 
ATOM     20 CL   UNL     1       1.939  11.913  20.967  0.00  0.00    +0.000 Cl
ATOM     21  C   UNL     1       0.663  12.860  18.886  0.00  0.00    +0.000 A 
ATOM     22  C   UNL     1      -0.607  13.053  18.397  0.00  0.00    +0.000 A 
ATOM     23  C   UNL     1      -1.149  11.888  17.872  0.00  0.00    +0.000 A 
ATOM     24  N   UNL     1      -2.252  11.842  17.053  0.00  0.00    +0.000 N 
ATOM     25  C   UNL     1      -3.080  10.908  17.562  0.00  0.00    +0.000 A 
ATOM     26  C   UNL     1      -2.287  10.104  18.364  0.00  0.00    +0.000 A 
ATOM     27  C   UNL     1      -0.926  10.622  18.487  0.00  0.00    +0.000 A 
ATOM     28  H   UNL     1      -2.576  12.640  16.501  0.00  0.00    +0.000 HD
ENDBRANCH   5  18
BRANCH   1  30
ATOM     29  C   UNL     1       2.578   9.259  17.179  0.00  0.00    +0.000 C 
ATOM     30  C   UNL     1       2.548   7.926  17.869  0.00  0.00    +0.000 C 
ATOM     31  C   UNL     1       4.013   7.486  18.006  0.00  0.00    +0.000 C 
ENDBRANCH   1  30
BRANCH   4  32
ATOM     32  C   UNL     1       0.326   9.295  22.392  0.00  0.00    +0.000 C 
ATOM     33  O   UNL     1      -0.864   9.314  22.619  0.00  0.00    +0.000 OA
BRANCH  32  34
ATOM     34  OXT UNL     1       1.246   9.616  23.345  0.00  0.00    +0.000 OA
ATOM     35  HXT UNL     1       0.896   9.492  24.245  0.00  0.00    +0.000 HD
ENDBRANCH  32  34
ENDBRANCH   4  32
TORSDOF 5
ENDMDL
MODEL 2
REMARK VINA RESULT:      -8.2      2.053      2.892
REMARK  Name = 
REMARK  7 active torsions:
REMARK  status: ('A' for Active; 'I' for Inactive)
REMARK    1  A    between atoms: C_1  and  C_2
REMARK    2  A    between atoms: C_2  and  C_3
REMARK    3  A    between atoms: C_2  and  C_4
REMARK    4  A    between atoms: C_5  and  C_6
REMARK    5  A    between atoms: CA_17  and  C_18
REMARK    6  A    between atoms: C_18  and  OXT_20
REMARK    7  A    between atoms: C_21  and  C_22
REMARK                            x       y       z     vdW  Elec       q    Type
REMARK                         _______ _______ _______ _____ _____    ______ ____
ROOT
ATOM      1  C   UNL     1       1.623   8.875  19.768  0.00  0.00    +0.000 A 
ATOM      2  C   UNL     1       1.640   7.607  20.408  0.00  0.00    +0.000 A 
ATOM      3  N   UNL     1       1.159   7.861  21.668  0.00  0.00    +0.000 N 
ATOM      4  CA  UNL     1       0.779   9.170  21.886  0.00  0.00    +0.000 A 
ATOM      5  C   UNL     1       0.890   9.873  20.648  0.00  0.00    +0.000 A 
ATOM      6  H   UNL     1       1.088   7.150  22.388  0.00  0.00    +0.000 HD
ENDROOT
BRANCH   2   7
ATOM      7  C   UNL     1       2.189   6.217  20.144  0.00  0.00    +0.000 A 
ATOM      8  C   UNL     1       1.281   5.144  20.258  0.00  0.00    +0.000 A 
ATOM      9  C   UNL     1       1.283   4.100  19.338  0.00  0.00    +0.000 A 
ATOM     10  F   UNL     1       1.868   2.977  19.824  0.00  0.00    +0.000 F 
ATOM     11  C   UNL     1       1.667   4.425  18.048  0.00  0.00    +0.000 A 
ATOM     12  C   UNL     1       2.870   5.129  18.028  0.00  0.00    +0.000 A 
ATOM     13  C   UNL     1       4.036   4.928  17.242  0.00  0.00    +0.000 A 
ATOM     14  C   UNL     1       5.048   4.984  18.174  0.00  0.00    +0.000 A 
ATOM     15  N   UNL     1       4.524   5.507  19.341  0.00  0.00    +0.000 N 
ATOM     16  C   UNL     1       3.191   5.911  19.166  0.00  0.00    +0.000 A 
ATOM     17  H   UNL     1       4.949   5.380  20.246  0.00  0.00    +0.000 HD
ENDBRANCH   2   7
BRANCH   5  18
ATOM     18  C   UNL     1       0.078  11.206  20.454  0.00  0.00    +0.000 A 
ATOM     19  C   UNL     1      -1.179  11.031  19.797  0.00  0.00    +0.000 A 
ATOM     20 CL   UNL     1      -1.413   9.803  18.582  0.00  0.00    +0.000 Cl
ATOM     21  C   UNL     1      -2.228  11.948  19.843  0.00  0.00    +0.000 A 
ATOM     22  C   UNL     1      -1.932  13.280  20.006  0.00  0.00    +0.000 A 
ATOM     23  C   UNL     1      -0.879  13.479  20.889  0.00  0.00    +0.000 A 
ATOM     24  N   UNL     1      -0.569  14.684  21.472  0.00  0.00    +0.000 N 
ATOM     25  C   UNL     1       0.752  14.879  21.290  0.00  0.00    +0.000 A 
ATOM     26  C   UNL     1       1.284  13.626  21.037  0.00  0.00    +0.000 A 
ATOM     27  C   UNL     1       0.245  12.605  20.912  0.00  0.00    +0.000 A 
ATOM     28  H   UNL     1      -1.242  15.449  21.576  0.00  0.00    +0.000 HD
ENDBRANCH   5  18
BRANCH   1  30
ATOM     29  C   UNL     1       1.553   8.365  17.326  0.00  0.00    +0.000 C 
ATOM     30  C   UNL     1       2.270   9.102  18.420  0.00  0.00    +0.000 C 
ATOM     31  C   UNL     1       2.256  10.583  18.014  0.00  0.00    +0.000 C 
ENDBRANCH   1  30
BRANCH   4  32
ATOM     32  C   UNL     1       0.227   9.423  23.215  0.00  0.00    +0.000 C 
ATOM     33  O   UNL     1       0.889   9.521  24.224  0.00  0.00    +0.000 OA
BRANCH  32  34
ATOM     34  OXT UNL     1      -1.102   9.723  23.193  0.00  0.00    +0.000 OA
ATOM     35  HXT UNL     1      -1.630   9.012  22.791  0.00  0.00    +0.000 HD
ENDBRANCH  32  34
ENDBRANCH   4  32
TORSDOF 5
ENDMDL
MODEL 3
REMARK VINA RESULT:      -8.1      0.908      1.299
REMARK  Name = 
REMARK  7 active torsions:
REMARK  status: ('A' for Active; 'I' for Inactive)
REMARK    1  A    between atoms: C_1  and  C_2
REMARK    2  A    between atoms: C_2  and  C_3
REMARK    3  A    between atoms: C_2  and  C_4
REMARK    4  A    between atoms: C_5  and  C_6
REMARK    5  A    between atoms: CA_17  and  C_18
REMARK    6  A    between atoms: C_18  and  OXT_20
REMARK    7  A    between atoms: C_21  and  C_22
REMARK                            x       y       z     vdW  Elec       q    Type
REMARK                         _______ _______ _______ _____ _____    ______ ____
ROOT
ATOM      1  C   UNL     1       1.825   8.354  19.473  0.00  0.00    +0.000 A 
ATOM      2  C   UNL     1       1.808   7.234  20.347  0.00  0.00    +0.000 A 
ATOM      3  N   UNL     1       1.141   7.687  21.458  0.00  0.00    +0.000 N 
ATOM      4  CA  UNL     1       0.675   8.982  21.362  0.00  0.00    +0.000 A 
ATOM      5  C   UNL     1       0.931   9.445  20.034  0.00  0.00    +0.000 A 
ATOM      6  H   UNL     1       1.001   7.122  22.288  0.00  0.00    +0.000 HD
ENDROOT
BRANCH   2   7
ATOM      7  C   UNL     1       2.451   5.863  20.437  0.00  0.00    +0.000 A 
ATOM      8  C   UNL     1       1.659   4.825  20.970  0.00  0.00    +0.000 A 
ATOM      9  C   UNL     1       1.664   3.554  20.403  0.00  0.00    +0.000 A 
ATOM     10  F   UNL     1       2.393   2.663  21.121  0.00  0.00    +0.000 F 
ATOM     11  C   UNL     1       1.888   3.496  19.037  0.00  0.00    +0.000 A 
ATOM     12  C   UNL     1       3.015   4.228  18.666  0.00  0.00    +0.000 A 
ATOM     13  C   UNL     1       4.110   3.866  17.839  0.00  0.00    +0.000 A 
ATOM     14  C   UNL     1       5.200   4.257  18.583  0.00  0.00    +0.000 A 
ATOM     15  N   UNL     1       4.749   5.077  19.600  0.00  0.00    +0.000 N 
ATOM     16  C   UNL     1       3.375   5.333  19.477  0.00  0.00    +0.000 A 
ATOM     17  H   UNL     1       5.272   5.252  20.444  0.00  0.00    +0.000 HD
ENDBRANCH   2   7
BRANCH   5  18
ATOM     18  C   UNL     1       0.095  10.655  19.475  0.00  0.00    +0.000 A 
ATOM     19  C   UNL     1       0.731  11.924  19.635  0.00  0.00    +0.000 A 
ATOM     20 CL   UNL     1       1.762  12.265  20.998  0.00  0.00    +0.000 Cl
ATOM     21  C   UNL     1       0.401  13.068  18.911  0.00  0.00    +0.000 A 
ATOM     22  C   UNL     1      -0.887  13.211  18.454  0.00  0.00    +0.000 A 
ATOM     23  C   UNL     1      -1.423  12.008  18.014  0.00  0.00    +0.000 A 
ATOM     24  N   UNL     1      -2.551  11.896  17.236  0.00  0.00    +0.000 N 
ATOM     25  C   UNL     1      -3.343  10.978  17.825  0.00  0.00    +0.000 A 
ATOM     26  C   UNL     1      -2.509  10.235  18.644  0.00  0.00    +0.000 A 
ATOM     27  C   UNL     1      -1.156  10.784  18.692  0.00  0.00    +0.000 A 
ATOM     28  H   UNL     1      -2.908  12.655  16.650  0.00  0.00    +0.000 HD
ENDBRANCH   5  18
BRANCH   1  30
ATOM     29  C   UNL     1       2.138   7.375  17.198  0.00  0.00    +0.000 C 
ATOM     30  C   UNL     1       2.647   8.367  18.203  0.00  0.00    +0.000 C 
ATOM     31  C   UNL     1       2.611   9.734  17.505  0.00  0.00    +0.000 C 
ENDBRANCH   1  30
BRANCH   4  32
ATOM     32  C   UNL     1      -0.071   9.442  22.530  0.00  0.00    +0.000 C 
ATOM     33  O   UNL     1       0.032  10.546  23.018  0.00  0.00    +0.000 OA
BRANCH  32  34
ATOM     34  OXT UNL     1      -1.043   8.570  22.921  0.00  0.00    +0.000 OA
ATOM     35  HXT UNL     1      -1.745   8.484  22.252  0.00  0.00    +0.000 HD
ENDBRANCH  32  34
ENDBRANCH   4  32
TORSDOF 5
ENDMDL
MODEL 4
REMARK VINA RESULT:      -8.1      1.664      2.495
REMARK  Name = 
REMARK  7 active torsions:
REMARK  status: ('A' for Active; 'I' for Inactive)
REMARK    1  A    between atoms: C_1  and  C_2
REMARK    2  A    between atoms: C_2  and  C_3
REMARK    3  A    between atoms: C_2  and  C_4
REMARK    4  A    between atoms: C_5  and  C_6
REMARK    5  A    between atoms: CA_17  and  C_18
REMARK    6  A    between atoms: C_18  and  OXT_20
REMARK    7  A    between atoms: C_21  and  C_22
REMARK                            x       y       z     vdW  Elec       q    Type
REMARK                         _______ _______ _______ _____ _____    ______ ____
ROOT
ATOM      1  C   UNL     1       1.711   8.141  19.475  0.00  0.00    +0.000 A 
ATOM      2  C   UNL     1       1.635   6.943  20.235  0.00  0.00    +0.000 A 
ATOM      3  N   UNL     1       1.249   7.363  21.484  0.00  0.00    +0.000 N 
ATOM      4  CA  UNL     1       1.014   8.718  21.588  0.00  0.00    +0.000 A 
ATOM      5  C   UNL     1       1.129   9.287  20.283  0.00  0.00    +0.000 A 
ATOM      6  H   UNL     1       1.146   6.733  22.272  0.00  0.00    +0.000 HD
ENDROOT
BRANCH   2   7
ATOM      7  C   UNL     1       2.027   5.485  20.086  0.00  0.00    +0.000 A 
ATOM      8  C   UNL     1       1.042   4.527  20.402  0.00  0.00    +0.000 A 
ATOM      9  C   UNL     1       0.859   3.396  19.611  0.00  0.00    +0.000 A 
ATOM     10  F   UNL     1       1.385   2.277  20.170  0.00  0.00    +0.000 F 
ATOM     11  C   UNL     1       1.142   3.542  18.263  0.00  0.00    +0.000 A 
ATOM     12  C   UNL     1       2.397   4.115  18.057  0.00  0.00    +0.000 A 
ATOM     13  C   UNL     1       3.456   3.716  17.201  0.00  0.00    +0.000 A 
ATOM     14  C   UNL     1       4.556   3.768  18.028  0.00  0.00    +0.000 A 
ATOM     15  N   UNL     1       4.198   4.462  19.168  0.00  0.00    +0.000 N 
ATOM     16  C   UNL     1       2.897   4.977  19.065  0.00  0.00    +0.000 A 
ATOM     17  H   UNL     1       4.697   4.390  20.041  0.00  0.00    +0.000 HD
ENDBRANCH   2   7
BRANCH   5  18
ATOM     18  C   UNL     1       0.445  10.674  19.994  0.00  0.00    +0.000 A 
ATOM     19  C   UNL     1      -0.820  10.572  19.338  0.00  0.00    +0.000 A 
ATOM     20 CL   UNL     1      -1.163   9.294  18.205  0.00  0.00    +0.000 Cl
ATOM     21  C   UNL     1      -1.780  11.584  19.314  0.00  0.00    +0.000 A 
ATOM     22  C   UNL     1      -1.362  12.891  19.391  0.00  0.00    +0.000 A 
ATOM     23  C   UNL     1      -0.298  13.049  20.269  0.00  0.00    +0.000 A 
ATOM     24  N   UNL     1       0.121  14.257  20.775  0.00  0.00    +0.000 N 
ATOM     25  C   UNL     1       1.455  14.316  20.593  0.00  0.00    +0.000 A 
ATOM     26  C   UNL     1       1.869  13.005  20.428  0.00  0.00    +0.000 A 
ATOM     27  C   UNL     1       0.741  12.078  20.361  0.00  0.00    +0.000 A 
ATOM     28  H   UNL     1      -0.478  15.085  20.822  0.00  0.00    +0.000 HD
ENDBRANCH   5  18
BRANCH   1  30
ATOM     29  C   UNL     1       2.280   9.552  17.497  0.00  0.00    +0.000 C 
ATOM     30  C   UNL     1       2.305   8.171  18.084  0.00  0.00    +0.000 C 
ATOM     31  C   UNL     1       3.776   7.732  18.074  0.00  0.00    +0.000 C 
ENDBRANCH   1  30
BRANCH   4  32
ATOM     32  C   UNL     1       0.562   9.151  22.908  0.00  0.00    +0.000 C 
ATOM     33  O   UNL     1       1.293   9.561  23.783  0.00  0.00    +0.000 OA
BRANCH  32  34
ATOM     34  OXT UNL     1      -0.795   9.225  23.011  0.00  0.00    +0.000 OA
ATOM     35  HXT UNL     1      -1.152  10.010  22.561  0.00  0.00    +0.000 HD
ENDBRANCH  32  34
ENDBRANCH   4  32
TORSDOF 5
ENDMDL
MODEL 5
REMARK VINA RESULT:      -8.1      1.411      2.196
REMARK  Name = 
REMARK  7 active torsions:
REMARK  status: ('A' for Active; 'I' for Inactive)
REMARK    1  A    between atoms: C_1  and  C_2
REMARK    2  A    between atoms: C_2  and  C_3
REMARK    3  A    between atoms: C_2  and  C_4
REMARK    4  A    between atoms: C_5  and  C_6
REMARK    5  A    between atoms: CA_17  and  C_18
REMARK    6  A    between atoms: C_18  and  OXT_20
REMARK    7  A    between atoms: C_21  and  C_22
REMARK                            x       y       z     vdW  Elec       q    Type
REMARK                         _______ _______ _______ _____ _____    ______ ____
ROOT
ATOM      1  C   UNL     1       1.933   7.909  19.386  0.00  0.00    +0.000 A 
ATOM      2  C   UNL     1       1.857   6.757  20.214  0.00  0.00    +0.000 A 
ATOM      3  N   UNL     1       1.375   7.234  21.408  0.00  0.00    +0.000 N 
ATOM      4  CA  UNL     1       1.078   8.581  21.412  0.00  0.00    +0.000 A 
ATOM      5  C   UNL     1       1.254   9.075  20.083  0.00  0.00    +0.000 A 
ATOM      6  H   UNL     1       1.248   6.648  22.226  0.00  0.00    +0.000 HD
ENDROOT
BRANCH   2   7
ATOM      7  C   UNL     1       2.318   5.312  20.182  0.00  0.00    +0.000 A 
ATOM      8  C   UNL     1       2.526   4.684  21.427  0.00  0.00    +0.000 A 
ATOM      9  C   UNL     1       2.112   3.374  21.650  0.00  0.00    +0.000 A 
ATOM     10  F   UNL     1       3.139   2.488  21.617  0.00  0.00    +0.000 F 
ATOM     11  C   UNL     1       0.988   2.963  20.952  0.00  0.00    +0.000 A 
ATOM     12  C   UNL     1       1.093   3.243  19.591  0.00  0.00    +0.000 A 
ATOM     13  C   UNL     1       0.854   2.413  18.464  0.00  0.00    +0.000 A 
ATOM     14  C   UNL     1       1.968   2.626  17.684  0.00  0.00    +0.000 A 
ATOM     15  N   UNL     1       2.625   3.739  18.173  0.00  0.00    +0.000 N 
ATOM     16  C   UNL     1       1.897   4.346  19.209  0.00  0.00    +0.000 A 
ATOM     17  H   UNL     1       3.597   3.934  17.991  0.00  0.00    +0.000 HD
ENDBRANCH   2   7
BRANCH   5  18
ATOM     18  C   UNL     1       0.533  10.409  19.665  0.00  0.00    +0.000 A 
ATOM     19  C   UNL     1      -0.540  10.226  18.740  0.00  0.00    +0.000 A 
ATOM     20 CL   UNL     1      -0.508   8.961  17.542  0.00  0.00    +0.000 Cl
ATOM     21  C   UNL     1      -1.554  11.155  18.514  0.00  0.00    +0.000 A 
ATOM     22  C   UNL     1      -1.280  12.489  18.701  0.00  0.00    +0.000 A 
ATOM     23  C   UNL     1      -0.457  12.706  19.798  0.00  0.00    +0.000 A 
ATOM     24  N   UNL     1      -0.268  13.927  20.401  0.00  0.00    +0.000 N 
ATOM     25  C   UNL     1       1.062  14.101  20.525  0.00  0.00    +0.000 A 
ATOM     26  C   UNL     1       1.615  12.834  20.440  0.00  0.00    +0.000 A 
ATOM     27  C   UNL     1       0.616  11.821  20.108  0.00  0.00    +0.000 A 
ATOM     28  H   UNL     1      -0.933  14.701  20.323  0.00  0.00    +0.000 HD
ENDBRANCH   5  18
BRANCH   1  30
ATOM     29  C   UNL     1       2.889   9.265  17.522  0.00  0.00    +0.000 C 
ATOM     30  C   UNL     1       2.613   7.882  18.035  0.00  0.00    +0.000 C 
ATOM     31  C   UNL     1       3.972   7.169  18.087  0.00  0.00    +0.000 C 
ENDBRANCH   1  30
BRANCH   4  32
ATOM     32  C   UNL     1       0.524   9.072  22.672  0.00  0.00    +0.000 C 
ATOM     33  O   UNL     1       1.160   9.666  23.514  0.00  0.00    +0.000 OA
BRANCH  32  34
ATOM     34  OXT UNL     1      -0.832   8.960  22.738  0.00  0.00    +0.000 OA
ATOM     35  HXT UNL     1      -1.225   9.639  23.314  0.00  0.00    +0.000 HD
ENDBRANCH  32  34
ENDBRANCH   4  32
TORSDOF 5
ENDMDL
MODEL 6
REMARK VINA RESULT:      -7.9      2.260      3.043
REMARK  Name = 
REMARK  7 active torsions:
REMARK  status: ('A' for Active; 'I' for Inactive)
REMARK    1  A    between atoms: C_1  and  C_2
REMARK    2  A    between atoms: C_2  and  C_3
REMARK    3  A    between atoms: C_2  and  C_4
REMARK    4  A    between atoms: C_5  and  C_6
REMARK    5  A    between atoms: CA_17  and  C_18
REMARK    6  A    between atoms: C_18  and  OXT_20
REMARK    7  A    between atoms: C_21  and  C_22
REMARK                            x       y       z     vdW  Elec       q    Type
REMARK                         _______ _______ _______ _____ _____    ______ ____
ROOT
ATOM      1  C   UNL     1       1.038   9.094  19.705  0.00  0.00    +0.000 A 
ATOM      2  C   UNL     1       1.362   7.791  20.170  0.00  0.00    +0.000 A 
ATOM      3  N   UNL     1       1.590   7.961  21.512  0.00  0.00    +0.000 N 
ATOM      4  CA  UNL     1       1.389   9.246  21.972  0.00  0.00    +0.000 A 
ATOM      5  C   UNL     1       0.865  10.022  20.894  0.00  0.00    +0.000 A 
ATOM      6  H   UNL     1       1.885   7.207  22.123  0.00  0.00    +0.000 HD
ENDROOT
BRANCH   2   7
ATOM      7  C   UNL     1       1.685   6.430  19.580  0.00  0.00    +0.000 A 
ATOM      8  C   UNL     1       2.711   6.384  18.614  0.00  0.00    +0.000 A 
ATOM      9  C   UNL     1       3.654   5.361  18.615  0.00  0.00    +0.000 A 
ATOM     10  F   UNL     1       3.420   4.432  17.655  0.00  0.00    +0.000 F 
ATOM     11  C   UNL     1       3.973   4.828  19.853  0.00  0.00    +0.000 A 
ATOM     12  C   UNL     1       2.833   4.475  20.573  0.00  0.00    +0.000 A 
ATOM     13  C   UNL     1       2.521   3.274  21.263  0.00  0.00    +0.000 A 
ATOM     14  C   UNL     1       1.246   2.991  20.827  0.00  0.00    +0.000 A 
ATOM     15  N   UNL     1       0.751   4.118  20.198  0.00  0.00    +0.000 N 
ATOM     16  C   UNL     1       1.642   5.197  20.310  0.00  0.00    +0.000 A 
ATOM     17  H   UNL     1      -0.013   4.096  19.540  0.00  0.00    +0.000 HD
ENDBRANCH   2   7
BRANCH   5  18
ATOM     18  C   UNL     1       0.083  11.348  21.219  0.00  0.00    +0.000 A 
ATOM     19  C   UNL     1       0.618  12.511  20.586  0.00  0.00    +0.000 A 
ATOM     20 CL   UNL     1       2.326  12.681  20.281  0.00  0.00    +0.000 Cl
ATOM     21  C   UNL     1      -0.082  13.701  20.399  0.00  0.00    +0.000 A 
ATOM     22  C   UNL     1      -1.069  14.033  21.296  0.00  0.00    +0.000 A 
ATOM     23  C   UNL     1      -1.802  12.925  21.703  0.00  0.00    +0.000 A 
ATOM     24  N   UNL     1      -3.018  12.987  22.340  0.00  0.00    +0.000 N 
ATOM     25  C   UNL     1      -2.937  12.183  23.418  0.00  0.00    +0.000 A 
ATOM     26  C   UNL     1      -1.888  11.316  23.161  0.00  0.00    +0.000 A 
ATOM     27  C   UNL     1      -1.177  11.666  21.932  0.00  0.00    +0.000 A 
ATOM     28  H   UNL     1      -3.640  13.798  22.288  0.00  0.00    +0.000 HD
ENDBRANCH   5  18
BRANCH   1  30
ATOM     29  C   UNL     1      -0.402  10.055  17.908  0.00  0.00    +0.000 C 
ATOM     30  C   UNL     1       0.915   9.412  18.232  0.00  0.00    +0.000 C 
ATOM     31  C   UNL     1       1.995  10.396  17.760  0.00  0.00    +0.000 C 
ENDBRANCH   1  30
BRANCH   4  32
ATOM     32  C   UNL     1       1.590   9.409  23.410  0.00  0.00    +0.000 C 
ATOM     33  O   UNL     1       0.695   9.492  24.222  0.00  0.00    +0.000 OA
BRANCH  32  34
ATOM     34  OXT UNL     1       2.893   9.277  23.786  0.00  0.00    +0.000 OA
ATOM     35  HXT UNL     1       3.221   8.372  23.649  0.00  0.00    +0.000 HD
ENDBRANCH  32  34
ENDBRANCH   4  32
TORSDOF 5
ENDMDL
MODEL 7
REMARK VINA RESULT:      -7.7      1.864      2.307
REMARK  Name = 
REMARK  7 active torsions:
REMARK  status: ('A' for Active; 'I' for Inactive)
REMARK    1  A    between atoms: C_1  and  C_2
REMARK    2  A    between atoms: C_2  and  C_3
REMARK    3  A    between atoms: C_2  and  C_4
REMARK    4  A    between atoms: C_5  and  C_6
REMARK    5  A    between atoms: CA_17  and  C_18
REMARK    6  A    between atoms: C_18  and  OXT_20
REMARK    7  A    between atoms: C_21  and  C_22
REMARK                            x       y       z     vdW  Elec       q    Type
REMARK                         _______ _______ _______ _____ _____    ______ ____
ROOT
ATOM      1  C   UNL     1       1.393   8.357  19.579  0.00  0.00    +0.000 A 
ATOM      2  C   UNL     1       1.743   7.193  20.315  0.00  0.00    +0.000 A 
ATOM      3  N   UNL     1       1.851   7.636  21.610  0.00  0.00    +0.000 N 
ATOM      4  CA  UNL     1       1.549   8.970  21.789  0.00  0.00    +0.000 A 
ATOM      5  C   UNL     1       1.077   9.486  20.543  0.00  0.00    +0.000 A 
ATOM      6  H   UNL     1       2.134   7.037  22.378  0.00  0.00    +0.000 HD
ENDROOT
BRANCH   2   7
ATOM      7  C   UNL     1       2.181   5.768  20.033  0.00  0.00    +0.000 A 
ATOM      8  C   UNL     1       1.193   4.768  20.137  0.00  0.00    +0.000 A 
ATOM      9  C   UNL     1       1.111   3.738  19.205  0.00  0.00    +0.000 A 
ATOM     10  F   UNL     1       1.608   2.566  19.675  0.00  0.00    +0.000 F 
ATOM     11  C   UNL     1       1.515   4.048  17.917  0.00  0.00    +0.000 A 
ATOM     12  C   UNL     1       2.770   4.656  17.901  0.00  0.00    +0.000 A 
ATOM     13  C   UNL     1       3.914   4.374  17.109  0.00  0.00    +0.000 A 
ATOM     14  C   UNL     1       4.930   4.340  18.037  0.00  0.00    +0.000 A 
ATOM     15  N   UNL     1       4.451   4.888  19.212  0.00  0.00    +0.000 N 
ATOM     16  C   UNL     1       3.154   5.397  19.047  0.00  0.00    +0.000 A 
ATOM     17  H   UNL     1       4.868   4.717  20.114  0.00  0.00    +0.000 HD
ENDBRANCH   2   7
BRANCH   5  18
ATOM     18  C   UNL     1       0.204  10.795  20.542  0.00  0.00    +0.000 A 
ATOM     19  C   UNL     1       0.537  11.716  19.502  0.00  0.00    +0.000 A 
ATOM     20 CL   UNL     1       2.170  11.879  18.914  0.00  0.00    +0.000 Cl
ATOM     21  C   UNL     1      -0.301  12.735  19.052  0.00  0.00    +0.000 A 
ATOM     22  C   UNL     1      -1.204  13.282  19.931  0.00  0.00    +0.000 A 
ATOM     23  C   UNL     1      -1.764  12.327  20.770  0.00  0.00    +0.000 A 
ATOM     24  N   UNL     1      -2.897  12.521  21.524  0.00  0.00    +0.000 N 
ATOM     25  C   UNL     1      -2.606  12.121  22.778  0.00  0.00    +0.000 A 
ATOM     26  C   UNL     1      -1.510  11.283  22.658  0.00  0.00    +0.000 A 
ATOM     27  C   UNL     1      -0.989  11.252  21.293  0.00  0.00    +0.000 A 
ATOM     28  H   UNL     1      -3.601  13.231  21.309  0.00  0.00    +0.000 HD
ENDBRANCH   5  18
BRANCH   1  30
ATOM     29  C   UNL     1       0.332   9.311  17.531  0.00  0.00    +0.000 C 
ATOM     30  C   UNL     1       1.375   8.373  18.066  0.00  0.00    +0.000 C 
ATOM     31  C   UNL     1       2.712   8.843  17.477  0.00  0.00    +0.000 C 
ENDBRANCH   1  30
BRANCH   4  32
ATOM     32  C   UNL     1       1.623   9.424  23.176  0.00  0.00    +0.000 C 
ATOM     33  O   UNL     1       0.660   9.657  23.873  0.00  0.00    +0.000 OA
BRANCH  32  34
ATOM     34  OXT UNL     1       2.887   9.388  23.683  0.00  0.00    +0.000 OA
ATOM     35  HXT UNL     1       3.400   8.640  23.330  0.00  0.00    +0.000 HD
ENDBRANCH  32  34
ENDBRANCH   4  32
TORSDOF 5
ENDMDL
MODEL 8
REMARK VINA RESULT:      -7.4      3.764      7.934
REMARK  Name = 
REMARK  7 active torsions:
REMARK  status: ('A' for Active; 'I' for Inactive)
REMARK    1  A    between atoms: C_1  and  C_2
REMARK    2  A    between atoms: C_2  and  C_3
REMARK    3  A    between atoms: C_2  and  C_4
REMARK    4  A    between atoms: C_5  and  C_6
REMARK    5  A    between atoms: CA_17  and  C_18
REMARK    6  A    between atoms: C_18  and  OXT_20
REMARK    7  A    between atoms: C_21  and  C_22
REMARK                            x       y       z     vdW  Elec       q    Type
REMARK                         _______ _______ _______ _____ _____    ______ ____
ROOT
ATOM      1  C   UNL     1       2.217   7.508  19.110  0.00  0.00    +0.000 A 
ATOM      2  C   UNL     1       2.202   8.539  18.133  0.00  0.00    +0.000 A 
ATOM      3  N   UNL     1       3.244   8.223  17.297  0.00  0.00    +0.000 N 
ATOM      4  CA  UNL     1       3.899   7.050  17.612  0.00  0.00    +0.000 A 
ATOM      5  C   UNL     1       3.193   6.426  18.685  0.00  0.00    +0.000 A 
ATOM      6  H   UNL     1       3.519   8.802  16.511  0.00  0.00    +0.000 HD
ENDROOT
BRANCH   2   7
ATOM      7  C   UNL     1       1.521   9.877  17.914  0.00  0.00    +0.000 A 
ATOM      8  C   UNL     1       0.115   9.897  18.010  0.00  0.00    +0.000 A 
ATOM      9  C   UNL     1      -0.547  10.934  18.662  0.00  0.00    +0.000 A 
ATOM     10  F   UNL     1      -1.112  11.816  17.800  0.00  0.00    +0.000 F 
ATOM     11  C   UNL     1       0.134  11.526  19.712  0.00  0.00    +0.000 A 
ATOM     12  C   UNL     1       1.429  11.892  19.348  0.00  0.00    +0.000 A 
ATOM     13  C   UNL     1       2.122  13.117  19.538  0.00  0.00    +0.000 A 
ATOM     14  C   UNL     1       2.661  13.361  18.294  0.00  0.00    +0.000 A 
ATOM     15  N   UNL     1       2.560  12.200  17.552  0.00  0.00    +0.000 N 
ATOM     16  C   UNL     1       2.060  11.140  18.326  0.00  0.00    +0.000 A 
ATOM     17  H   UNL     1       2.595  12.180  16.544  0.00  0.00    +0.000 HD
ENDBRANCH   2   7
BRANCH   5  18
ATOM     18  C   UNL     1       3.383   4.883  18.927  0.00  0.00    +0.000 A 
ATOM     19  C   UNL     1       4.621   4.541  19.552  0.00  0.00    +0.000 A 
ATOM     20 CL   UNL     1       6.075   5.460  19.268  0.00  0.00    +0.000 Cl
ATOM     21  C   UNL     1       4.868   3.335  20.207  0.00  0.00    +0.000 A 
ATOM     22  C   UNL     1       4.189   2.212  19.798  0.00  0.00    +0.000 A 
ATOM     23  C   UNL     1       2.871   2.490  19.460  0.00  0.00    +0.000 A 
ATOM     24  N   UNL     1       1.887   1.541  19.315  0.00  0.00    +0.000 N 
ATOM     25  C   UNL     1       1.277   1.786  18.139  0.00  0.00    +0.000 A 
ATOM     26  C   UNL     1       1.568   3.105  17.834  0.00  0.00    +0.000 A 
ATOM     27  C   UNL     1       2.517   3.690  18.779  0.00  0.00    +0.000 A 
ATOM     28  H   UNL     1       1.934   0.613  19.743  0.00  0.00    +0.000 HD
ENDBRANCH   5  18
BRANCH   1  30
ATOM     29  C   UNL     1       1.407   6.289  21.132  0.00  0.00    +0.000 C 
ATOM     30  C   UNL     1       1.361   7.573  20.356  0.00  0.00    +0.000 C 
ATOM     31  C   UNL     1       1.829   8.670  21.323  0.00  0.00    +0.000 C 
ENDBRANCH   1  30
BRANCH   4  32
ATOM     32  C   UNL     1       4.979   6.697  16.693  0.00  0.00    +0.000 C 
ATOM     33  O   UNL     1       4.900   5.839  15.842  0.00  0.00    +0.000 OA
BRANCH  32  34
ATOM     34  OXT UNL     1       6.036   7.554  16.757  0.00  0.00    +0.000 OA
ATOM     35  HXT UNL     1       6.881   7.102  16.587  0.00  0.00    +0.000 HD
ENDBRANCH  32  34
ENDBRANCH   4  32
TORSDOF 5
ENDMDL
MODEL 9
REMARK VINA RESULT:      -7.3      5.883      9.545
REMARK  Name = 
REMARK  7 active torsions:
REMARK  status: ('A' for Active; 'I' for Inactive)
REMARK    1  A    between atoms: C_1  and  C_2
REMARK    2  A    between atoms: C_2  and  C_3
REMARK    3  A    between atoms: C_2  and  C_4
REMARK    4  A    between atoms: C_5  and  C_6
REMARK    5  A    between atoms: CA_17  and  C_18
REMARK    6  A    between atoms: C_18  and  OXT_20
REMARK    7  A    between atoms: C_21  and  C_22
REMARK                            x       y       z     vdW  Elec       q    Type
REMARK                         _______ _______ _______ _____ _____    ______ ____
ROOT
ATOM      1  C   UNL     1      -1.227  13.337  22.090  0.00  0.00    +0.000 A 
ATOM      2  C   UNL     1      -1.346  14.742  22.260  0.00  0.00    +0.000 A 
ATOM      3  N   UNL     1      -0.765  15.266  21.132  0.00  0.00    +0.000 N 
ATOM      4  CA  UNL     1      -0.330  14.327  20.220  0.00  0.00    +0.000 A 
ATOM      5  C   UNL     1      -0.739  13.040  20.684  0.00  0.00    +0.000 A 
ATOM      6  H   UNL     1      -0.658  16.262  20.976  0.00  0.00    +0.000 HD
ENDROOT
BRANCH   2   7
ATOM      7  C   UNL     1      -1.733  15.718  23.356  0.00  0.00    +0.000 A 
ATOM      8  C   UNL     1      -3.102  15.795  23.683  0.00  0.00    +0.000 A 
ATOM      9  C   UNL     1      -3.522  15.878  25.007  0.00  0.00    +0.000 A 
ATOM     10  F   UNL     1      -3.901  17.133  25.357  0.00  0.00    +0.000 F 
ATOM     11  C   UNL     1      -2.717  15.249  25.943  0.00  0.00    +0.000 A 
ATOM     12  C   UNL     1      -1.379  15.615  25.804  0.00  0.00    +0.000 A 
ATOM     13  C   UNL     1      -0.442  16.045  26.779  0.00  0.00    +0.000 A 
ATOM     14  C   UNL     1       0.119  17.160  26.197  0.00  0.00    +0.000 A 
ATOM     15  N   UNL     1      -0.234  17.165  24.860  0.00  0.00    +0.000 N 
ATOM     16  C   UNL     1      -0.935  15.999  24.513  0.00  0.00    +0.000 A 
ATOM     17  H   UNL     1      -0.218  17.992  24.285  0.00  0.00    +0.000 HD
ENDBRANCH   2   7
BRANCH   5  18
ATOM     18  C   UNL     1      -0.836  11.854  19.654  0.00  0.00    +0.000 A 
ATOM     19  C   UNL     1      -2.064  11.817  18.924  0.00  0.00    +0.000 A 
ATOM     20 CL   UNL     1      -3.566  12.346  19.633  0.00  0.00    +0.000 Cl
ATOM     21  C   UNL     1      -2.248  11.133  17.723  0.00  0.00    +0.000 A 
ATOM     22  C   UNL     1      -1.490  10.012  17.481  0.00  0.00    +0.000 A 
ATOM     23  C   UNL     1      -0.185  10.153  17.935  0.00  0.00    +0.000 A 
ATOM     24  N   UNL     1       0.860   9.341  17.566  0.00  0.00    +0.000 N 
ATOM     25  C   UNL     1       1.480   8.960  18.701  0.00  0.00    +0.000 A 
ATOM     26  C   UNL     1       1.112   9.891  19.658  0.00  0.00    +0.000 A 
ATOM     27  C   UNL     1       0.107  10.826  19.156  0.00  0.00    +0.000 A 
ATOM     28  H   UNL     1       0.863   8.782  16.708  0.00  0.00    +0.000 HD
ENDBRANCH   5  18
BRANCH   1  30
ATOM     29  C   UNL     1      -3.034  12.170  23.357  0.00  0.00    +0.000 C 
ATOM     30  C   UNL     1      -1.553  12.364  23.202  0.00  0.00    +0.000 C 
ATOM     31  C   UNL     1      -0.967  10.970  22.941  0.00  0.00    +0.000 C 
ENDBRANCH   1  30
BRANCH   4  32
ATOM     32  C   UNL     1       0.247  14.892  19.002  0.00  0.00    +0.000 C 
ATOM     33  O   UNL     1       1.288  14.525  18.503  0.00  0.00    +0.000 OA
BRANCH  32  34
ATOM     34  OXT UNL     1      -0.590  15.759  18.367  0.00  0.00    +0.000 OA
ATOM     35  HXT UNL     1      -1.517  15.632  18.634  0.00  0.00    +0.000 HD
ENDBRANCH  32  34
ENDBRANCH   4  32
TORSDOF 5
ENDMDL
