MODEL 1
REMARK VINA RESULT:      -7.3      0.000      0.000
REMARK  Name = 
REMARK  1 active torsions:
REMARK  status: ('A' for Active; 'I' for Inactive)
REMARK    1  A    between atoms: C_2  and  C_3
REMARK                            x       y       z     vdW  Elec       q    Type
REMARK                         _______ _______ _______ _____ _____    ______ ____
ROOT
ATOM      1  O   UNL     1       2.459   4.016  16.256  0.00  0.00    +0.000 OA
ATOM      2  C   UNL     1       3.298   3.513  16.997  0.00  0.00    +0.000 C 
ATOM      3  N   UNL     1       2.953   2.717  18.101  0.00  0.00    +0.000 N 
ATOM      4  C   UNL     1       1.533   2.369  18.313  0.00  0.00    +0.000 C 
ATOM      5  C   UNL     1       0.909   2.637  19.691  0.00  0.00    +0.000 C 
ATOM      6  O   UNL     1       1.691   2.229  20.817  0.00  0.00    +0.000 OA
ATOM      7  C   UNL     1       2.675   3.163  21.282  0.00  0.00    +0.000 C 
ATOM      8  C   UNL     1       2.174   4.609  21.469  0.00  0.00    +0.000 C 
ATOM      9  N   UNL     1       2.623   5.238  20.231  0.00  0.00    +0.000 N 
ATOM     10  C   UNL     1       2.246   6.528  19.942  0.00  0.00    +0.000 A 
ATOM     11  C   UNL     1       2.550   7.138  18.723  0.00  0.00    +0.000 A 
ATOM     12  N   UNL     1       2.179   8.395  18.359  0.00  0.00    +0.000 NA
ATOM     13  C   UNL     1       1.423   9.034  19.282  0.00  0.00    +0.000 A 
ATOM     14  C   UNL     1       1.084   8.445  20.482  0.00  0.00    +0.000 A 
ATOM     15  N   UNL     1       1.483   7.200  20.835  0.00  0.00    +0.000 NA
ATOM     16  C   UNL     1       3.973   4.767  19.972  0.00  0.00    +0.000 C 
ATOM     17  C   UNL     1       3.900   3.275  20.356  0.00  0.00    +0.000 C 
ATOM     18  C   UNL     1       3.854   2.305  19.183  0.00  0.00    +0.000 C 
ENDROOT
BRANCH   2  19
ATOM     19  C   UNL     1       4.731   3.807  16.662  0.00  0.00    +0.000 A 
ATOM     20  C   UNL     1       5.168   3.605  15.346  0.00  0.00    +0.000 A 
ATOM     21  C   UNL     1       6.438   4.035  14.952  0.00  0.00    +0.000 A 
ATOM     22  C   UNL     1       7.276   4.664  15.870  0.00  0.00    +0.000 A 
ATOM     23  C   UNL     1       6.888   4.765  17.204  0.00  0.00    +0.000 A 
ATOM     24  C   UNL     1       5.643   4.281  17.608  0.00  0.00    +0.000 A 
ENDBRANCH   2  19
TORSDOF 1
ENDMDL
MODEL 2
REMARK VINA RESULT:      -7.2      1.916      5.493
REMARK  Name = 
REMARK  1 active torsions:
REMARK  status: ('A' for Active; 'I' for Inactive)
REMARK    1  A    between atoms: C_2  and  C_3
REMARK                            x       y       z     vdW  Elec       q    Type
REMARK                         _______ _______ _______ _____ _____    ______ ____
ROOT
ATOM      1  O   UNL     1       4.354   6.201  20.233  0.00  0.00    +0.000 OA
ATOM      2  C   UNL     1       3.183   5.960  19.956  0.00  0.00    +0.000 C 
ATOM      3  N   UNL     1       2.634   4.672  20.048  0.00  0.00    +0.000 N 
ATOM      4  C   UNL     1       3.457   3.584  20.614  0.00  0.00    +0.000 C 
ATOM      5  C   UNL     1       3.606   2.282  19.812  0.00  0.00    +0.000 C 
ATOM      6  O   UNL     1       2.397   1.750  19.261  0.00  0.00    +0.000 OA
ATOM      7  C   UNL     1       1.992   2.275  17.989  0.00  0.00    +0.000 C 
ATOM      8  C   UNL     1       3.098   2.326  16.916  0.00  0.00    +0.000 C 
ATOM      9  N   UNL     1       3.523   3.720  16.998  0.00  0.00    +0.000 N 
ATOM     10  C   UNL     1       4.613   4.147  16.277  0.00  0.00    +0.000 A 
ATOM     11  C   UNL     1       5.132   5.437  16.406  0.00  0.00    +0.000 A 
ATOM     12  N   UNL     1       6.226   5.914  15.751  0.00  0.00    +0.000 NA
ATOM     13  C   UNL     1       6.833   4.999  14.959  0.00  0.00    +0.000 A 
ATOM     14  C   UNL     1       6.359   3.711  14.835  0.00  0.00    +0.000 A 
ATOM     15  N   UNL     1       5.254   3.263  15.478  0.00  0.00    +0.000 NA
ATOM     16  C   UNL     1       2.324   4.532  17.110  0.00  0.00    +0.000 C 
ATOM     17  C   UNL     1       1.436   3.708  18.066  0.00  0.00    +0.000 C 
ATOM     18  C   UNL     1       1.347   4.240  19.489  0.00  0.00    +0.000 C 
ENDROOT
BRANCH   2  19
ATOM     19  C   UNL     1       2.362   7.130  19.498  0.00  0.00    +0.000 A 
ATOM     20  C   UNL     1       1.583   7.815  20.439  0.00  0.00    +0.000 A 
ATOM     21  C   UNL     1       0.951   9.012  20.093  0.00  0.00    +0.000 A 
ATOM     22  C   UNL     1       1.090   9.526  18.806  0.00  0.00    +0.000 A 
ATOM     23  C   UNL     1       1.770   8.791  17.837  0.00  0.00    +0.000 A 
ATOM     24  C   UNL     1       2.351   7.567  18.170  0.00  0.00    +0.000 A 
ENDBRANCH   2  19
TORSDOF 1
ENDMDL
MODEL 3
REMARK VINA RESULT:      -7.0      7.612     10.886
REMARK  Name = 
REMARK  1 active torsions:
REMARK  status: ('A' for Active; 'I' for Inactive)
REMARK    1  A    between atoms: C_2  and  C_3
REMARK                            x       y       z     vdW  Elec       q    Type
REMARK                         _______ _______ _______ _____ _____    ______ ____
ROOT
ATOM      1  O   UNL     1      -0.046  11.147  23.059  0.00  0.00    +0.000 OA
ATOM      2  C   UNL     1      -0.976  11.636  22.425  0.00  0.00    +0.000 C 
ATOM      3  N   UNL     1      -1.240  11.299  21.088  0.00  0.00    +0.000 N 
ATOM      4  C   UNL     1      -0.447  10.227  20.452  0.00  0.00    +0.000 C 
ATOM      5  C   UNL     1       0.234  10.517  19.106  0.00  0.00    +0.000 C 
ATOM      6  O   UNL     1      -0.577  11.176  18.129  0.00  0.00    +0.000 OA
ATOM      7  C   UNL     1      -0.630  12.607  18.205  0.00  0.00    +0.000 C 
ATOM      8  C   UNL     1       0.736  13.310  18.335  0.00  0.00    +0.000 C 
ATOM      9  N   UNL     1       0.805  13.554  19.772  0.00  0.00    +0.000 N 
ATOM     10  C   UNL     1       1.958  14.056  20.328  0.00  0.00    +0.000 A 
ATOM     11  C   UNL     1       2.120  14.200  21.707  0.00  0.00    +0.000 A 
ATOM     12  N   UNL     1       3.244  14.656  22.324  0.00  0.00    +0.000 NA
ATOM     13  C   UNL     1       4.261  14.935  21.475  0.00  0.00    +0.000 A 
ATOM     14  C   UNL     1       4.138  14.775  20.111  0.00  0.00    +0.000 A 
ATOM     15  N   UNL     1       3.002  14.341  19.515  0.00  0.00    +0.000 NA
ATOM     16  C   UNL     1      -0.504  14.020  20.196  0.00  0.00    +0.000 C 
ATOM     17  C   UNL     1      -1.468  13.127  19.387  0.00  0.00    +0.000 C 
ATOM     18  C   UNL     1      -2.142  12.016  20.179  0.00  0.00    +0.000 C 
ENDROOT
BRANCH   2  19
ATOM     19  C   UNL     1      -1.820  12.634  23.162  0.00  0.00    +0.000 A 
ATOM     20  C   UNL     1      -3.136  12.286  23.494  0.00  0.00    +0.000 A 
ATOM     21  C   UNL     1      -3.892  13.110  24.333  0.00  0.00    +0.000 A 
ATOM     22  C   UNL     1      -3.339  14.284  24.839  0.00  0.00    +0.000 A 
ATOM     23  C   UNL     1      -2.072  14.687  24.421  0.00  0.00    +0.000 A 
ATOM     24  C   UNL     1      -1.342  13.892  23.536  0.00  0.00    +0.000 A 
ENDBRANCH   2  19
TORSDOF 1
ENDMDL
MODEL 4
REMARK VINA RESULT:      -6.9      7.935     10.287
REMARK  Name = 
REMARK  1 active torsions:
REMARK  status: ('A' for Active; 'I' for Inactive)
REMARK    1  A    between atoms: C_2  and  C_3
REMARK                            x       y       z     vdW  Elec       q    Type
REMARK                         _______ _______ _______ _____ _____    ______ ____
ROOT
ATOM      1  O   UNL     1      -0.790  10.001  20.195  0.00  0.00    +0.000 OA
ATOM      2  C   UNL     1      -0.780  10.843  19.302  0.00  0.00    +0.000 C 
ATOM      3  N   UNL     1       0.202  11.843  19.216  0.00  0.00    +0.000 N 
ATOM      4  C   UNL     1       1.336  11.812  20.163  0.00  0.00    +0.000 C 
ATOM      5  C   UNL     1       1.661  13.084  20.961  0.00  0.00    +0.000 C 
ATOM      6  O   UNL     1       1.679  14.301  20.209  0.00  0.00    +0.000 OA
ATOM      7  C   UNL     1       0.416  14.955  20.027  0.00  0.00    +0.000 C 
ATOM      8  C   UNL     1      -0.429  15.123  21.306  0.00  0.00    +0.000 C 
ATOM      9  N   UNL     1      -1.355  14.001  21.195  0.00  0.00    +0.000 N 
ATOM     10  C   UNL     1      -2.208  13.712  22.234  0.00  0.00    +0.000 A 
ATOM     11  C   UNL     1      -3.032  12.584  22.230  0.00  0.00    +0.000 A 
ATOM     12  N   UNL     1      -3.872  12.221  23.237  0.00  0.00    +0.000 NA
ATOM     13  C   UNL     1      -3.825  13.040  24.314  0.00  0.00    +0.000 A 
ATOM     14  C   UNL     1      -3.001  14.144  24.356  0.00  0.00    +0.000 A 
ATOM     15  N   UNL     1      -2.188  14.502  23.333  0.00  0.00    +0.000 NA
ATOM     16  C   UNL     1      -1.796  13.939  19.813  0.00  0.00    +0.000 C 
ATOM     17  C   UNL     1      -0.506  14.241  19.023  0.00  0.00    +0.000 C 
ATOM     18  C   UNL     1       0.148  13.035  18.363  0.00  0.00    +0.000 C 
ENDROOT
BRANCH   2  19
ATOM     19  C   UNL     1      -1.894  10.752  18.300  0.00  0.00    +0.000 A 
ATOM     20  C   UNL     1      -3.110  11.385  18.587  0.00  0.00    +0.000 A 
ATOM     21  C   UNL     1      -4.104  11.477  17.609  0.00  0.00    +0.000 A 
ATOM     22  C   UNL     1      -3.889  10.933  16.345  0.00  0.00    +0.000 A 
ATOM     23  C   UNL     1      -2.727  10.206  16.093  0.00  0.00    +0.000 A 
ATOM     24  C   UNL     1      -1.762  10.065  17.090  0.00  0.00    +0.000 A 
ENDBRANCH   2  19
TORSDOF 1
ENDMDL
MODEL 5
REMARK VINA RESULT:      -6.9      9.720     11.712
REMARK  Name = 
REMARK  1 active torsions:
REMARK  status: ('A' for Active; 'I' for Inactive)
REMARK    1  A    between atoms: C_2  and  C_3
REMARK                            x       y       z     vdW  Elec       q    Type
REMARK                         _______ _______ _______ _____ _____    ______ ____
ROOT
ATOM      1  O   UNL     1       7.352  14.384  17.633  0.00  0.00    +0.000 OA
ATOM      2  C   UNL     1       8.548  14.584  17.825  0.00  0.00    +0.000 C 
ATOM      3  N   UNL     1       9.477  13.541  17.959  0.00  0.00    +0.000 N 
ATOM      4  C   UNL     1       9.026  12.151  17.742  0.00  0.00    +0.000 C 
ATOM      5  C   UNL     1       9.332  11.103  18.823  0.00  0.00    +0.000 C 
ATOM      6  O   UNL     1      10.666  11.113  19.339  0.00  0.00    +0.000 OA
ATOM      7  C   UNL     1      10.927  12.030  20.410  0.00  0.00    +0.000 C 
ATOM      8  C   UNL     1       9.903  12.005  21.563  0.00  0.00    +0.000 C 
ATOM      9  N   UNL     1       9.051  13.140  21.223  0.00  0.00    +0.000 N 
ATOM     10  C   UNL     1       7.908  13.380  21.949  0.00  0.00    +0.000 A 
ATOM     11  C   UNL     1       6.998  14.380  21.597  0.00  0.00    +0.000 A 
ATOM     12  N   UNL     1       5.834  14.648  22.249  0.00  0.00    +0.000 NA
ATOM     13  C   UNL     1       5.580  13.815  23.286  0.00  0.00    +0.000 A 
ATOM     14  C   UNL     1       6.447  12.802  23.637  0.00  0.00    +0.000 A 
ATOM     15  N   UNL     1       7.613  12.566  22.989  0.00  0.00    +0.000 NA
ATOM     16  C   UNL     1       9.921  14.224  20.801  0.00  0.00    +0.000 C 
ATOM     17  C   UNL     1      10.992  13.500  19.958  0.00  0.00    +0.000 C 
ATOM     18  C   UNL     1      10.854  13.669  18.451  0.00  0.00    +0.000 C 
ENDROOT
BRANCH   2  19
ATOM     19  C   UNL     1       8.966  16.022  17.919  0.00  0.00    +0.000 A 
ATOM     20  C   UNL     1       8.287  16.862  18.811  0.00  0.00    +0.000 A 
ATOM     21  C   UNL     1       8.760  18.154  19.060  0.00  0.00    +0.000 A 
ATOM     22  C   UNL     1       9.907  18.611  18.417  0.00  0.00    +0.000 A 
ATOM     23  C   UNL     1      10.518  17.820  17.447  0.00  0.00    +0.000 A 
ATOM     24  C   UNL     1      10.010  16.553  17.157  0.00  0.00    +0.000 A 
ENDBRANCH   2  19
TORSDOF 1
ENDMDL
MODEL 6
REMARK VINA RESULT:      -6.8      8.022     10.334
REMARK  Name = 
REMARK  1 active torsions:
REMARK  status: ('A' for Active; 'I' for Inactive)
REMARK    1  A    between atoms: C_2  and  C_3
REMARK                            x       y       z     vdW  Elec       q    Type
REMARK                         _______ _______ _______ _____ _____    ______ ____
ROOT
ATOM      1  O   UNL     1      -0.766  10.137  20.239  0.00  0.00    +0.000 OA
ATOM      2  C   UNL     1      -0.745  11.003  19.370  0.00  0.00    +0.000 C 
ATOM      3  N   UNL     1       0.235  12.007  19.326  0.00  0.00    +0.000 N 
ATOM      4  C   UNL     1       1.354  11.955  20.289  0.00  0.00    +0.000 C 
ATOM      5  C   UNL     1       1.662  13.206  21.125  0.00  0.00    +0.000 C 
ATOM      6  O   UNL     1       1.687  14.443  20.407  0.00  0.00    +0.000 OA
ATOM      7  C   UNL     1       0.425  15.098  20.223  0.00  0.00    +0.000 C 
ATOM      8  C   UNL     1      -0.441  15.229  21.493  0.00  0.00    +0.000 C 
ATOM      9  N   UNL     1      -1.361  14.107  21.338  0.00  0.00    +0.000 N 
ATOM     10  C   UNL     1      -2.229  13.787  22.355  0.00  0.00    +0.000 A 
ATOM     11  C   UNL     1      -3.048  12.657  22.308  0.00  0.00    +0.000 A 
ATOM     12  N   UNL     1      -3.902  12.264  23.292  0.00  0.00    +0.000 NA
ATOM     13  C   UNL     1      -3.875  13.053  24.391  0.00  0.00    +0.000 A 
ATOM     14  C   UNL     1      -3.055  14.159  24.475  0.00  0.00    +0.000 A 
ATOM     15  N   UNL     1      -2.229  14.547  23.475  0.00  0.00    +0.000 NA
ATOM     16  C   UNL     1      -1.781  14.080  19.948  0.00  0.00    +0.000 C 
ATOM     17  C   UNL     1      -0.480  14.408  19.186  0.00  0.00    +0.000 C 
ATOM     18  C   UNL     1       0.189  13.222  18.504  0.00  0.00    +0.000 C 
ENDROOT
BRANCH   2  19
ATOM     19  C   UNL     1      -1.843  10.935  18.349  0.00  0.00    +0.000 A 
ATOM     20  C   UNL     1      -1.634  10.180  17.187  0.00  0.00    +0.000 A 
ATOM     21  C   UNL     1      -2.690   9.944  16.302  0.00  0.00    +0.000 A 
ATOM     22  C   UNL     1      -3.954  10.463  16.571  0.00  0.00    +0.000 A 
ATOM     23  C   UNL     1      -4.136  11.306  17.666  0.00  0.00    +0.000 A 
ATOM     24  C   UNL     1      -3.067  11.589  18.516  0.00  0.00    +0.000 A 
ENDBRANCH   2  19
TORSDOF 1
ENDMDL
MODEL 7
REMARK VINA RESULT:      -6.8      7.683     10.950
REMARK  Name = 
REMARK  1 active torsions:
REMARK  status: ('A' for Active; 'I' for Inactive)
REMARK    1  A    between atoms: C_2  and  C_3
REMARK                            x       y       z     vdW  Elec       q    Type
REMARK                         _______ _______ _______ _____ _____    ______ ____
ROOT
ATOM      1  O   UNL     1      -0.050  11.137  23.050  0.00  0.00    +0.000 OA
ATOM      2  C   UNL     1      -1.004  11.617  22.445  0.00  0.00    +0.000 C 
ATOM      3  N   UNL     1      -1.285  11.304  21.106  0.00  0.00    +0.000 N 
ATOM      4  C   UNL     1      -0.478  10.267  20.431  0.00  0.00    +0.000 C 
ATOM      5  C   UNL     1       0.169  10.605  19.079  0.00  0.00    +0.000 C 
ATOM      6  O   UNL     1      -0.678  11.265  18.133  0.00  0.00    +0.000 OA
ATOM      7  C   UNL     1      -0.764  12.692  18.244  0.00  0.00    +0.000 C 
ATOM      8  C   UNL     1       0.586  13.427  18.364  0.00  0.00    +0.000 C 
ATOM      9  N   UNL     1       0.678  13.639  19.805  0.00  0.00    +0.000 N 
ATOM     10  C   UNL     1       1.829  14.157  20.350  0.00  0.00    +0.000 A 
ATOM     11  C   UNL     1       2.014  14.273  21.729  0.00  0.00    +0.000 A 
ATOM     12  N   UNL     1       3.138  14.744  22.335  0.00  0.00    +0.000 NA
ATOM     13  C   UNL     1       4.131  15.067  21.474  0.00  0.00    +0.000 A 
ATOM     14  C   UNL     1       3.986  14.935  20.109  0.00  0.00    +0.000 A 
ATOM     15  N   UNL     1       2.849  14.487  19.524  0.00  0.00    +0.000 NA
ATOM     16  C   UNL     1      -0.634  14.063  20.264  0.00  0.00    +0.000 C 
ATOM     17  C   UNL     1      -1.592  13.165  19.453  0.00  0.00    +0.000 C 
ATOM     18  C   UNL     1      -2.222  12.019  20.231  0.00  0.00    +0.000 C 
ENDROOT
BRANCH   2  19
ATOM     19  C   UNL     1      -1.858  12.576  23.221  0.00  0.00    +0.000 A 
ATOM     20  C   UNL     1      -1.320  13.820  23.576  0.00  0.00    +0.000 A 
ATOM     21  C   UNL     1      -2.136  14.807  24.137  0.00  0.00    +0.000 A 
ATOM     22  C   UNL     1      -3.489  14.552  24.350  0.00  0.00    +0.000 A 
ATOM     23  C   UNL     1      -4.001  13.280  24.103  0.00  0.00    +0.000 A 
ATOM     24  C   UNL     1      -3.170  12.279  23.598  0.00  0.00    +0.000 A 
ENDBRANCH   2  19
TORSDOF 1
ENDMDL
MODEL 8
REMARK VINA RESULT:      -6.8     10.314     12.532
REMARK  Name = 
REMARK  1 active torsions:
REMARK  status: ('A' for Active; 'I' for Inactive)
REMARK    1  A    between atoms: C_2  and  C_3
REMARK                            x       y       z     vdW  Elec       q    Type
REMARK                         _______ _______ _______ _____ _____    ______ ____
ROOT
ATOM      1  O   UNL     1      11.184  14.777  19.985  0.00  0.00    +0.000 OA
ATOM      2  C   UNL     1      10.185  14.485  19.333  0.00  0.00    +0.000 C 
ATOM      3  N   UNL     1       9.458  15.435  18.599  0.00  0.00    +0.000 N 
ATOM      4  C   UNL     1       9.977  16.815  18.505  0.00  0.00    +0.000 C 
ATOM      5  C   UNL     1       9.040  17.978  18.865  0.00  0.00    +0.000 C 
ATOM      6  O   UNL     1       7.722  17.907  18.312  0.00  0.00    +0.000 OA
ATOM      7  C   UNL     1       6.761  17.143  19.052  0.00  0.00    +0.000 C 
ATOM      8  C   UNL     1       6.697  17.448  20.562  0.00  0.00    +0.000 C 
ATOM      9  N   UNL     1       7.509  16.369  21.115  0.00  0.00    +0.000 N 
ATOM     10  C   UNL     1       7.819  16.361  22.454  0.00  0.00    +0.000 A 
ATOM     11  C   UNL     1       8.684  15.420  23.014  0.00  0.00    +0.000 A 
ATOM     12  N   UNL     1       9.060  15.376  24.322  0.00  0.00    +0.000 NA
ATOM     13  C   UNL     1       8.548  16.378  25.074  0.00  0.00    +0.000 A 
ATOM     14  C   UNL     1       7.714  17.337  24.541  0.00  0.00    +0.000 A 
ATOM     15  N   UNL     1       7.333  17.350  23.241  0.00  0.00    +0.000 NA
ATOM     16  C   UNL     1       7.142  15.150  20.416  0.00  0.00    +0.000 C 
ATOM     17  C   UNL     1       6.982  15.622  18.956  0.00  0.00    +0.000 C 
ATOM     18  C   UNL     1       8.123  15.241  18.022  0.00  0.00    +0.000 C 
ENDROOT
BRANCH   2  19
ATOM     19  C   UNL     1       9.774  13.043  19.373  0.00  0.00    +0.000 A 
ATOM     20  C   UNL     1       9.672  12.339  18.166  0.00  0.00    +0.000 A 
ATOM     21  C   UNL     1       9.470  10.956  18.171  0.00  0.00    +0.000 A 
ATOM     22  C   UNL     1       9.364  10.273  19.380  0.00  0.00    +0.000 A 
ATOM     23  C   UNL     1       9.352  10.985  20.578  0.00  0.00    +0.000 A 
ATOM     24  C   UNL     1       9.495  12.373  20.567  0.00  0.00    +0.000 A 
ENDBRANCH   2  19
TORSDOF 1
ENDMDL
MODEL 9
REMARK VINA RESULT:      -6.7     10.306     12.260
REMARK  Name = 
REMARK  1 active torsions:
REMARK  status: ('A' for Active; 'I' for Inactive)
REMARK    1  A    between atoms: C_2  and  C_3
REMARK                            x       y       z     vdW  Elec       q    Type
REMARK                         _______ _______ _______ _____ _____    ______ ____
ROOT
ATOM      1  O   UNL     1       8.233  12.882  21.590  0.00  0.00    +0.000 OA
ATOM      2  C   UNL     1       9.260  13.435  21.208  0.00  0.00    +0.000 C 
ATOM      3  N   UNL     1       9.703  14.658  21.736  0.00  0.00    +0.000 N 
ATOM      4  C   UNL     1       8.974  15.247  22.878  0.00  0.00    +0.000 C 
ATOM      5  C   UNL     1       8.504  16.706  22.775  0.00  0.00    +0.000 C 
ATOM      6  O   UNL     1       9.469  17.635  22.273  0.00  0.00    +0.000 OA
ATOM      7  C   UNL     1       9.558  17.753  20.847  0.00  0.00    +0.000 C 
ATOM      8  C   UNL     1       8.211  17.925  20.115  0.00  0.00    +0.000 C 
ATOM      9  N   UNL     1       7.944  16.562  19.667  0.00  0.00    +0.000 N 
ATOM     10  C   UNL     1       6.740  16.258  19.078  0.00  0.00    +0.000 A 
ATOM     11  C   UNL     1       6.386  14.951  18.736  0.00  0.00    +0.000 A 
ATOM     12  N   UNL     1       5.200  14.577  18.183  0.00  0.00    +0.000 NA
ATOM     13  C   UNL     1       4.326  15.597  18.016  0.00  0.00    +0.000 A 
ATOM     14  C   UNL     1       4.638  16.892  18.370  0.00  0.00    +0.000 A 
ATOM     15  N   UNL     1       5.834  17.248  18.898  0.00  0.00    +0.000 NA
ATOM     16  C   UNL     1       9.193  16.020  19.162  0.00  0.00    +0.000 C 
ATOM     17  C   UNL     1      10.233  16.545  20.172  0.00  0.00    +0.000 C 
ATOM     18  C   UNL     1      10.749  15.515  21.167  0.00  0.00    +0.000 C 
ENDROOT
BRANCH   2  19
ATOM     19  C   UNL     1      10.022  12.728  20.125  0.00  0.00    +0.000 A 
ATOM     20  C   UNL     1       9.461  12.660  18.843  0.00  0.00    +0.000 A 
ATOM     21  C   UNL     1      10.213  12.173  17.771  0.00  0.00    +0.000 A 
ATOM     22  C   UNL     1      11.523  11.747  17.976  0.00  0.00    +0.000 A 
ATOM     23  C   UNL     1      12.044  11.708  19.268  0.00  0.00    +0.000 A 
ATOM     24  C   UNL     1      11.270  12.140  20.346  0.00  0.00    +0.000 A 
ENDBRANCH   2  19
TORSDOF 1
ENDMDL
