MODEL 1
REMARK VINA RESULT:      -7.4      0.000      0.000
REMARK  Name = 
REMARK  7 active torsions:
REMARK  status: ('A' for Active; 'I' for Inactive)
REMARK    1  A    between atoms: C_1  and  C_2
REMARK    2  A    between atoms: C_5  and  N_6
REMARK    3  A    between atoms: C_7  and  C_9
REMARK    4  A    between atoms: C_9  and  S_10
REMARK    5  A    between atoms: S_10  and  C_11
REMARK    6  A    between atoms: C_14  and  C_15
REMARK    7  A    between atoms: N_18  and  N_19
REMARK                            x       y       z     vdW  Elec       q    Type
REMARK                         _______ _______ _______ _____ _____    ______ ____
ROOT
ATOM      1  C   UNL     1       2.991   3.472  20.702  0.00  0.00    +0.000 C 
ENDROOT
BRANCH   1   3
ATOM      2  N   UNL     1       2.689   5.874  20.373  0.00  0.00    +0.000 N 
ATOM      3  C   UNL     1       2.254   4.608  20.006  0.00  0.00    +0.000 C 
ATOM      4  O   UNL     1       1.359   4.362  19.199  0.00  0.00    +0.000 OA
ATOM      5  H   UNL     1       3.489   5.927  20.996  0.00  0.00    +0.000 HD
BRANCH   2  10
ATOM      6  C   UNL     1       0.678  10.950  18.562  0.00  0.00    +0.000 C 
ATOM      7  C   UNL     1       1.182   9.620  19.050  0.00  0.00    +0.000 A 
ATOM      8  C   UNL     1       1.956   8.833  18.193  0.00  0.00    +0.000 A 
ATOM      9  C   UNL     1       2.448   7.591  18.608  0.00  0.00    +0.000 A 
ATOM     10  C   UNL     1       2.197   7.110  19.894  0.00  0.00    +0.000 A 
ATOM     11  C   UNL     1       1.420   7.893  20.756  0.00  0.00    +0.000 A 
ATOM     12  C   UNL     1       0.917   9.135  20.338  0.00  0.00    +0.000 A 
ATOM     13 CL   UNL     1      -0.037  10.042  21.458  0.00  0.00    +0.000 Cl
ENDBRANCH   2  10
ENDBRANCH   1   3
BRANCH   1  14
ATOM     14  S   UNL     1       4.090   2.611  19.538  0.00  0.00    +0.000 S 
BRANCH  14  15
ATOM     15  C   UNL     1       5.043   3.966  18.950  0.00  0.00    +0.000 A 
ATOM     16  N   UNL     1       5.998   4.425  19.697  0.00  0.00    +0.000 NA
ATOM     17  N   UNL     1       6.815   5.464  19.232  0.00  0.00    +0.000 NA
ATOM     18  C   UNL     1       6.572   5.989  18.070  0.00  0.00    +0.000 A 
ATOM     19  C   UNL     1       7.460   7.067  17.520  0.00  0.00    +0.000 C 
ATOM     20  C   UNL     1       5.412   5.561  17.213  0.00  0.00    +0.000 A 
ATOM     21  O   UNL     1       5.141   6.190  16.195  0.00  0.00    +0.000 OA
ATOM     22  N   UNL     1       4.725   4.469  17.703  0.00  0.00    +0.000 N 
BRANCH  22  23
ATOM     23  N   UNL     1       3.654   3.940  16.905  0.00  0.00    +0.000 N 
ATOM     24  H   UNL     1       3.520   2.965  17.191  0.00  0.00    +0.000 HD
ATOM     25  H   UNL     1       3.979   3.908  15.935  0.00  0.00    +0.000 HD
ENDBRANCH  22  23
ENDBRANCH  14  15
ENDBRANCH   1  14
TORSDOF 5
ENDMDL
MODEL 2
REMARK VINA RESULT:      -7.2      1.241      1.627
REMARK  Name = 
REMARK  7 active torsions:
REMARK  status: ('A' for Active; 'I' for Inactive)
REMARK    1  A    between atoms: C_1  and  C_2
REMARK    2  A    between atoms: C_5  and  N_6
REMARK    3  A    between atoms: C_7  and  C_9
REMARK    4  A    between atoms: C_9  and  S_10
REMARK    5  A    between atoms: S_10  and  C_11
REMARK    6  A    between atoms: C_14  and  C_15
REMARK    7  A    between atoms: N_18  and  N_19
REMARK                            x       y       z     vdW  Elec       q    Type
REMARK                         _______ _______ _______ _____ _____    ______ ____
ROOT
ATOM      1  C   UNL     1       2.680   3.309  21.052  0.00  0.00    +0.000 C 
ENDROOT
BRANCH   1   3
ATOM      2  N   UNL     1       2.375   5.728  20.893  0.00  0.00    +0.000 N 
ATOM      3  C   UNL     1       1.789   4.487  20.682  0.00  0.00    +0.000 C 
ATOM      4  O   UNL     1       0.658   4.292  20.240  0.00  0.00    +0.000 OA
ATOM      5  H   UNL     1       3.344   5.738  21.194  0.00  0.00    +0.000 HD
BRANCH   2  10
ATOM      6  C   UNL     1       0.025  10.846  19.726  0.00  0.00    +0.000 C 
ATOM      7  C   UNL     1       0.661   9.516  20.017  0.00  0.00    +0.000 A 
ATOM      8  C   UNL     1       0.356   8.868  21.218  0.00  0.00    +0.000 A 
ATOM      9  C   UNL     1       0.922   7.627  21.528  0.00  0.00    +0.000 A 
ATOM     10  C   UNL     1       1.793   6.992  20.642  0.00  0.00    +0.000 A 
ATOM     11  C   UNL     1       2.105   7.637  19.439  0.00  0.00    +0.000 A 
ATOM     12  C   UNL     1       1.544   8.887  19.131  0.00  0.00    +0.000 A 
ATOM     13 CL   UNL     1       1.980   9.622  17.628  0.00  0.00    +0.000 Cl
ENDBRANCH   2  10
ENDBRANCH   1   3
BRANCH   1  14
ATOM     14  S   UNL     1       3.322   2.496  19.558  0.00  0.00    +0.000 S 
BRANCH  14  15
ATOM     15  C   UNL     1       4.428   3.734  18.982  0.00  0.00    +0.000 A 
ATOM     16  N   UNL     1       5.593   3.837  19.540  0.00  0.00    +0.000 NA
ATOM     17  N   UNL     1       6.521   4.773  19.063  0.00  0.00    +0.000 NA
ATOM     18  C   UNL     1       6.179   5.565  18.093  0.00  0.00    +0.000 A 
ATOM     19  C   UNL     1       7.166   6.542  17.524  0.00  0.00    +0.000 C 
ATOM     20  C   UNL     1       4.803   5.555  17.483  0.00  0.00    +0.000 A 
ATOM     21  O   UNL     1       4.489   6.421  16.675  0.00  0.00    +0.000 OA
ATOM     22  N   UNL     1       3.993   4.538  17.944  0.00  0.00    +0.000 N 
BRANCH  22  23
ATOM     23  N   UNL     1       2.690   4.402  17.354  0.00  0.00    +0.000 N 
ATOM     24  H   UNL     1       2.013   4.376  18.123  0.00  0.00    +0.000 HD
ATOM     25  H   UNL     1       2.648   3.482  16.908  0.00  0.00    +0.000 HD
ENDBRANCH  22  23
ENDBRANCH  14  15
ENDBRANCH   1  14
TORSDOF 5
ENDMDL
MODEL 3
REMARK VINA RESULT:      -7.1      1.927      4.064
REMARK  Name = 
REMARK  7 active torsions:
REMARK  status: ('A' for Active; 'I' for Inactive)
REMARK    1  A    between atoms: C_1  and  C_2
REMARK    2  A    between atoms: C_5  and  N_6
REMARK    3  A    between atoms: C_7  and  C_9
REMARK    4  A    between atoms: C_9  and  S_10
REMARK    5  A    between atoms: S_10  and  C_11
REMARK    6  A    between atoms: C_14  and  C_15
REMARK    7  A    between atoms: N_18  and  N_19
REMARK                            x       y       z     vdW  Elec       q    Type
REMARK                         _______ _______ _______ _____ _____    ______ ____
ROOT
ATOM      1  C   UNL     1       5.208   5.770  15.973  0.00  0.00    +0.000 C 
ENDROOT
BRANCH   1   3
ATOM      2  N   UNL     1       3.379   6.650  17.332  0.00  0.00    +0.000 N 
ATOM      3  C   UNL     1       4.755   6.497  17.232  0.00  0.00    +0.000 C 
ATOM      4  O   UNL     1       5.583   6.889  18.052  0.00  0.00    +0.000 OA
ATOM      5  H   UNL     1       2.809   6.210  16.616  0.00  0.00    +0.000 HD
BRANCH   2  10
ATOM      6  C   UNL     1       0.430   9.281  21.512  0.00  0.00    +0.000 C 
ATOM      7  C   UNL     1       1.209   8.617  20.411  0.00  0.00    +0.000 A 
ATOM      8  C   UNL     1       1.746   7.345  20.633  0.00  0.00    +0.000 A 
ATOM      9  C   UNL     1       2.475   6.690  19.635  0.00  0.00    +0.000 A 
ATOM     10  C   UNL     1       2.672   7.277  18.384  0.00  0.00    +0.000 A 
ATOM     11  C   UNL     1       2.139   8.552  18.157  0.00  0.00    +0.000 A 
ATOM     12  C   UNL     1       1.415   9.214  19.160  0.00  0.00    +0.000 A 
ATOM     13 CL   UNL     1       0.791  10.787  18.806  0.00  0.00    +0.000 Cl
ENDBRANCH   2  10
ENDBRANCH   1   3
BRANCH   1  14
ATOM     14  S   UNL     1       5.478   4.005  16.311  0.00  0.00    +0.000 S 
BRANCH  14  15
ATOM     15  C   UNL     1       4.054   3.653  17.279  0.00  0.00    +0.000 A 
ATOM     16  N   UNL     1       2.896   3.630  16.697  0.00  0.00    +0.000 NA
ATOM     17  N   UNL     1       1.749   3.293  17.427  0.00  0.00    +0.000 NA
ATOM     18  C   UNL     1       1.856   3.053  18.698  0.00  0.00    +0.000 A 
ATOM     19  C   UNL     1       0.657   2.638  19.500  0.00  0.00    +0.000 C 
ATOM     20  C   UNL     1       3.161   3.169  19.439  0.00  0.00    +0.000 A 
ATOM     21  O   UNL     1       3.178   3.078  20.662  0.00  0.00    +0.000 OA
ATOM     22  N   UNL     1       4.249   3.407  18.625  0.00  0.00    +0.000 N 
BRANCH  22  23
ATOM     23  N   UNL     1       5.547   3.448  19.239  0.00  0.00    +0.000 N 
ATOM     24  H   UNL     1       5.600   4.322  19.772  0.00  0.00    +0.000 HD
ATOM     25  H   UNL     1       6.240   3.529  18.491  0.00  0.00    +0.000 HD
ENDBRANCH  22  23
ENDBRANCH  14  15
ENDBRANCH   1  14
TORSDOF 5
ENDMDL
MODEL 4
REMARK VINA RESULT:      -6.9      1.459      1.499
REMARK  Name = 
REMARK  7 active torsions:
REMARK  status: ('A' for Active; 'I' for Inactive)
REMARK    1  A    between atoms: C_1  and  C_2
REMARK    2  A    between atoms: C_5  and  N_6
REMARK    3  A    between atoms: C_7  and  C_9
REMARK    4  A    between atoms: C_9  and  S_10
REMARK    5  A    between atoms: S_10  and  C_11
REMARK    6  A    between atoms: C_14  and  C_15
REMARK    7  A    between atoms: N_18  and  N_19
REMARK                            x       y       z     vdW  Elec       q    Type
REMARK                         _______ _______ _______ _____ _____    ______ ____
ROOT
ATOM      1  C   UNL     1       2.989   3.135  18.441  0.00  0.00    +0.000 C 
ENDROOT
BRANCH   1   3
ATOM      2  N   UNL     1       2.758   5.499  19.013  0.00  0.00    +0.000 N 
ATOM      3  C   UNL     1       2.235   4.448  18.273  0.00  0.00    +0.000 C 
ATOM      4  O   UNL     1       1.255   4.507  17.532  0.00  0.00    +0.000 OA
ATOM      5  H   UNL     1       3.616   5.324  19.526  0.00  0.00    +0.000 HD
BRANCH   2  10
ATOM      6  C   UNL     1       0.816  10.904  19.329  0.00  0.00    +0.000 C 
ATOM      7  C   UNL     1       1.306   9.485  19.265  0.00  0.00    +0.000 A 
ATOM      8  C   UNL     1       1.777   8.985  18.048  0.00  0.00    +0.000 A 
ATOM      9  C   UNL     1       2.246   7.671  17.944  0.00  0.00    +0.000 A 
ATOM     10  C   UNL     1       2.273   6.827  19.055  0.00  0.00    +0.000 A 
ATOM     11  C   UNL     1       1.799   7.321  20.277  0.00  0.00    +0.000 A 
ATOM     12  C   UNL     1       1.320   8.636  20.380  0.00  0.00    +0.000 A 
ATOM     13 CL   UNL     1       0.749   9.172  21.921  0.00  0.00    +0.000 Cl
ENDBRANCH   2  10
ENDBRANCH   1   3
BRANCH   1  14
ATOM     14  S   UNL     1       4.247   2.946  17.143  0.00  0.00    +0.000 S 
BRANCH  14  15
ATOM     15  C   UNL     1       5.422   4.141  17.672  0.00  0.00    +0.000 A 
ATOM     16  N   UNL     1       5.620   4.299  18.943  0.00  0.00    +0.000 NA
ATOM     17  N   UNL     1       6.592   5.200  19.396  0.00  0.00    +0.000 NA
ATOM     18  C   UNL     1       7.253   5.906  18.531  0.00  0.00    +0.000 A 
ATOM     19  C   UNL     1       8.339   6.841  18.979  0.00  0.00    +0.000 C 
ATOM     20  C   UNL     1       6.986   5.834  17.051  0.00  0.00    +0.000 A 
ATOM     21  O   UNL     1       7.534   6.629  16.294  0.00  0.00    +0.000 OA
ATOM     22  N   UNL     1       6.087   4.853  16.691  0.00  0.00    +0.000 N 
BRANCH  22  23
ATOM     23  N   UNL     1       5.836   4.657  15.290  0.00  0.00    +0.000 N 
ATOM     24  H   UNL     1       5.060   3.992  15.213  0.00  0.00    +0.000 HD
ATOM     25  H   UNL     1       6.653   4.187  14.893  0.00  0.00    +0.000 HD
ENDBRANCH  22  23
ENDBRANCH  14  15
ENDBRANCH   1  14
TORSDOF 5
ENDMDL
MODEL 5
REMARK VINA RESULT:      -6.9      1.870      2.534
REMARK  Name = 
REMARK  7 active torsions:
REMARK  status: ('A' for Active; 'I' for Inactive)
REMARK    1  A    between atoms: C_1  and  C_2
REMARK    2  A    between atoms: C_5  and  N_6
REMARK    3  A    between atoms: C_7  and  C_9
REMARK    4  A    between atoms: C_9  and  S_10
REMARK    5  A    between atoms: S_10  and  C_11
REMARK    6  A    between atoms: C_14  and  C_15
REMARK    7  A    between atoms: N_18  and  N_19
REMARK                            x       y       z     vdW  Elec       q    Type
REMARK                         _______ _______ _______ _____ _____    ______ ____
ROOT
ATOM      1  C   UNL     1       3.714   4.329  19.579  0.00  0.00    +0.000 C 
ENDROOT
BRANCH   1   3
ATOM      2  N   UNL     1       2.866   6.620  19.616  0.00  0.00    +0.000 N 
ATOM      3  C   UNL     1       2.573   5.290  19.885  0.00  0.00    +0.000 C 
ATOM      4  O   UNL     1       1.508   4.863  20.329  0.00  0.00    +0.000 OA
ATOM      5  H   UNL     1       3.761   6.819  19.181  0.00  0.00    +0.000 HD
BRANCH   2  10
ATOM      6  C   UNL     1      -0.599  11.126  20.497  0.00  0.00    +0.000 C 
ATOM      7  C   UNL     1       0.292   9.934  20.284  0.00  0.00    +0.000 A 
ATOM      8  C   UNL     1       0.865   9.733  19.025  0.00  0.00    +0.000 A 
ATOM      9  C   UNL     1       1.704   8.640  18.785  0.00  0.00    +0.000 A 
ATOM     10  C   UNL     1       2.006   7.728  19.797  0.00  0.00    +0.000 A 
ATOM     11  C   UNL     1       1.433   7.923  21.060  0.00  0.00    +0.000 A 
ATOM     12  C   UNL     1       0.585   9.015  21.300  0.00  0.00    +0.000 A 
ATOM     13 CL   UNL     1      -0.088   9.185  22.883  0.00  0.00    +0.000 Cl
ENDBRANCH   2  10
ENDBRANCH   1   3
BRANCH   1  14
ATOM     14  S   UNL     1       5.258   5.240  19.278  0.00  0.00    +0.000 S 
BRANCH  14  15
ATOM     15  C   UNL     1       5.562   4.793  17.606  0.00  0.00    +0.000 A 
ATOM     16  N   UNL     1       4.860   3.839  17.079  0.00  0.00    +0.000 NA
ATOM     17  N   UNL     1       5.036   3.499  15.731  0.00  0.00    +0.000 NA
ATOM     18  C   UNL     1       5.940   4.117  15.035  0.00  0.00    +0.000 A 
ATOM     19  C   UNL     1       6.118   3.816  13.575  0.00  0.00    +0.000 C 
ATOM     20  C   UNL     1       6.850   5.159  15.629  0.00  0.00    +0.000 A 
ATOM     21  O   UNL     1       7.782   5.602  14.967  0.00  0.00    +0.000 OA
ATOM     22  N   UNL     1       6.540   5.499  16.929  0.00  0.00    +0.000 N 
BRANCH  22  23
ATOM     23  N   UNL     1       7.305   6.546  17.547  0.00  0.00    +0.000 N 
ATOM     24  H   UNL     1       7.935   6.101  18.222  0.00  0.00    +0.000 HD
ATOM     25  H   UNL     1       6.658   7.117  18.097  0.00  0.00    +0.000 HD
ENDBRANCH  22  23
ENDBRANCH  14  15
ENDBRANCH   1  14
TORSDOF 5
ENDMDL
MODEL 6
REMARK VINA RESULT:      -6.8      1.633      2.024
REMARK  Name = 
REMARK  7 active torsions:
REMARK  status: ('A' for Active; 'I' for Inactive)
REMARK    1  A    between atoms: C_1  and  C_2
REMARK    2  A    between atoms: C_5  and  N_6
REMARK    3  A    between atoms: C_7  and  C_9
REMARK    4  A    between atoms: C_9  and  S_10
REMARK    5  A    between atoms: S_10  and  C_11
REMARK    6  A    between atoms: C_14  and  C_15
REMARK    7  A    between atoms: N_18  and  N_19
REMARK                            x       y       z     vdW  Elec       q    Type
REMARK                         _______ _______ _______ _____ _____    ______ ____
ROOT
ATOM      1  C   UNL     1       2.813   3.450  17.159  0.00  0.00    +0.000 C 
ENDROOT
BRANCH   1   3
ATOM      2  N   UNL     1       2.650   5.654  18.202  0.00  0.00    +0.000 N 
ATOM      3  C   UNL     1       2.081   4.391  18.107  0.00  0.00    +0.000 C 
ATOM      4  O   UNL     1       1.079   4.007  18.707  0.00  0.00    +0.000 OA
ATOM      5  H   UNL     1       3.436   5.856  17.591  0.00  0.00    +0.000 HD
BRANCH   2  10
ATOM      6  C   UNL     1       0.733  10.098  21.309  0.00  0.00    +0.000 C 
ATOM      7  C   UNL     1       1.248   8.954  20.482  0.00  0.00    +0.000 A 
ATOM      8  C   UNL     1       1.428   7.707  21.089  0.00  0.00    +0.000 A 
ATOM      9  C   UNL     1       1.902   6.614  20.355  0.00  0.00    +0.000 A 
ATOM     10  C   UNL     1       2.192   6.731  18.995  0.00  0.00    +0.000 A 
ATOM     11  C   UNL     1       2.016   7.977  18.383  0.00  0.00    +0.000 A 
ATOM     12  C   UNL     1       1.549   9.077  19.120  0.00  0.00    +0.000 A 
ATOM     13 CL   UNL     1       1.361  10.584  18.294  0.00  0.00    +0.000 Cl
ENDBRANCH   2  10
ENDBRANCH   1   3
BRANCH   1  14
ATOM     14  S   UNL     1       4.152   2.578  18.026  0.00  0.00    +0.000 S 
BRANCH  14  15
ATOM     15  C   UNL     1       5.313   3.885  18.198  0.00  0.00    +0.000 A 
ATOM     16  N   UNL     1       5.453   4.444  19.360  0.00  0.00    +0.000 NA
ATOM     17  N   UNL     1       6.413   5.447  19.546  0.00  0.00    +0.000 NA
ATOM     18  C   UNL     1       7.122   5.841  18.532  0.00  0.00    +0.000 A 
ATOM     19  C   UNL     1       8.196   6.876  18.708  0.00  0.00    +0.000 C 
ATOM     20  C   UNL     1       6.924   5.297  17.143  0.00  0.00    +0.000 A 
ATOM     21  O   UNL     1       7.515   5.808  16.198  0.00  0.00    +0.000 OA
ATOM     22  N   UNL     1       6.032   4.247  17.074  0.00  0.00    +0.000 N 
BRANCH  22  23
ATOM     23  N   UNL     1       5.845   3.611  15.799  0.00  0.00    +0.000 N 
ATOM     24  H   UNL     1       6.494   2.818  15.761  0.00  0.00    +0.000 HD
ATOM     25  H   UNL     1       6.156   4.266  15.079  0.00  0.00    +0.000 HD
ENDBRANCH  22  23
ENDBRANCH  14  15
ENDBRANCH   1  14
TORSDOF 5
ENDMDL
MODEL 7
REMARK VINA RESULT:      -6.8      2.300      3.071
REMARK  Name = 
REMARK  7 active torsions:
REMARK  status: ('A' for Active; 'I' for Inactive)
REMARK    1  A    between atoms: C_1  and  C_2
REMARK    2  A    between atoms: C_5  and  N_6
REMARK    3  A    between atoms: C_7  and  C_9
REMARK    4  A    between atoms: C_9  and  S_10
REMARK    5  A    between atoms: S_10  and  C_11
REMARK    6  A    between atoms: C_14  and  C_15
REMARK    7  A    between atoms: N_18  and  N_19
REMARK                            x       y       z     vdW  Elec       q    Type
REMARK                         _______ _______ _______ _____ _____    ______ ____
ROOT
ATOM      1  C   UNL     1       4.087   4.193  18.926  0.00  0.00    +0.000 C 
ENDROOT
BRANCH   1   3
ATOM      2  N   UNL     1       3.113   6.279  19.746  0.00  0.00    +0.000 N 
ATOM      3  C   UNL     1       2.896   5.141  18.982  0.00  0.00    +0.000 C 
ATOM      4  O   UNL     1       1.860   4.866  18.380  0.00  0.00    +0.000 OA
ATOM      5  H   UNL     1       4.045   6.412  20.127  0.00  0.00    +0.000 HD
BRANCH   2  10
ATOM      6  C   UNL     1      -0.622  10.580  20.537  0.00  0.00    +0.000 C 
ATOM      7  C   UNL     1       0.370   9.473  20.318  0.00  0.00    +0.000 A 
ATOM      8  C   UNL     1       0.478   8.460  21.275  0.00  0.00    +0.000 A 
ATOM      9  C   UNL     1       1.385   7.409  21.109  0.00  0.00    +0.000 A 
ATOM     10  C   UNL     1       2.197   7.331  19.976  0.00  0.00    +0.000 A 
ATOM     11  C   UNL     1       2.096   8.344  19.015  0.00  0.00    +0.000 A 
ATOM     12  C   UNL     1       1.192   9.404  19.185  0.00  0.00    +0.000 A 
ATOM     13 CL   UNL     1       1.127  10.619  17.957  0.00  0.00    +0.000 Cl
ENDBRANCH   2  10
ENDBRANCH   1   3
BRANCH   1  14
ATOM     14  S   UNL     1       5.622   5.109  18.596  0.00  0.00    +0.000 S 
BRANCH  14  15
ATOM     15  C   UNL     1       5.889   4.672  16.914  0.00  0.00    +0.000 A 
ATOM     16  N   UNL     1       5.232   3.670  16.420  0.00  0.00    +0.000 NA
ATOM     17  N   UNL     1       5.376   3.334  15.068  0.00  0.00    +0.000 NA
ATOM     18  C   UNL     1       6.209   4.006  14.333  0.00  0.00    +0.000 A 
ATOM     19  C   UNL     1       6.348   3.707  12.869  0.00  0.00    +0.000 C 
ATOM     20  C   UNL     1       7.070   5.110  14.887  0.00  0.00    +0.000 A 
ATOM     21  O   UNL     1       7.944   5.610  14.186  0.00  0.00    +0.000 OA
ATOM     22  N   UNL     1       6.790   5.437  16.197  0.00  0.00    +0.000 N 
BRANCH  22  23
ATOM     23  N   UNL     1       7.507   6.537  16.779  0.00  0.00    +0.000 N 
ATOM     24  H   UNL     1       8.041   6.981  16.025  0.00  0.00    +0.000 HD
ATOM     25  H   UNL     1       8.199   6.148  17.424  0.00  0.00    +0.000 HD
ENDBRANCH  22  23
ENDBRANCH  14  15
ENDBRANCH   1  14
TORSDOF 5
ENDMDL
MODEL 8
REMARK VINA RESULT:      -6.7      4.355      6.587
REMARK  Name = 
REMARK  7 active torsions:
REMARK  status: ('A' for Active; 'I' for Inactive)
REMARK    1  A    between atoms: C_1  and  C_2
REMARK    2  A    between atoms: C_5  and  N_6
REMARK    3  A    between atoms: C_7  and  C_9
REMARK    4  A    between atoms: C_9  and  S_10
REMARK    5  A    between atoms: S_10  and  C_11
REMARK    6  A    between atoms: C_14  and  C_15
REMARK    7  A    between atoms: N_18  and  N_19
REMARK                            x       y       z     vdW  Elec       q    Type
REMARK                         _______ _______ _______ _____ _____    ______ ____
ROOT
ATOM      1  C   UNL     1       7.987   6.553  18.618  0.00  0.00    +0.000 C 
ENDROOT
BRANCH   1   3
ATOM      2  N   UNL     1       8.925   8.750  19.130  0.00  0.00    +0.000 N 
ATOM      3  C   UNL     1       8.084   8.036  18.288  0.00  0.00    +0.000 C 
ATOM      4  O   UNL     1       7.449   8.502  17.343  0.00  0.00    +0.000 OA
ATOM      5  H   UNL     1       9.445   8.221  19.825  0.00  0.00    +0.000 HD
BRANCH   2  10
ATOM      6  C   UNL     1      10.148  14.369  19.005  0.00  0.00    +0.000 C 
ATOM      7  C   UNL     1       9.814  12.904  19.059  0.00  0.00    +0.000 A 
ATOM      8  C   UNL     1       9.715  12.187  17.863  0.00  0.00    +0.000 A 
ATOM      9  C   UNL     1       9.410  10.822  17.869  0.00  0.00    +0.000 A 
ATOM     10  C   UNL     1       9.212  10.133  19.066  0.00  0.00    +0.000 A 
ATOM     11  C   UNL     1       9.307  10.846  20.267  0.00  0.00    +0.000 A 
ATOM     12  C   UNL     1       9.604  12.218  20.263  0.00  0.00    +0.000 A 
ATOM     13 CL   UNL     1       9.700  13.031  21.785  0.00  0.00    +0.000 Cl
ENDBRANCH   2  10
ENDBRANCH   1   3
BRANCH   1  14
ATOM     14  S   UNL     1       7.174   5.646  17.269  0.00  0.00    +0.000 S 
BRANCH  14  15
ATOM     15  C   UNL     1       5.691   5.154  18.075  0.00  0.00    +0.000 A 
ATOM     16  N   UNL     1       5.714   4.104  18.834  0.00  0.00    +0.000 NA
ATOM     17  N   UNL     1       4.565   3.721  19.538  0.00  0.00    +0.000 NA
ATOM     18  C   UNL     1       3.470   4.400  19.381  0.00  0.00    +0.000 A 
ATOM     19  C   UNL     1       2.236   4.049  20.160  0.00  0.00    +0.000 C 
ATOM     20  C   UNL     1       3.366   5.563  18.431  0.00  0.00    +0.000 A 
ATOM     21  O   UNL     1       2.274   6.074  18.211  0.00  0.00    +0.000 OA
ATOM     22  N   UNL     1       4.567   5.930  17.860  0.00  0.00    +0.000 N 
BRANCH  22  23
ATOM     23  N   UNL     1       4.576   7.084  17.005  0.00  0.00    +0.000 N 
ATOM     24  H   UNL     1       5.412   7.628  17.242  0.00  0.00    +0.000 HD
ATOM     25  H   UNL     1       3.776   7.667  17.265  0.00  0.00    +0.000 HD
ENDBRANCH  22  23
ENDBRANCH  14  15
ENDBRANCH   1  14
TORSDOF 5
ENDMDL
MODEL 9
REMARK VINA RESULT:      -6.7      4.538      7.047
REMARK  Name = 
REMARK  7 active torsions:
REMARK  status: ('A' for Active; 'I' for Inactive)
REMARK    1  A    between atoms: C_1  and  C_2
REMARK    2  A    between atoms: C_5  and  N_6
REMARK    3  A    between atoms: C_7  and  C_9
REMARK    4  A    between atoms: C_9  and  S_10
REMARK    5  A    between atoms: S_10  and  C_11
REMARK    6  A    between atoms: C_14  and  C_15
REMARK    7  A    between atoms: N_18  and  N_19
REMARK                            x       y       z     vdW  Elec       q    Type
REMARK                         _______ _______ _______ _____ _____    ______ ____
ROOT
ATOM      1  C   UNL     1       1.293   8.830  21.331  0.00  0.00    +0.000 C 
ENDROOT
BRANCH   1   3
ATOM      2  N   UNL     1       1.947   6.527  20.843  0.00  0.00    +0.000 N 
ATOM      3  C   UNL     1       1.763   7.797  20.315  0.00  0.00    +0.000 C 
ATOM      4  O   UNL     1       1.945   8.122  19.143  0.00  0.00    +0.000 OA
ATOM      5  H   UNL     1       1.687   6.386  21.815  0.00  0.00    +0.000 HD
BRANCH   2  10
ATOM      6  C   UNL     1       3.543   1.818  17.951  0.00  0.00    +0.000 C 
ATOM      7  C   UNL     1       3.108   3.034  18.720  0.00  0.00    +0.000 A 
ATOM      8  C   UNL     1       4.055   4.015  19.030  0.00  0.00    +0.000 A 
ATOM      9  C   UNL     1       3.692   5.164  19.740  0.00  0.00    +0.000 A 
ATOM     10  C   UNL     1       2.373   5.374  20.145  0.00  0.00    +0.000 A 
ATOM     11  C   UNL     1       1.420   4.394  19.839  0.00  0.00    +0.000 A 
ATOM     12  C   UNL     1       1.785   3.237  19.135  0.00  0.00    +0.000 A 
ATOM     13 CL   UNL     1       0.553   2.071  18.799  0.00  0.00    +0.000 Cl
ENDBRANCH   2  10
ENDBRANCH   1   3
BRANCH   1  14
ATOM     14  S   UNL     1       0.006   9.896  20.616  0.00  0.00    +0.000 S 
BRANCH  14  15
ATOM     15  C   UNL     1       0.913  11.386  20.412  0.00  0.00    +0.000 A 
ATOM     16  N   UNL     1       1.078  12.160  21.440  0.00  0.00    +0.000 NA
ATOM     17  N   UNL     1       1.848  13.325  21.326  0.00  0.00    +0.000 NA
ATOM     18  C   UNL     1       2.350  13.642  20.172  0.00  0.00    +0.000 A 
ATOM     19  C   UNL     1       3.223  14.854  20.026  0.00  0.00    +0.000 C 
ATOM     20  C   UNL     1       2.100  12.832  18.928  0.00  0.00    +0.000 A 
ATOM     21  O   UNL     1       2.473  13.256  17.839  0.00  0.00    +0.000 OA
ATOM     22  N   UNL     1       1.418  11.654  19.153  0.00  0.00    +0.000 N 
BRANCH  22  23
ATOM     23  N   UNL     1       1.210  10.777  18.034  0.00  0.00    +0.000 N 
ATOM     24  H   UNL     1       2.034  10.170  17.971  0.00  0.00    +0.000 HD
ATOM     25  H   UNL     1       1.215  11.351  17.188  0.00  0.00    +0.000 HD
ENDBRANCH  22  23
ENDBRANCH  14  15
ENDBRANCH   1  14
TORSDOF 5
ENDMDL
