MODEL 1
REMARK VINA RESULT:      -9.2      0.000      0.000
REMARK  Name = 
REMARK  5 active torsions:
REMARK  status: ('A' for Active; 'I' for Inactive)
REMARK    1  A    between atoms: C_2  and  O_3
REMARK    2  A    between atoms: C_2  and  C_4
REMARK    3  A    between atoms: C_11  and  C_12
REMARK    4  A    between atoms: C_12  and  C_13
REMARK    5  A    between atoms: C_13  and  N_14
REMARK                            x       y       z     vdW  Elec       q    Type
REMARK                         _______ _______ _______ _____ _____    ______ ____
ROOT
ATOM      1  C   UNL     1       6.241   5.754  17.546  0.00  0.00    +0.000 A 
ATOM      2  C   UNL     1       6.303   4.677  16.671  0.00  0.00    +0.000 A 
ATOM      3  C   UNL     1       5.151   3.918  16.481  0.00  0.00    +0.000 A 
ATOM      4  C   UNL     1       3.948   4.268  17.118  0.00  0.00    +0.000 A 
ATOM      5  C   UNL     1       3.910   5.389  17.974  0.00  0.00    +0.000 A 
ATOM      6  C   UNL     1       5.091   6.073  18.240  0.00  0.00    +0.000 A 
ATOM      7  C   UNL     1       2.738   5.823  18.765  0.00  0.00    +0.000 C 
ATOM      8  C   UNL     1       2.255   7.083  18.779  0.00  0.00    +0.000 C 
ATOM      9  C   UNL     1       2.122   4.782  19.601  0.00  0.00    +0.000 A 
ATOM     10  C   UNL     1       2.300   4.794  20.988  0.00  0.00    +0.000 A 
ATOM     11  C   UNL     1       2.050   3.634  21.716  0.00  0.00    +0.000 A 
ATOM     12  C   UNL     1       1.627   2.478  21.061  0.00  0.00    +0.000 A 
ATOM     13  C   UNL     1       1.430   2.468  19.680  0.00  0.00    +0.000 A 
ATOM     14  C   UNL     1       1.674   3.626  18.937  0.00  0.00    +0.000 A 
ATOM     15  C   UNL     1       1.639   3.636  17.426  0.00  0.00    +0.000 C 
ATOM     16  O   UNL     1       2.924   3.398  16.841  0.00  0.00    +0.000 OA
ENDROOT
BRANCH   1  18
ATOM     17  O   UNL     1       7.642   7.518  16.727  0.00  0.00    +0.000 OA
ATOM     18  C   UNL     1       7.257   6.791  17.618  0.00  0.00    +0.000 C 
BRANCH  18  19
ATOM     19  O   UNL     1       7.951   6.519  18.735  0.00  0.00    +0.000 OA
ATOM     20  H   UNL     1       8.067   5.538  18.748  0.00  0.00    +0.000 HD
ENDBRANCH  18  19
ENDBRANCH   1  18
BRANCH   8  21
ATOM     21  C   UNL     1       2.751   8.291  18.003  0.00  0.00    +0.000 C 
BRANCH  21  22
ATOM     22  C   UNL     1       1.693   9.396  17.802  0.00  0.00    +0.000 C 
BRANCH  22  23
ATOM     23  N   UNL     1       1.411  10.184  19.021  0.00  0.00    +0.000 NA
ATOM     24  C   UNL     1       0.032   9.937  19.488  0.00  0.00    +0.000 C 
ATOM     25  C   UNL     1      -0.822  10.952  18.755  0.00  0.00    +0.000 C 
ATOM     26  C   UNL     1       0.055  12.182  18.772  0.00  0.00    +0.000 C 
ATOM     27  C   UNL     1       1.483  11.643  18.793  0.00  0.00    +0.000 C 
ENDBRANCH  22  23
ENDBRANCH  21  22
ENDBRANCH   8  21
TORSDOF 5
ENDMDL
MODEL 2
REMARK VINA RESULT:      -8.6      1.779      4.948
REMARK  Name = 
REMARK  5 active torsions:
REMARK  status: ('A' for Active; 'I' for Inactive)
REMARK    1  A    between atoms: C_2  and  O_3
REMARK    2  A    between atoms: C_2  and  C_4
REMARK    3  A    between atoms: C_11  and  C_12
REMARK    4  A    between atoms: C_12  and  C_13
REMARK    5  A    between atoms: C_13  and  N_14
REMARK                            x       y       z     vdW  Elec       q    Type
REMARK                         _______ _______ _______ _____ _____    ______ ____
ROOT
ATOM      1  C   UNL     1       2.292   3.152  19.186  0.00  0.00    +0.000 A 
ATOM      2  C   UNL     1       3.207   2.470  19.978  0.00  0.00    +0.000 A 
ATOM      3  C   UNL     1       4.525   2.919  19.995  0.00  0.00    +0.000 A 
ATOM      4  C   UNL     1       4.902   4.063  19.271  0.00  0.00    +0.000 A 
ATOM      5  C   UNL     1       3.940   4.754  18.504  0.00  0.00    +0.000 A 
ATOM      6  C   UNL     1       2.654   4.233  18.408  0.00  0.00    +0.000 A 
ATOM      7  C   UNL     1       4.214   5.921  17.636  0.00  0.00    +0.000 C 
ATOM      8  C   UNL     1       3.514   7.074  17.671  0.00  0.00    +0.000 C 
ATOM      9  C   UNL     1       5.304   5.742  16.665  0.00  0.00    +0.000 A 
ATOM     10  C   UNL     1       5.020   5.565  15.308  0.00  0.00    +0.000 A 
ATOM     11  C   UNL     1       5.994   5.028  14.472  0.00  0.00    +0.000 A 
ATOM     12  C   UNL     1       7.239   4.673  14.992  0.00  0.00    +0.000 A 
ATOM     13  C   UNL     1       7.533   4.866  16.342  0.00  0.00    +0.000 A 
ATOM     14  C   UNL     1       6.565   5.407  17.192  0.00  0.00    +0.000 A 
ATOM     15  C   UNL     1       6.761   5.488  18.689  0.00  0.00    +0.000 C 
ATOM     16  O   UNL     1       6.240   4.346  19.377  0.00  0.00    +0.000 OA
ENDROOT
BRANCH   1  18
ATOM     17  O   UNL     1       0.101   2.467  18.495  0.00  0.00    +0.000 OA
ATOM     18  C   UNL     1       0.853   2.984  19.295  0.00  0.00    +0.000 C 
BRANCH  18  19
ATOM     19  O   UNL     1       0.474   3.850  20.248  0.00  0.00    +0.000 OA
ATOM     20  H   UNL     1       0.658   3.401  21.109  0.00  0.00    +0.000 HD
ENDBRANCH  18  19
ENDBRANCH   1  18
BRANCH   8  21
ATOM     21  C   UNL     1       2.358   7.448  18.582  0.00  0.00    +0.000 C 
BRANCH  21  22
ATOM     22  C   UNL     1       1.609   8.730  18.165  0.00  0.00    +0.000 C 
BRANCH  22  23
ATOM     23  N   UNL     1       1.524   9.751  19.233  0.00  0.00    +0.000 NA
ATOM     24  C   UNL     1       0.340   9.513  20.081  0.00  0.00    +0.000 C 
ATOM     25  C   UNL     1      -0.788  10.269  19.407  0.00  0.00    +0.000 C 
ATOM     26  C   UNL     1      -0.097  11.533  18.950  0.00  0.00    +0.000 C 
ATOM     27  C   UNL     1       1.352  11.121  18.706  0.00  0.00    +0.000 C 
ENDBRANCH  22  23
ENDBRANCH  21  22
ENDBRANCH   8  21
TORSDOF 5
ENDMDL
MODEL 3
REMARK VINA RESULT:      -8.2      1.864      5.066
REMARK  Name = 
REMARK  5 active torsions:
REMARK  status: ('A' for Active; 'I' for Inactive)
REMARK    1  A    between atoms: C_2  and  O_3
REMARK    2  A    between atoms: C_2  and  C_4
REMARK    3  A    between atoms: C_11  and  C_12
REMARK    4  A    between atoms: C_12  and  C_13
REMARK    5  A    between atoms: C_13  and  N_14
REMARK                            x       y       z     vdW  Elec       q    Type
REMARK                         _______ _______ _______ _____ _____    ______ ____
ROOT
ATOM      1  C   UNL     1       2.364   3.342  19.138  0.00  0.00    +0.000 A 
ATOM      2  C   UNL     1       3.277   2.631  19.904  0.00  0.00    +0.000 A 
ATOM      3  C   UNL     1       4.613   3.026  19.870  0.00  0.00    +0.000 A 
ATOM      4  C   UNL     1       5.009   4.147  19.120  0.00  0.00    +0.000 A 
ATOM      5  C   UNL     1       4.050   4.869  18.381  0.00  0.00    +0.000 A 
ATOM      6  C   UNL     1       2.741   4.401  18.337  0.00  0.00    +0.000 A 
ATOM      7  C   UNL     1       4.339   6.016  17.492  0.00  0.00    +0.000 C 
ATOM      8  C   UNL     1       3.688   7.197  17.539  0.00  0.00    +0.000 C 
ATOM      9  C   UNL     1       5.386   5.784  16.485  0.00  0.00    +0.000 A 
ATOM     10  C   UNL     1       5.045   5.607  15.141  0.00  0.00    +0.000 A 
ATOM     11  C   UNL     1       5.967   5.023  14.276  0.00  0.00    +0.000 A 
ATOM     12  C   UNL     1       7.214   4.622  14.756  0.00  0.00    +0.000 A 
ATOM     13  C   UNL     1       7.564   4.814  16.092  0.00  0.00    +0.000 A 
ATOM     14  C   UNL     1       6.649   5.403  16.970  0.00  0.00    +0.000 A 
ATOM     15  C   UNL     1       6.903   5.489  18.458  0.00  0.00    +0.000 C 
ATOM     16  O   UNL     1       6.361   4.376  19.177  0.00  0.00    +0.000 OA
ENDROOT
BRANCH   1  18
ATOM     17  O   UNL     1       0.246   3.633  20.223  0.00  0.00    +0.000 OA
ATOM     18  C   UNL     1       0.923   3.234  19.300  0.00  0.00    +0.000 C 
BRANCH  18  19
ATOM     19  O   UNL     1       0.549   2.276  18.437  0.00  0.00    +0.000 OA
ATOM     20  H   UNL     1       0.120   1.574  18.985  0.00  0.00    +0.000 HD
ENDBRANCH  18  19
ENDBRANCH   1  18
BRANCH   8  21
ATOM     21  C   UNL     1       2.582   7.627  18.487  0.00  0.00    +0.000 C 
BRANCH  21  22
ATOM     22  C   UNL     1       1.999   9.024  18.193  0.00  0.00    +0.000 C 
BRANCH  22  23
ATOM     23  N   UNL     1       0.742   9.315  18.917  0.00  0.00    +0.000 NA
ATOM     24  C   UNL     1       0.316  10.707  18.672  0.00  0.00    +0.000 C 
ATOM     25  C   UNL     1       1.006  11.526  19.744  0.00  0.00    +0.000 C 
ATOM     26  C   UNL     1       0.902  10.625  20.952  0.00  0.00    +0.000 C 
ATOM     27  C   UNL     1       0.886   9.209  20.383  0.00  0.00    +0.000 C 
ENDBRANCH  22  23
ENDBRANCH  21  22
ENDBRANCH   8  21
TORSDOF 5
ENDMDL
MODEL 4
REMARK VINA RESULT:      -8.0      0.594      1.058
REMARK  Name = 
REMARK  5 active torsions:
REMARK  status: ('A' for Active; 'I' for Inactive)
REMARK    1  A    between atoms: C_2  and  O_3
REMARK    2  A    between atoms: C_2  and  C_4
REMARK    3  A    between atoms: C_11  and  C_12
REMARK    4  A    between atoms: C_12  and  C_13
REMARK    5  A    between atoms: C_13  and  N_14
REMARK                            x       y       z     vdW  Elec       q    Type
REMARK                         _______ _______ _______ _____ _____    ______ ____
ROOT
ATOM      1  C   UNL     1       6.054   5.861  17.538  0.00  0.00    +0.000 A 
ATOM      2  C   UNL     1       6.113   4.822  16.619  0.00  0.00    +0.000 A 
ATOM      3  C   UNL     1       4.973   4.044  16.433  0.00  0.00    +0.000 A 
ATOM      4  C   UNL     1       3.783   4.340  17.120  0.00  0.00    +0.000 A 
ATOM      5  C   UNL     1       3.747   5.425  18.021  0.00  0.00    +0.000 A 
ATOM      6  C   UNL     1       4.920   6.126  18.279  0.00  0.00    +0.000 A 
ATOM      7  C   UNL     1       2.591   5.800  18.865  0.00  0.00    +0.000 C 
ATOM      8  C   UNL     1       2.081   7.046  18.944  0.00  0.00    +0.000 C 
ATOM      9  C   UNL     1       2.025   4.712  19.677  0.00  0.00    +0.000 A 
ATOM     10  C   UNL     1       2.246   4.673  21.057  0.00  0.00    +0.000 A 
ATOM     11  C   UNL     1       2.046   3.481  21.745  0.00  0.00    +0.000 A 
ATOM     12  C   UNL     1       1.628   2.341  21.057  0.00  0.00    +0.000 A 
ATOM     13  C   UNL     1       1.388   2.381  19.684  0.00  0.00    +0.000 A 
ATOM     14  C   UNL     1       1.582   3.573  18.981  0.00  0.00    +0.000 A 
ATOM     15  C   UNL     1       1.500   3.642  17.473  0.00  0.00    +0.000 C 
ATOM     16  O   UNL     1       2.770   3.457  16.840  0.00  0.00    +0.000 OA
ENDROOT
BRANCH   1  18
ATOM     17  O   UNL     1       7.316   7.755  16.783  0.00  0.00    +0.000 OA
ATOM     18  C   UNL     1       7.049   6.918  17.620  0.00  0.00    +0.000 C 
BRANCH  18  19
ATOM     19  O   UNL     1       7.868   6.546  18.617  0.00  0.00    +0.000 OA
ATOM     20  H   UNL     1       8.775   6.522  18.225  0.00  0.00    +0.000 HD
ENDBRANCH  18  19
ENDBRANCH   1  18
BRANCH   8  21
ATOM     21  C   UNL     1       2.525   8.296  18.202  0.00  0.00    +0.000 C 
BRANCH  21  22
ATOM     22  C   UNL     1       2.198   9.617  18.929  0.00  0.00    +0.000 C 
BRANCH  22  23
ATOM     23  N   UNL     1       1.521  10.618  18.076  0.00  0.00    +0.000 NA
ATOM     24  C   UNL     1       2.392  11.791  17.867  0.00  0.00    +0.000 C 
ATOM     25  C   UNL     1       2.090  12.720  19.027  0.00  0.00    +0.000 C 
ATOM     26  C   UNL     1       0.593  12.574  19.172  0.00  0.00    +0.000 C 
ATOM     27  C   UNL     1       0.290  11.158  18.690  0.00  0.00    +0.000 C 
ENDBRANCH  22  23
ENDBRANCH  21  22
ENDBRANCH   8  21
TORSDOF 5
ENDMDL
MODEL 5
REMARK VINA RESULT:      -7.3      1.913      4.982
REMARK  Name = 
REMARK  5 active torsions:
REMARK  status: ('A' for Active; 'I' for Inactive)
REMARK    1  A    between atoms: C_2  and  O_3
REMARK    2  A    between atoms: C_2  and  C_4
REMARK    3  A    between atoms: C_11  and  C_12
REMARK    4  A    between atoms: C_12  and  C_13
REMARK    5  A    between atoms: C_13  and  N_14
REMARK                            x       y       z     vdW  Elec       q    Type
REMARK                         _______ _______ _______ _____ _____    ______ ____
ROOT
ATOM      1  C   UNL     1       2.148   2.873  19.204  0.00  0.00    +0.000 A 
ATOM      2  C   UNL     1       3.134   2.015  19.673  0.00  0.00    +0.000 A 
ATOM      3  C   UNL     1       4.435   2.501  19.771  0.00  0.00    +0.000 A 
ATOM      4  C   UNL     1       4.727   3.838  19.453  0.00  0.00    +0.000 A 
ATOM      5  C   UNL     1       3.696   4.694  19.013  0.00  0.00    +0.000 A 
ATOM      6  C   UNL     1       2.423   4.169  18.816  0.00  0.00    +0.000 A 
ATOM      7  C   UNL     1       3.874   6.095  18.574  0.00  0.00    +0.000 C 
ATOM      8  C   UNL     1       3.143   7.133  19.029  0.00  0.00    +0.000 C 
ATOM      9  C   UNL     1       4.903   6.306  17.544  0.00  0.00    +0.000 A 
ATOM     10  C   UNL     1       4.535   6.576  16.223  0.00  0.00    +0.000 A 
ATOM     11  C   UNL     1       5.469   6.399  15.206  0.00  0.00    +0.000 A 
ATOM     12  C   UNL     1       6.756   5.957  15.512  0.00  0.00    +0.000 A 
ATOM     13  C   UNL     1       7.133   5.704  16.831  0.00  0.00    +0.000 A 
ATOM     14  C   UNL     1       6.206   5.882  17.862  0.00  0.00    +0.000 A 
ATOM     15  C   UNL     1       6.498   5.470  19.287  0.00  0.00    +0.000 C 
ATOM     16  O   UNL     1       6.060   4.139  19.579  0.00  0.00    +0.000 OA
ENDROOT
BRANCH   1  18
ATOM     17  O   UNL     1       0.007   2.027  18.535  0.00  0.00    +0.000 OA
ATOM     18  C   UNL     1       0.725   2.604  19.324  0.00  0.00    +0.000 C 
BRANCH  18  19
ATOM     19  O   UNL     1       0.291   3.450  20.272  0.00  0.00    +0.000 OA
ATOM     20  H   UNL     1      -0.478   3.927  19.876  0.00  0.00    +0.000 HD
ENDBRANCH  18  19
ENDBRANCH   1  18
BRANCH   8  21
ATOM     21  C   UNL     1       2.038   7.123  20.072  0.00  0.00    +0.000 C 
BRANCH  21  22
ATOM     22  C   UNL     1       1.241   8.440  20.167  0.00  0.00    +0.000 C 
BRANCH  22  23
ATOM     23  N   UNL     1       1.423   9.337  19.006  0.00  0.00    +0.000 NA
ATOM     24  C   UNL     1       1.230  10.745  19.406  0.00  0.00    +0.000 C 
ATOM     25  C   UNL     1      -0.255  11.002  19.245  0.00  0.00    +0.000 C 
ATOM     26  C   UNL     1      -0.574  10.250  17.974  0.00  0.00    +0.000 C 
ATOM     27  C   UNL     1       0.431   9.102  17.936  0.00  0.00    +0.000 C 
ENDBRANCH  22  23
ENDBRANCH  21  22
ENDBRANCH   8  21
TORSDOF 5
ENDMDL
MODEL 6
REMARK VINA RESULT:      -7.2      2.858      5.822
REMARK  Name = 
REMARK  5 active torsions:
REMARK  status: ('A' for Active; 'I' for Inactive)
REMARK    1  A    between atoms: C_2  and  O_3
REMARK    2  A    between atoms: C_2  and  C_4
REMARK    3  A    between atoms: C_11  and  C_12
REMARK    4  A    between atoms: C_12  and  C_13
REMARK    5  A    between atoms: C_13  and  N_14
REMARK                            x       y       z     vdW  Elec       q    Type
REMARK                         _______ _______ _______ _____ _____    ______ ____
ROOT
ATOM      1  C   UNL     1       1.403   8.892  18.802  0.00  0.00    +0.000 A 
ATOM      2  C   UNL     1       1.067   9.033  20.142  0.00  0.00    +0.000 A 
ATOM      3  C   UNL     1       1.351   7.978  21.005  0.00  0.00    +0.000 A 
ATOM      4  C   UNL     1       2.009   6.828  20.538  0.00  0.00    +0.000 A 
ATOM      5  C   UNL     1       2.369   6.731  19.178  0.00  0.00    +0.000 A 
ATOM      6  C   UNL     1       1.983   7.742  18.305  0.00  0.00    +0.000 A 
ATOM      7  C   UNL     1       2.993   5.551  18.539  0.00  0.00    +0.000 C 
ATOM      8  C   UNL     1       4.098   5.600  17.768  0.00  0.00    +0.000 C 
ATOM      9  C   UNL     1       2.298   4.274  18.760  0.00  0.00    +0.000 A 
ATOM     10  C   UNL     1       1.559   3.684  17.730  0.00  0.00    +0.000 A 
ATOM     11  C   UNL     1       0.617   2.708  18.041  0.00  0.00    +0.000 A 
ATOM     12  C   UNL     1       0.419   2.329  19.369  0.00  0.00    +0.000 A 
ATOM     13  C   UNL     1       1.167   2.901  20.397  0.00  0.00    +0.000 A 
ATOM     14  C   UNL     1       2.119   3.880  20.099  0.00  0.00    +0.000 A 
ATOM     15  C   UNL     1       2.843   4.654  21.177  0.00  0.00    +0.000 C 
ATOM     16  O   UNL     1       2.185   5.879  21.515  0.00  0.00    +0.000 OA
ENDROOT
BRANCH   1  18
ATOM     17  O   UNL     1       2.399  10.646  17.505  0.00  0.00    +0.000 OA
ATOM     18  C   UNL     1       1.436  10.000  17.861  0.00  0.00    +0.000 C 
BRANCH  18  19
ATOM     19  O   UNL     1       0.162  10.415  17.770  0.00  0.00    +0.000 OA
ATOM     20  H   UNL     1      -0.287  10.086  18.586  0.00  0.00    +0.000 HD
ENDBRANCH  18  19
ENDBRANCH   1  18
BRANCH   8  21
ATOM     21  C   UNL     1       4.947   6.810  17.413  0.00  0.00    +0.000 C 
BRANCH  21  22
ATOM     22  C   UNL     1       5.854   6.610  16.181  0.00  0.00    +0.000 C 
BRANCH  22  23
ATOM     23  N   UNL     1       7.281   6.409  16.513  0.00  0.00    +0.000 NA
ATOM     24  C   UNL     1       7.592   4.969  16.604  0.00  0.00    +0.000 C 
ATOM     25  C   UNL     1       7.306   4.593  18.045  0.00  0.00    +0.000 C 
ATOM     26  C   UNL     1       7.822   5.797  18.798  0.00  0.00    +0.000 C 
ATOM     27  C   UNL     1       7.649   6.966  17.832  0.00  0.00    +0.000 C 
ENDBRANCH  22  23
ENDBRANCH  21  22
ENDBRANCH   8  21
TORSDOF 5
ENDMDL
MODEL 7
REMARK VINA RESULT:      -6.9      5.571      8.347
REMARK  Name = 
REMARK  5 active torsions:
REMARK  status: ('A' for Active; 'I' for Inactive)
REMARK    1  A    between atoms: C_2  and  O_3
REMARK    2  A    between atoms: C_2  and  C_4
REMARK    3  A    between atoms: C_11  and  C_12
REMARK    4  A    between atoms: C_12  and  C_13
REMARK    5  A    between atoms: C_13  and  N_14
REMARK                            x       y       z     vdW  Elec       q    Type
REMARK                         _______ _______ _______ _____ _____    ______ ____
ROOT
ATOM      1  C   UNL     1       1.350  13.673  18.464  0.00  0.00    +0.000 A 
ATOM      2  C   UNL     1       0.712  14.743  19.078  0.00  0.00    +0.000 A 
ATOM      3  C   UNL     1      -0.584  14.553  19.549  0.00  0.00    +0.000 A 
ATOM      4  C   UNL     1      -1.205  13.296  19.451  0.00  0.00    +0.000 A 
ATOM      5  C   UNL     1      -0.516  12.220  18.854  0.00  0.00    +0.000 A 
ATOM      6  C   UNL     1       0.735  12.450  18.290  0.00  0.00    +0.000 A 
ATOM      7  C   UNL     1      -1.074  10.870  18.617  0.00  0.00    +0.000 C 
ATOM      8  C   UNL     1      -0.464   9.722  18.975  0.00  0.00    +0.000 C 
ATOM      9  C   UNL     1      -2.362  10.838  17.906  0.00  0.00    +0.000 A 
ATOM     10  C   UNL     1      -2.420  10.435  16.569  0.00  0.00    +0.000 A 
ATOM     11  C   UNL     1      -3.538  10.760  15.807  0.00  0.00    +0.000 A 
ATOM     12  C   UNL     1      -4.585  11.482  16.381  0.00  0.00    +0.000 A 
ATOM     13  C   UNL     1      -4.539  11.870  17.720  0.00  0.00    +0.000 A 
ATOM     14  C   UNL     1      -3.423  11.546  18.497  0.00  0.00    +0.000 A 
ATOM     15  C   UNL     1      -3.239  12.075  19.901  0.00  0.00    +0.000 C 
ATOM     16  O   UNL     1      -2.488  13.294  19.938  0.00  0.00    +0.000 OA
ENDROOT
BRANCH   1  18
ATOM     17  O   UNL     1       3.579  14.542  18.299  0.00  0.00    +0.000 OA
ATOM     18  C   UNL     1       2.778  13.637  18.195  0.00  0.00    +0.000 C 
BRANCH  18  19
ATOM     19  O   UNL     1       2.961  12.539  17.444  0.00  0.00    +0.000 OA
ATOM     20  H   UNL     1       2.518  12.726  16.581  0.00  0.00    +0.000 HD
ENDBRANCH  18  19
ENDBRANCH   1  18
BRANCH   8  21
ATOM     21  C   UNL     1       0.859   9.543  19.700  0.00  0.00    +0.000 C 
BRANCH  21  22
ATOM     22  C   UNL     1       0.737   8.909  21.101  0.00  0.00    +0.000 C 
BRANCH  22  23
ATOM     23  N   UNL     1       0.983   9.854  22.211  0.00  0.00    +0.000 NA
ATOM     24  C   UNL     1       0.120   9.531  23.365  0.00  0.00    +0.000 C 
ATOM     25  C   UNL     1      -1.163  10.302  23.126  0.00  0.00    +0.000 C 
ATOM     26  C   UNL     1      -0.652  11.610  22.569  0.00  0.00    +0.000 C 
ATOM     27  C   UNL     1       0.652  11.251  21.862  0.00  0.00    +0.000 C 
ENDBRANCH  22  23
ENDBRANCH  21  22
ENDBRANCH   8  21
TORSDOF 5
ENDMDL
MODEL 8
REMARK VINA RESULT:      -6.7      4.086      9.004
REMARK  Name = 
REMARK  5 active torsions:
REMARK  status: ('A' for Active; 'I' for Inactive)
REMARK    1  A    between atoms: C_2  and  O_3
REMARK    2  A    between atoms: C_2  and  C_4
REMARK    3  A    between atoms: C_11  and  C_12
REMARK    4  A    between atoms: C_12  and  C_13
REMARK    5  A    between atoms: C_13  and  N_14
REMARK                            x       y       z     vdW  Elec       q    Type
REMARK                         _______ _______ _______ _____ _____    ______ ____
ROOT
ATOM      1  C   UNL     1      -0.405  10.797  22.499  0.00  0.00    +0.000 A 
ATOM      2  C   UNL     1      -1.575  11.536  22.605  0.00  0.00    +0.000 A 
ATOM      3  C   UNL     1      -1.869  12.449  21.594  0.00  0.00    +0.000 A 
ATOM      4  C   UNL     1      -1.029  12.575  20.476  0.00  0.00    +0.000 A 
ATOM      5  C   UNL     1       0.135  11.783  20.382  0.00  0.00    +0.000 A 
ATOM      6  C   UNL     1       0.474  10.956  21.447  0.00  0.00    +0.000 A 
ATOM      7  C   UNL     1       1.144  11.868  19.303  0.00  0.00    +0.000 C 
ATOM      8  C   UNL     1       1.606  10.807  18.610  0.00  0.00    +0.000 C 
ATOM      9  C   UNL     1       1.672  13.215  19.039  0.00  0.00    +0.000 A 
ATOM     10  C   UNL     1       2.964  13.560  19.447  0.00  0.00    +0.000 A 
ATOM     11  C   UNL     1       3.313  14.904  19.540  0.00  0.00    +0.000 A 
ATOM     12  C   UNL     1       2.376  15.890  19.228  0.00  0.00    +0.000 A 
ATOM     13  C   UNL     1       1.092  15.550  18.803  0.00  0.00    +0.000 A 
ATOM     14  C   UNL     1       0.730  14.203  18.701  0.00  0.00    +0.000 A 
ATOM     15  C   UNL     1      -0.688  13.771  18.407  0.00  0.00    +0.000 C 
ATOM     16  O   UNL     1      -1.453  13.537  19.594  0.00  0.00    +0.000 OA
ENDROOT
BRANCH   1  18
ATOM     17  O   UNL     1       0.828   9.435  24.040  0.00  0.00    +0.000 OA
ATOM     18  C   UNL     1      -0.120   9.623  23.307  0.00  0.00    +0.000 C 
BRANCH  18  19
ATOM     19  O   UNL     1      -0.887   8.650  22.788  0.00  0.00    +0.000 OA
ATOM     20  H   UNL     1      -1.789   8.789  23.165  0.00  0.00    +0.000 HD
ENDBRANCH  18  19
ENDBRANCH   1  18
BRANCH   8  21
ATOM     21  C   UNL     1       1.201   9.348  18.737  0.00  0.00    +0.000 C 
BRANCH  21  22
ATOM     22  C   UNL     1       2.010   8.383  17.846  0.00  0.00    +0.000 C 
BRANCH  22  23
ATOM     23  N   UNL     1       2.949   7.520  18.595  0.00  0.00    +0.000 NA
ATOM     24  C   UNL     1       3.321   6.341  17.788  0.00  0.00    +0.000 C 
ATOM     25  C   UNL     1       2.268   5.298  18.104  0.00  0.00    +0.000 C 
ATOM     26  C   UNL     1       2.057   5.494  19.587  0.00  0.00    +0.000 C 
ATOM     27  C   UNL     1       2.361   6.969  19.834  0.00  0.00    +0.000 C 
ENDBRANCH  22  23
ENDBRANCH  21  22
ENDBRANCH   8  21
TORSDOF 5
ENDMDL
MODEL 9
REMARK VINA RESULT:      -6.4      4.670      8.405
REMARK  Name = 
REMARK  5 active torsions:
REMARK  status: ('A' for Active; 'I' for Inactive)
REMARK    1  A    between atoms: C_2  and  O_3
REMARK    2  A    between atoms: C_2  and  C_4
REMARK    3  A    between atoms: C_11  and  C_12
REMARK    4  A    between atoms: C_12  and  C_13
REMARK    5  A    between atoms: C_13  and  N_14
REMARK                            x       y       z     vdW  Elec       q    Type
REMARK                         _______ _______ _______ _____ _____    ______ ____
ROOT
ATOM      1  C   UNL     1       1.152   9.411  19.557  0.00  0.00    +0.000 A 
ATOM      2  C   UNL     1       1.222   8.747  20.775  0.00  0.00    +0.000 A 
ATOM      3  C   UNL     1       0.449   9.226  21.830  0.00  0.00    +0.000 A 
ATOM      4  C   UNL     1      -0.416  10.319  21.646  0.00  0.00    +0.000 A 
ATOM      5  C   UNL     1      -0.490  10.948  20.386  0.00  0.00    +0.000 A 
ATOM      6  C   UNL     1       0.366  10.530  19.373  0.00  0.00    +0.000 A 
ATOM      7  C   UNL     1      -1.296  12.150  20.075  0.00  0.00    +0.000 C 
ATOM      8  C   UNL     1      -2.141  12.247  19.029  0.00  0.00    +0.000 C 
ATOM      9  C   UNL     1      -1.092  13.295  20.975  0.00  0.00    +0.000 A 
ATOM     10  C   UNL     1      -0.369  14.412  20.544  0.00  0.00    +0.000 A 
ATOM     11  C   UNL     1       0.138  15.300  21.488  0.00  0.00    +0.000 A 
ATOM     12  C   UNL     1      -0.078  15.071  22.847  0.00  0.00    +0.000 A 
ATOM     13  C   UNL     1      -0.815  13.968  23.280  0.00  0.00    +0.000 A 
ATOM     14  C   UNL     1      -1.332  13.070  22.342  0.00  0.00    +0.000 A 
ATOM     15  C   UNL     1      -1.995  11.773  22.750  0.00  0.00    +0.000 C 
ATOM     16  O   UNL     1      -1.079  10.674  22.794  0.00  0.00    +0.000 OA
ENDROOT
BRANCH   1  18
ATOM     17  O   UNL     1       2.250   7.813  18.147  0.00  0.00    +0.000 OA
ATOM     18  C   UNL     1       1.663   8.861  18.312  0.00  0.00    +0.000 C 
BRANCH  18  19
ATOM     19  O   UNL     1       1.709   9.904  17.467  0.00  0.00    +0.000 OA
ATOM     20  H   UNL     1       1.498   9.536  16.574  0.00  0.00    +0.000 HD
ENDBRANCH  18  19
ENDBRANCH   1  18
BRANCH   8  21
ATOM     21  C   UNL     1      -2.480  11.193  17.989  0.00  0.00    +0.000 C 
BRANCH  21  22
ATOM     22  C   UNL     1      -3.992  10.947  17.801  0.00  0.00    +0.000 C 
BRANCH  22  23
ATOM     23  N   UNL     1      -4.849  11.990  18.405  0.00  0.00    +0.000 NA
ATOM     24  C   UNL     1      -5.742  11.400  19.421  0.00  0.00    +0.000 C 
ATOM     25  C   UNL     1      -6.978  10.967  18.658  0.00  0.00    +0.000 C 
ATOM     26  C   UNL     1      -7.160  12.099  17.674  0.00  0.00    +0.000 C 
ATOM     27  C   UNL     1      -5.751  12.631  17.425  0.00  0.00    +0.000 C 
ENDBRANCH  22  23
ENDBRANCH  21  22
ENDBRANCH   8  21
TORSDOF 5
ENDMDL
