MODEL 1
REMARK VINA RESULT:      -7.5      0.000      0.000
REMARK  Name = 
REMARK  7 active torsions:
REMARK  status: ('A' for Active; 'I' for Inactive)
REMARK    1  A    between atoms: C_1  and  C_2
REMARK    2  A    between atoms: C_2  and  C_3
REMARK    3  A    between atoms: C_2  and  C_4
REMARK    4  A    between atoms: C_2  and  O_5
REMARK    5  A    between atoms: O_5  and  C_6
REMARK    6  A    between atoms: C_12  and  C_13
REMARK    7  A    between atoms: C_13  and  N_14
REMARK                            x       y       z     vdW  Elec       q    Type
REMARK                         _______ _______ _______ _____ _____    ______ ____
ROOT
ATOM      1  C   UNL     1       3.578   7.012  18.446  0.00  0.00    +0.000 C 
ENDROOT
BRANCH   1   2
ATOM      2  N   UNL     1       2.729   7.994  17.783  0.00  0.00    +0.000 N 
ATOM      3  C   UNL     1       1.778   8.688  18.497  0.00  0.00    +0.000 C 
ATOM      4  O   UNL     1       1.632   8.570  19.707  0.00  0.00    +0.000 OA
ATOM      5  N   UNL     1       1.001   9.460  17.666  0.00  0.00    +0.000 N 
ATOM      6  C   UNL     1      -0.063  10.217  18.167  0.00  0.00    +0.000 A 
ATOM      7  C   UNL     1       0.093  11.055  19.265  0.00  0.00    +0.000 A 
ATOM      8  C   UNL     1      -1.019  11.742  19.741  0.00  0.00    +0.000 A 
ATOM      9  C   UNL     1      -2.249  11.549  19.123  0.00  0.00    +0.000 A 
ATOM     10  C   UNL     1      -2.302  10.714  18.019  0.00  0.00    +0.000 A 
ATOM     11  N   UNL     1      -1.228  10.076  17.502  0.00  0.00    +0.000 NA
ATOM     12  H   UNL     1       3.114   8.492  16.992  0.00  0.00    +0.000 HD
ATOM     13  H   UNL     1       0.756   9.004  16.799  0.00  0.00    +0.000 HD
ENDBRANCH   1   2
BRANCH   1  20
ATOM     14  C   UNL     1       4.567   4.028  19.057  0.00  0.00    +0.000 C 
ATOM     15  O   UNL     1       5.354   3.252  19.581  0.00  0.00    +0.000 OA
ATOM     16  N   UNL     1       4.952   4.942  18.109  0.00  0.00    +0.000 N 
ATOM     17  C   UNL     1       6.248   4.847  17.474  0.00  0.00    +0.000 C 
ATOM     18  C   UNL     1       6.410   6.183  16.780  0.00  0.00    +0.000 C 
ATOM     19  C   UNL     1       4.983   6.535  16.362  0.00  0.00    +0.000 C 
ATOM     20  C   UNL     1       4.089   5.933  17.467  0.00  0.00    +0.000 C 
BRANCH  14  21
ATOM     21  O   UNL     1       3.240   4.091  19.317  0.00  0.00    +0.000 OA
BRANCH  21  23
ATOM     22  C   UNL     1       1.655   2.363  20.027  0.00  0.00    +0.000 C 
ATOM     23  C   UNL     1       2.347   3.054  18.842  0.00  0.00    +0.000 C 
ATOM     24  C   UNL     1       3.059   2.061  17.922  0.00  0.00    +0.000 C 
ATOM     25  C   UNL     1       1.273   3.784  18.018  0.00  0.00    +0.000 C 
ENDBRANCH  21  23
ENDBRANCH  14  21
ENDBRANCH   1  20
TORSDOF 4
ENDMDL
MODEL 2
REMARK VINA RESULT:      -7.5      1.962      3.793
REMARK  Name = 
REMARK  7 active torsions:
REMARK  status: ('A' for Active; 'I' for Inactive)
REMARK    1  A    between atoms: C_1  and  C_2
REMARK    2  A    between atoms: C_2  and  C_3
REMARK    3  A    between atoms: C_2  and  C_4
REMARK    4  A    between atoms: C_2  and  O_5
REMARK    5  A    between atoms: O_5  and  C_6
REMARK    6  A    between atoms: C_12  and  C_13
REMARK    7  A    between atoms: C_13  and  N_14
REMARK                            x       y       z     vdW  Elec       q    Type
REMARK                         _______ _______ _______ _____ _____    ______ ____
ROOT
ATOM      1  C   UNL     1       3.052   6.129  19.717  0.00  0.00    +0.000 C 
ENDROOT
BRANCH   1   2
ATOM      2  N   UNL     1       2.142   6.896  20.559  0.00  0.00    +0.000 N 
ATOM      3  C   UNL     1       1.595   8.074  20.100  0.00  0.00    +0.000 C 
ATOM      4  O   UNL     1       1.786   8.504  18.970  0.00  0.00    +0.000 OA
ATOM      5  N   UNL     1       0.878   8.705  21.090  0.00  0.00    +0.000 N 
ATOM      6  C   UNL     1       0.271   9.945  20.865  0.00  0.00    +0.000 A 
ATOM      7  C   UNL     1      -0.527  10.173  19.750  0.00  0.00    +0.000 A 
ATOM      8  C   UNL     1      -1.060  11.445  19.563  0.00  0.00    +0.000 A 
ATOM      9  C   UNL     1      -0.757  12.446  20.477  0.00  0.00    +0.000 A 
ATOM     10  C   UNL     1       0.026  12.117  21.572  0.00  0.00    +0.000 A 
ATOM     11  N   UNL     1       0.513  10.878  21.807  0.00  0.00    +0.000 NA
ATOM     12  H   UNL     1       1.568   6.388  21.217  0.00  0.00    +0.000 HD
ATOM     13  H   UNL     1       1.319   8.666  21.998  0.00  0.00    +0.000 HD
ENDBRANCH   1   2
BRANCH   1  20
ATOM     14  C   UNL     1       4.175   3.613  18.086  0.00  0.00    +0.000 C 
ATOM     15  O   UNL     1       4.123   2.853  17.129  0.00  0.00    +0.000 OA
ATOM     16  N   UNL     1       3.152   3.731  18.992  0.00  0.00    +0.000 N 
ATOM     17  C   UNL     1       2.077   2.762  19.024  0.00  0.00    +0.000 C 
ATOM     18  C   UNL     1       1.023   3.419  19.890  0.00  0.00    +0.000 C 
ATOM     19  C   UNL     1       1.848   4.209  20.905  0.00  0.00    +0.000 C 
ATOM     20  C   UNL     1       3.112   4.643  20.134  0.00  0.00    +0.000 C 
BRANCH  14  21
ATOM     21  O   UNL     1       5.222   4.415  18.392  0.00  0.00    +0.000 OA
BRANCH  21  23
ATOM     22  C   UNL     1       4.829   6.019  16.583  0.00  0.00    +0.000 C 
ATOM     23  C   UNL     1       5.870   5.203  17.365  0.00  0.00    +0.000 C 
ATOM     24  C   UNL     1       6.745   4.344  16.450  0.00  0.00    +0.000 C 
ATOM     25  C   UNL     1       6.784   6.185  18.117  0.00  0.00    +0.000 C 
ENDBRANCH  21  23
ENDBRANCH  14  21
ENDBRANCH   1  20
TORSDOF 4
ENDMDL
MODEL 3
REMARK VINA RESULT:      -7.3      2.085      3.856
REMARK  Name = 
REMARK  7 active torsions:
REMARK  status: ('A' for Active; 'I' for Inactive)
REMARK    1  A    between atoms: C_1  and  C_2
REMARK    2  A    between atoms: C_2  and  C_3
REMARK    3  A    between atoms: C_2  and  C_4
REMARK    4  A    between atoms: C_2  and  O_5
REMARK    5  A    between atoms: O_5  and  C_6
REMARK    6  A    between atoms: C_12  and  C_13
REMARK    7  A    between atoms: C_13  and  N_14
REMARK                            x       y       z     vdW  Elec       q    Type
REMARK                         _______ _______ _______ _____ _____    ______ ____
ROOT
ATOM      1  C   UNL     1       3.363   5.957  19.742  0.00  0.00    +0.000 C 
ENDROOT
BRANCH   1   2
ATOM      2  N   UNL     1       2.343   6.581  20.576  0.00  0.00    +0.000 N 
ATOM      3  C   UNL     1       1.772   7.776  20.200  0.00  0.00    +0.000 C 
ATOM      4  O   UNL     1       2.033   8.339  19.144  0.00  0.00    +0.000 OA
ATOM      5  N   UNL     1       0.939   8.258  21.183  0.00  0.00    +0.000 N 
ATOM      6  C   UNL     1       0.285   9.486  21.039  0.00  0.00    +0.000 A 
ATOM      7  C   UNL     1      -0.428   9.800  19.888  0.00  0.00    +0.000 A 
ATOM      8  C   UNL     1      -1.014  11.059  19.792  0.00  0.00    +0.000 A 
ATOM      9  C   UNL     1      -0.847  11.964  20.833  0.00  0.00    +0.000 A 
ATOM     10  C   UNL     1      -0.142  11.551  21.951  0.00  0.00    +0.000 A 
ATOM     11  N   UNL     1       0.393  10.318  22.095  0.00  0.00    +0.000 NA
ATOM     12  H   UNL     1       1.745   5.976  21.121  0.00  0.00    +0.000 HD
ATOM     13  H   UNL     1       1.303   8.138  22.117  0.00  0.00    +0.000 HD
ENDBRANCH   1   2
BRANCH   1  20
ATOM     14  C   UNL     1       4.725   3.917  17.684  0.00  0.00    +0.000 C 
ATOM     15  O   UNL     1       4.941   3.541  16.540  0.00  0.00    +0.000 OA
ATOM     16  N   UNL     1       3.463   3.967  18.220  0.00  0.00    +0.000 N 
ATOM     17  C   UNL     1       2.353   3.314  17.560  0.00  0.00    +0.000 C 
ATOM     18  C   UNL     1       1.134   3.879  18.258  0.00  0.00    +0.000 C 
ATOM     19  C   UNL     1       1.618   4.087  19.692  0.00  0.00    +0.000 C 
ATOM     20  C   UNL     1       3.113   4.445  19.557  0.00  0.00    +0.000 C 
BRANCH  14  21
ATOM     21  O   UNL     1       5.670   4.314  18.568  0.00  0.00    +0.000 OA
BRANCH  21  23
ATOM     22  C   UNL     1       7.454   5.758  19.425  0.00  0.00    +0.000 C 
ATOM     23  C   UNL     1       6.666   5.294  18.190  0.00  0.00    +0.000 C 
ATOM     24  C   UNL     1       6.055   6.463  17.415  0.00  0.00    +0.000 C 
ATOM     25  C   UNL     1       7.636   4.555  17.252  0.00  0.00    +0.000 C 
ENDBRANCH  21  23
ENDBRANCH  14  21
ENDBRANCH   1  20
TORSDOF 4
ENDMDL
MODEL 4
REMARK VINA RESULT:      -7.2      1.817      3.770
REMARK  Name = 
REMARK  7 active torsions:
REMARK  status: ('A' for Active; 'I' for Inactive)
REMARK    1  A    between atoms: C_1  and  C_2
REMARK    2  A    between atoms: C_2  and  C_3
REMARK    3  A    between atoms: C_2  and  C_4
REMARK    4  A    between atoms: C_2  and  O_5
REMARK    5  A    between atoms: O_5  and  C_6
REMARK    6  A    between atoms: C_12  and  C_13
REMARK    7  A    between atoms: C_13  and  N_14
REMARK                            x       y       z     vdW  Elec       q    Type
REMARK                         _______ _______ _______ _____ _____    ______ ____
ROOT
ATOM      1  C   UNL     1       3.398   4.913  20.182  0.00  0.00    +0.000 C 
ENDROOT
BRANCH   1   2
ATOM      2  N   UNL     1       3.237   6.229  19.576  0.00  0.00    +0.000 N 
ATOM      3  C   UNL     1       2.192   7.044  19.950  0.00  0.00    +0.000 C 
ATOM      4  O   UNL     1       1.394   6.747  20.830  0.00  0.00    +0.000 OA
ATOM      5  N   UNL     1       2.144   8.176  19.169  0.00  0.00    +0.000 N 
ATOM      6  C   UNL     1       1.133   9.128  19.338  0.00  0.00    +0.000 A 
ATOM      7  C   UNL     1       0.814   9.637  20.591  0.00  0.00    +0.000 A 
ATOM      8  C   UNL     1      -0.235  10.545  20.692  0.00  0.00    +0.000 A 
ATOM      9  C   UNL     1      -0.943  10.892  19.548  0.00  0.00    +0.000 A 
ATOM     10  C   UNL     1      -0.534  10.353  18.339  0.00  0.00    +0.000 A 
ATOM     11  N   UNL     1       0.514   9.510  18.203  0.00  0.00    +0.000 NA
ATOM     12  H   UNL     1       4.071   6.716  19.279  0.00  0.00    +0.000 HD
ATOM     13  H   UNL     1       2.332   8.003  18.192  0.00  0.00    +0.000 HD
ENDBRANCH   1   2
BRANCH   1  20
ATOM     14  C   UNL     1       4.846   5.379  17.364  0.00  0.00    +0.000 C 
ATOM     15  O   UNL     1       4.831   5.791  16.212  0.00  0.00    +0.000 OA
ATOM     16  N   UNL     1       4.007   4.389  17.806  0.00  0.00    +0.000 N 
ATOM     17  C   UNL     1       3.257   3.582  16.869  0.00  0.00    +0.000 C 
ATOM     18  C   UNL     1       2.237   2.874  17.736  0.00  0.00    +0.000 C 
ATOM     19  C   UNL     1       2.986   2.656  19.049  0.00  0.00    +0.000 C 
ATOM     20  C   UNL     1       3.929   3.872  19.172  0.00  0.00    +0.000 C 
BRANCH  14  21
ATOM     21  O   UNL     1       5.676   5.818  18.339  0.00  0.00    +0.000 OA
BRANCH  21  23
ATOM     22  C   UNL     1       7.565   7.122  17.482  0.00  0.00    +0.000 C 
ATOM     23  C   UNL     1       7.111   5.812  18.143  0.00  0.00    +0.000 C 
ATOM     24  C   UNL     1       7.579   4.576  17.371  0.00  0.00    +0.000 C 
ATOM     25  C   UNL     1       7.718   5.751  19.555  0.00  0.00    +0.000 C 
ENDBRANCH  21  23
ENDBRANCH  14  21
ENDBRANCH   1  20
TORSDOF 4
ENDMDL
MODEL 5
REMARK VINA RESULT:      -7.2      1.903      3.764
REMARK  Name = 
REMARK  7 active torsions:
REMARK  status: ('A' for Active; 'I' for Inactive)
REMARK    1  A    between atoms: C_1  and  C_2
REMARK    2  A    between atoms: C_2  and  C_3
REMARK    3  A    between atoms: C_2  and  C_4
REMARK    4  A    between atoms: C_2  and  O_5
REMARK    5  A    between atoms: O_5  and  C_6
REMARK    6  A    between atoms: C_12  and  C_13
REMARK    7  A    between atoms: C_13  and  N_14
REMARK                            x       y       z     vdW  Elec       q    Type
REMARK                         _______ _______ _______ _____ _____    ______ ____
ROOT
ATOM      1  C   UNL     1       2.962   6.491  19.424  0.00  0.00    +0.000 C 
ENDROOT
BRANCH   1   2
ATOM      2  N   UNL     1       2.182   7.310  20.343  0.00  0.00    +0.000 N 
ATOM      3  C   UNL     1       1.547   8.447  19.895  0.00  0.00    +0.000 C 
ATOM      4  O   UNL     1       1.548   8.795  18.721  0.00  0.00    +0.000 OA
ATOM      5  N   UNL     1       0.983   9.142  20.939  0.00  0.00    +0.000 N 
ATOM      6  C   UNL     1       0.324  10.358  20.726  0.00  0.00    +0.000 A 
ATOM      7  C   UNL     1      -0.644  10.498  19.739  0.00  0.00    +0.000 A 
ATOM      8  C   UNL     1      -1.225  11.748  19.549  0.00  0.00    +0.000 A 
ATOM      9  C   UNL     1      -0.801  12.816  20.331  0.00  0.00    +0.000 A 
ATOM     10  C   UNL     1       0.151  12.574  21.307  0.00  0.00    +0.000 A 
ATOM     11  N   UNL     1       0.693  11.359  21.549  0.00  0.00    +0.000 NA
ATOM     12  H   UNL     1       1.729   6.847  21.118  0.00  0.00    +0.000 HD
ATOM     13  H   UNL     1       1.562   9.174  21.765  0.00  0.00    +0.000 HD
ENDBRANCH   1   2
BRANCH   1  20
ATOM     14  C   UNL     1       4.341   3.981  17.992  0.00  0.00    +0.000 C 
ATOM     15  O   UNL     1       4.385   3.162  17.083  0.00  0.00    +0.000 OA
ATOM     16  N   UNL     1       3.281   4.069  18.857  0.00  0.00    +0.000 N 
ATOM     17  C   UNL     1       2.289   3.018  18.920  0.00  0.00    +0.000 C 
ATOM     18  C   UNL     1       1.156   3.637  19.711  0.00  0.00    +0.000 C 
ATOM     19  C   UNL     1       1.878   4.554  20.697  0.00  0.00    +0.000 C 
ATOM     20  C   UNL     1       3.129   5.044  19.936  0.00  0.00    +0.000 C 
BRANCH  14  21
ATOM     21  O   UNL     1       5.309   4.885  18.275  0.00  0.00    +0.000 OA
BRANCH  21  23
ATOM     22  C   UNL     1       6.811   4.473  16.385  0.00  0.00    +0.000 C 
ATOM     23  C   UNL     1       6.054   5.524  17.212  0.00  0.00    +0.000 C 
ATOM     24  C   UNL     1       6.976   6.626  17.739  0.00  0.00    +0.000 C 
ATOM     25  C   UNL     1       4.998   6.178  16.305  0.00  0.00    +0.000 C 
ENDBRANCH  21  23
ENDBRANCH  14  21
ENDBRANCH   1  20
TORSDOF 4
ENDMDL
MODEL 6
REMARK VINA RESULT:      -7.1      2.738      4.189
REMARK  Name = 
REMARK  7 active torsions:
REMARK  status: ('A' for Active; 'I' for Inactive)
REMARK    1  A    between atoms: C_1  and  C_2
REMARK    2  A    between atoms: C_2  and  C_3
REMARK    3  A    between atoms: C_2  and  C_4
REMARK    4  A    between atoms: C_2  and  O_5
REMARK    5  A    between atoms: O_5  and  C_6
REMARK    6  A    between atoms: C_12  and  C_13
REMARK    7  A    between atoms: C_13  and  N_14
REMARK                            x       y       z     vdW  Elec       q    Type
REMARK                         _______ _______ _______ _____ _____    ______ ____
ROOT
ATOM      1  C   UNL     1       1.372   5.735  20.317  0.00  0.00    +0.000 C 
ENDROOT
BRANCH   1   2
ATOM      2  N   UNL     1       1.750   7.020  20.893  0.00  0.00    +0.000 N 
ATOM      3  C   UNL     1       0.784   7.938  21.241  0.00  0.00    +0.000 C 
ATOM      4  O   UNL     1      -0.417   7.713  21.149  0.00  0.00    +0.000 OA
ATOM      5  N   UNL     1       1.351   9.127  21.636  0.00  0.00    +0.000 N 
ATOM      6  C   UNL     1       0.558  10.223  21.991  0.00  0.00    +0.000 A 
ATOM      7  C   UNL     1      -0.494  10.100  22.892  0.00  0.00    +0.000 A 
ATOM      8  C   UNL     1      -1.272  11.221  23.163  0.00  0.00    +0.000 A 
ATOM      9  C   UNL     1      -0.991  12.414  22.509  0.00  0.00    +0.000 A 
ATOM     10  C   UNL     1       0.094  12.447  21.648  0.00  0.00    +0.000 A 
ATOM     11  N   UNL     1       0.899  11.389  21.406  0.00  0.00    +0.000 NA
ATOM     12  H   UNL     1       2.593   7.058  21.448  0.00  0.00    +0.000 HD
ATOM     13  H   UNL     1       2.141   9.407  21.073  0.00  0.00    +0.000 HD
ENDBRANCH   1   2
BRANCH   1  20
ATOM     14  C   UNL     1       2.783   3.900  18.104  0.00  0.00    +0.000 C 
ATOM     15  O   UNL     1       2.729   3.020  17.256  0.00  0.00    +0.000 OA
ATOM     16  N   UNL     1       2.486   3.674  19.424  0.00  0.00    +0.000 N 
ATOM     17  C   UNL     1       2.369   2.325  19.935  0.00  0.00    +0.000 C 
ATOM     18  C   UNL     1       1.718   2.507  21.290  0.00  0.00    +0.000 C 
ATOM     19  C   UNL     1       2.286   3.840  21.774  0.00  0.00    +0.000 C 
ATOM     20  C   UNL     1       2.481   4.675  20.490  0.00  0.00    +0.000 C 
BRANCH  14  21
ATOM     21  O   UNL     1       3.144   5.185  17.875  0.00  0.00    +0.000 OA
BRANCH  21  23
ATOM     22  C   UNL     1       4.929   4.842  16.233  0.00  0.00    +0.000 C 
ATOM     23  C   UNL     1       4.515   5.517  17.550  0.00  0.00    +0.000 C 
ATOM     24  C   UNL     1       5.472   5.192  18.698  0.00  0.00    +0.000 C 
ATOM     25  C   UNL     1       4.528   7.040  17.333  0.00  0.00    +0.000 C 
ENDBRANCH  21  23
ENDBRANCH  14  21
ENDBRANCH   1  20
TORSDOF 4
ENDMDL
MODEL 7
REMARK VINA RESULT:      -7.1      1.394      1.623
REMARK  Name = 
REMARK  7 active torsions:
REMARK  status: ('A' for Active; 'I' for Inactive)
REMARK    1  A    between atoms: C_1  and  C_2
REMARK    2  A    between atoms: C_2  and  C_3
REMARK    3  A    between atoms: C_2  and  C_4
REMARK    4  A    between atoms: C_2  and  O_5
REMARK    5  A    between atoms: O_5  and  C_6
REMARK    6  A    between atoms: C_12  and  C_13
REMARK    7  A    between atoms: C_13  and  N_14
REMARK                            x       y       z     vdW  Elec       q    Type
REMARK                         _______ _______ _______ _____ _____    ______ ____
ROOT
ATOM      1  C   UNL     1       4.406   7.154  17.327  0.00  0.00    +0.000 C 
ENDROOT
BRANCH   1   2
ATOM      2  N   UNL     1       3.239   7.275  18.191  0.00  0.00    +0.000 N 
ATOM      3  C   UNL     1       2.464   8.413  18.159  0.00  0.00    +0.000 C 
ATOM      4  O   UNL     1       2.667   9.338  17.383  0.00  0.00    +0.000 OA
ATOM      5  N   UNL     1       1.499   8.381  19.139  0.00  0.00    +0.000 N 
ATOM      6  C   UNL     1       0.624   9.456  19.326  0.00  0.00    +0.000 A 
ATOM      7  C   UNL     1      -0.072  10.022  18.264  0.00  0.00    +0.000 A 
ATOM      8  C   UNL     1      -0.889  11.120  18.514  0.00  0.00    +0.000 A 
ATOM      9  C   UNL     1      -0.963  11.629  19.804  0.00  0.00    +0.000 A 
ATOM     10  C   UNL     1      -0.253  10.981  20.803  0.00  0.00    +0.000 A 
ATOM     11  N   UNL     1       0.506   9.882  20.599  0.00  0.00    +0.000 NA
ATOM     12  H   UNL     1       2.743   6.428  18.433  0.00  0.00    +0.000 HD
ATOM     13  H   UNL     1       1.827   8.012  20.019  0.00  0.00    +0.000 HD
ENDBRANCH   1   2
BRANCH   1  20
ATOM     14  C   UNL     1       4.918   4.368  18.821  0.00  0.00    +0.000 C 
ATOM     15  O   UNL     1       5.624   3.637  19.501  0.00  0.00    +0.000 OA
ATOM     16  N   UNL     1       5.301   4.826  17.586  0.00  0.00    +0.000 N 
ATOM     17  C   UNL     1       6.435   4.243  16.901  0.00  0.00    +0.000 C 
ATOM     18  C   UNL     1       6.722   5.221  15.781  0.00  0.00    +0.000 C 
ATOM     19  C   UNL     1       5.335   5.740  15.406  0.00  0.00    +0.000 C 
ATOM     20  C   UNL     1       4.541   5.736  16.730  0.00  0.00    +0.000 C 
BRANCH  14  21
ATOM     21  O   UNL     1       3.687   4.810  19.169  0.00  0.00    +0.000 OA
BRANCH  21  23
ATOM     22  C   UNL     1       1.945   4.066  20.723  0.00  0.00    +0.000 C 
ATOM     23  C   UNL     1       2.591   3.879  19.342  0.00  0.00    +0.000 C 
ATOM     24  C   UNL     1       3.023   2.433  19.090  0.00  0.00    +0.000 C 
ATOM     25  C   UNL     1       1.555   4.262  18.271  0.00  0.00    +0.000 C 
ENDBRANCH  21  23
ENDBRANCH  14  21
ENDBRANCH   1  20
TORSDOF 4
ENDMDL
MODEL 8
REMARK VINA RESULT:      -7.1      2.031      3.771
REMARK  Name = 
REMARK  7 active torsions:
REMARK  status: ('A' for Active; 'I' for Inactive)
REMARK    1  A    between atoms: C_1  and  C_2
REMARK    2  A    between atoms: C_2  and  C_3
REMARK    3  A    between atoms: C_2  and  C_4
REMARK    4  A    between atoms: C_2  and  O_5
REMARK    5  A    between atoms: O_5  and  C_6
REMARK    6  A    between atoms: C_12  and  C_13
REMARK    7  A    between atoms: C_13  and  N_14
REMARK                            x       y       z     vdW  Elec       q    Type
REMARK                         _______ _______ _______ _____ _____    ______ ____
ROOT
ATOM      1  C   UNL     1       2.735   7.034  18.295  0.00  0.00    +0.000 C 
ENDROOT
BRANCH   1   2
ATOM      2  N   UNL     1       2.143   7.728  19.432  0.00  0.00    +0.000 N 
ATOM      3  C   UNL     1       1.404   8.874  19.240  0.00  0.00    +0.000 C 
ATOM      4  O   UNL     1       1.156   9.333  18.132  0.00  0.00    +0.000 OA
ATOM      5  N   UNL     1       1.051   9.441  20.443  0.00  0.00    +0.000 N 
ATOM      6  C   UNL     1       0.336  10.643  20.493  0.00  0.00    +0.000 A 
ATOM      7  C   UNL     1      -0.818  10.835  19.742  0.00  0.00    +0.000 A 
ATOM      8  C   UNL     1      -1.452  12.072  19.803  0.00  0.00    +0.000 A 
ATOM      9  C   UNL     1      -0.901  13.077  20.587  0.00  0.00    +0.000 A 
ATOM     10  C   UNL     1       0.236  12.783  21.322  0.00  0.00    +0.000 A 
ATOM     11  N   UNL     1       0.844  11.575  21.323  0.00  0.00    +0.000 NA
ATOM     12  H   UNL     1       1.869   7.173  20.231  0.00  0.00    +0.000 HD
ATOM     13  H   UNL     1       1.787   9.418  21.134  0.00  0.00    +0.000 HD
ENDBRANCH   1   2
BRANCH   1  20
ATOM     14  C   UNL     1       4.731   5.056  16.760  0.00  0.00    +0.000 C 
ATOM     15  O   UNL     1       5.032   4.400  15.772  0.00  0.00    +0.000 OA
ATOM     16  N   UNL     1       3.589   4.821  17.483  0.00  0.00    +0.000 N 
ATOM     17  C   UNL     1       2.825   3.608  17.286  0.00  0.00    +0.000 C 
ATOM     18  C   UNL     1       1.515   3.887  17.991  0.00  0.00    +0.000 C 
ATOM     19  C   UNL     1       1.932   4.767  19.167  0.00  0.00    +0.000 C 
ATOM     20  C   UNL     1       3.133   5.584  18.644  0.00  0.00    +0.000 C 
BRANCH  14  21
ATOM     21  O   UNL     1       5.463   6.070  17.277  0.00  0.00    +0.000 OA
BRANCH  21  23
ATOM     22  C   UNL     1       7.641   7.097  17.728  0.00  0.00    +0.000 C 
ATOM     23  C   UNL     1       6.784   5.825  17.816  0.00  0.00    +0.000 C 
ATOM     24  C   UNL     1       7.458   4.620  17.157  0.00  0.00    +0.000 C 
ATOM     25  C   UNL     1       6.565   5.496  19.303  0.00  0.00    +0.000 C 
ENDBRANCH  21  23
ENDBRANCH  14  21
ENDBRANCH   1  20
TORSDOF 4
ENDMDL
MODEL 9
REMARK VINA RESULT:      -7.1      1.831      3.680
REMARK  Name = 
REMARK  7 active torsions:
REMARK  status: ('A' for Active; 'I' for Inactive)
REMARK    1  A    between atoms: C_1  and  C_2
REMARK    2  A    between atoms: C_2  and  C_3
REMARK    3  A    between atoms: C_2  and  C_4
REMARK    4  A    between atoms: C_2  and  O_5
REMARK    5  A    between atoms: O_5  and  C_6
REMARK    6  A    between atoms: C_12  and  C_13
REMARK    7  A    between atoms: C_13  and  N_14
REMARK                            x       y       z     vdW  Elec       q    Type
REMARK                         _______ _______ _______ _____ _____    ______ ____
ROOT
ATOM      1  C   UNL     1       2.691   6.877  18.867  0.00  0.00    +0.000 C 
ENDROOT
BRANCH   1   2
ATOM      2  N   UNL     1       2.014   7.895  19.662  0.00  0.00    +0.000 N 
ATOM      3  C   UNL     1       1.458   8.998  19.052  0.00  0.00    +0.000 C 
ATOM      4  O   UNL     1       1.445   9.155  17.838  0.00  0.00    +0.000 OA
ATOM      5  N   UNL     1       0.991   9.895  19.984  0.00  0.00    +0.000 N 
ATOM      6  C   UNL     1       0.426  11.114  19.595  0.00  0.00    +0.000 A 
ATOM      7  C   UNL     1      -0.563  11.180  18.620  0.00  0.00    +0.000 A 
ATOM      8  C   UNL     1      -1.046  12.430  18.247  0.00  0.00    +0.000 A 
ATOM      9  C   UNL     1      -0.508  13.567  18.837  0.00  0.00    +0.000 A 
ATOM     10  C   UNL     1       0.456  13.400  19.818  0.00  0.00    +0.000 A 
ATOM     11  N   UNL     1       0.905  12.197  20.239  0.00  0.00    +0.000 NA
ATOM     12  H   UNL     1       1.553   7.600  20.511  0.00  0.00    +0.000 HD
ATOM     13  H   UNL     1       1.600  10.006  20.781  0.00  0.00    +0.000 HD
ENDBRANCH   1   2
BRANCH   1  20
ATOM     14  C   UNL     1       4.380   4.284  18.045  0.00  0.00    +0.000 C 
ATOM     15  O   UNL     1       4.543   3.296  17.342  0.00  0.00    +0.000 OA
ATOM     16  N   UNL     1       3.286   4.441  18.856  0.00  0.00    +0.000 N 
ATOM     17  C   UNL     1       2.409   3.326  19.139  0.00  0.00    +0.000 C 
ATOM     18  C   UNL     1       1.188   3.972  19.759  0.00  0.00    +0.000 C 
ATOM     19  C   UNL     1       1.772   5.158  20.525  0.00  0.00    +0.000 C 
ATOM     20  C   UNL     1       2.991   5.605  19.690  0.00  0.00    +0.000 C 
BRANCH  14  21
ATOM     21  O   UNL     1       5.235   5.330  18.133  0.00  0.00    +0.000 OA
BRANCH  21  23
ATOM     22  C   UNL     1       5.202   6.114  15.812  0.00  0.00    +0.000 C 
ATOM     23  C   UNL     1       6.071   5.695  17.008  0.00  0.00    +0.000 C 
ATOM     24  C   UNL     1       7.063   4.588  16.648  0.00  0.00    +0.000 C 
ATOM     25  C   UNL     1       6.872   6.923  17.473  0.00  0.00    +0.000 C 
ENDBRANCH  21  23
ENDBRANCH  14  21
ENDBRANCH   1  20
TORSDOF 4
ENDMDL
