MODEL 1
REMARK VINA RESULT:      -7.4      0.000      0.000
REMARK  Name = 
REMARK  4 active torsions:
REMARK  status: ('A' for Active; 'I' for Inactive)
REMARK    1  A    between atoms: C_1  and  O_2
REMARK    2  A    between atoms: O_2  and  C_3
REMARK    3  A    between atoms: C_3  and  C_5
REMARK    4  A    between atoms: C_12  and  C_13
REMARK                            x       y       z     vdW  Elec       q    Type
REMARK                         _______ _______ _______ _____ _____    ______ ____
ROOT
ATOM      1  C   UNL     1       3.231   4.158  18.606  0.00  0.00    +0.000 A 
ATOM      2  C   UNL     1       3.126   3.440  19.812  0.00  0.00    +0.000 A 
ATOM      3  N   UNL     1       2.008   3.291  20.696  0.00  0.00    +0.000 N 
ATOM      4  O   UNL     1       1.400   4.329  20.989  0.00  0.00    +0.000 OA
ATOM      5  O   UNL     1       1.717   2.146  21.067  0.00  0.00    +0.000 OA
ATOM      6  N   UNL     1       4.273   2.864  20.181  0.00  0.00    +0.000 NA
ATOM      7  O   UNL     1       5.166   3.195  19.174  0.00  0.00    +0.000 OA
ATOM      8  C   UNL     1       4.554   3.982  18.235  0.00  0.00    +0.000 A 
ENDROOT
BRANCH   8   9
ATOM      9  C   UNL     1       5.380   4.329  17.071  0.00  0.00    +0.000 A 
ATOM     10  C   UNL     1       4.933   3.955  15.788  0.00  0.00    +0.000 A 
ATOM     11  C   UNL     1       5.680   4.235  14.641  0.00  0.00    +0.000 A 
ATOM     12  C   UNL     1       6.907   4.874  14.755  0.00  0.00    +0.000 A 
ATOM     13 CL   UNL     1       7.837   5.199  13.346  0.00  0.00    +0.000 Cl
ATOM     14  C   UNL     1       7.383   5.251  16.006  0.00  0.00    +0.000 A 
ATOM     15  C   UNL     1       6.623   4.993  17.156  0.00  0.00    +0.000 A 
ATOM     16 CL   UNL     1       7.290   5.568  18.648  0.00  0.00    +0.000 Cl
ENDBRANCH   8   9
BRANCH   1  17
ATOM     17  C   UNL     1       2.203   4.871  17.898  0.00  0.00    +0.000 C 
ATOM     18  O   UNL     1       1.175   4.347  17.486  0.00  0.00    +0.000 OA
BRANCH  17  20
ATOM     19  C   UNL     1       2.495   6.864  19.099  0.00  0.00    +0.000 C 
ATOM     20  O   UNL     1       2.462   6.206  17.831  0.00  0.00    +0.000 OA
ENDBRANCH  17  20
ENDBRANCH   1  17
TORSDOF 3
ENDMDL
MODEL 2
REMARK VINA RESULT:      -7.2      3.658      6.162
REMARK  Name = 
REMARK  4 active torsions:
REMARK  status: ('A' for Active; 'I' for Inactive)
REMARK    1  A    between atoms: C_1  and  O_2
REMARK    2  A    between atoms: O_2  and  C_3
REMARK    3  A    between atoms: C_3  and  C_5
REMARK    4  A    between atoms: C_12  and  C_13
REMARK                            x       y       z     vdW  Elec       q    Type
REMARK                         _______ _______ _______ _____ _____    ______ ____
ROOT
ATOM      1  C   UNL     1       6.182   4.567  16.717  0.00  0.00    +0.000 A 
ATOM      2  C   UNL     1       6.168   4.567  15.310  0.00  0.00    +0.000 A 
ATOM      3  N   UNL     1       7.232   4.821  14.383  0.00  0.00    +0.000 N 
ATOM      4  O   UNL     1       7.929   5.819  14.611  0.00  0.00    +0.000 OA
ATOM      5  O   UNL     1       7.393   4.015  13.458  0.00  0.00    +0.000 OA
ATOM      6  N   UNL     1       4.956   4.340  14.797  0.00  0.00    +0.000 NA
ATOM      7  O   UNL     1       4.139   4.164  15.902  0.00  0.00    +0.000 OA
ATOM      8  C   UNL     1       4.862   4.312  17.056  0.00  0.00    +0.000 A 
ENDROOT
BRANCH   8   9
ATOM      9  C   UNL     1       4.119   4.064  18.298  0.00  0.00    +0.000 A 
ATOM     10  C   UNL     1       4.135   2.766  18.848  0.00  0.00    +0.000 A 
ATOM     11  C   UNL     1       3.433   2.456  20.017  0.00  0.00    +0.000 A 
ATOM     12  C   UNL     1       2.677   3.435  20.647  0.00  0.00    +0.000 A 
ATOM     13 CL   UNL     1       1.794   3.049  22.071  0.00  0.00    +0.000 Cl
ATOM     14  C   UNL     1       2.632   4.724  20.128  0.00  0.00    +0.000 A 
ATOM     15  C   UNL     1       3.356   5.043  18.970  0.00  0.00    +0.000 A 
ATOM     16 CL   UNL     1       3.275   6.696  18.458  0.00  0.00    +0.000 Cl
ENDBRANCH   8   9
BRANCH   1  17
ATOM     17  C   UNL     1       7.301   4.744  17.601  0.00  0.00    +0.000 C 
ATOM     18  O   UNL     1       8.310   4.049  17.566  0.00  0.00    +0.000 OA
BRANCH  17  20
ATOM     19  C   UNL     1       7.557   7.065  17.814  0.00  0.00    +0.000 C 
ATOM     20  O   UNL     1       7.148   5.831  18.407  0.00  0.00    +0.000 OA
ENDBRANCH  17  20
ENDBRANCH   1  17
TORSDOF 3
ENDMDL
MODEL 3
REMARK VINA RESULT:      -7.1      3.614      5.577
REMARK  Name = 
REMARK  4 active torsions:
REMARK  status: ('A' for Active; 'I' for Inactive)
REMARK    1  A    between atoms: C_1  and  O_2
REMARK    2  A    between atoms: O_2  and  C_3
REMARK    3  A    between atoms: C_3  and  C_5
REMARK    4  A    between atoms: C_12  and  C_13
REMARK                            x       y       z     vdW  Elec       q    Type
REMARK                         _______ _______ _______ _____ _____    ______ ____
ROOT
ATOM      1  C   UNL     1       5.664   6.057  17.755  0.00  0.00    +0.000 A 
ATOM      2  C   UNL     1       6.962   6.301  18.240  0.00  0.00    +0.000 A 
ATOM      3  N   UNL     1       7.924   7.283  17.832  0.00  0.00    +0.000 N 
ATOM      4  O   UNL     1       8.104   7.398  16.613  0.00  0.00    +0.000 OA
ATOM      5  O   UNL     1       8.468   7.957  18.717  0.00  0.00    +0.000 OA
ATOM      6  N   UNL     1       7.339   5.439  19.188  0.00  0.00    +0.000 NA
ATOM      7  O   UNL     1       6.245   4.605  19.352  0.00  0.00    +0.000 OA
ATOM      8  C   UNL     1       5.243   4.959  18.488  0.00  0.00    +0.000 A 
ENDROOT
BRANCH   8   9
ATOM      9  C   UNL     1       3.995   4.197  18.627  0.00  0.00    +0.000 A 
ATOM     10  C   UNL     1       3.946   2.881  18.127  0.00  0.00    +0.000 A 
ATOM     11  C   UNL     1       2.784   2.108  18.208  0.00  0.00    +0.000 A 
ATOM     12  C   UNL     1       1.635   2.647  18.769  0.00  0.00    +0.000 A 
ATOM     13 CL   UNL     1       0.199   1.706  18.848  0.00  0.00    +0.000 Cl
ATOM     14  C   UNL     1       1.644   3.946  19.266  0.00  0.00    +0.000 A 
ATOM     15  C   UNL     1       2.817   4.714  19.208  0.00  0.00    +0.000 A 
ATOM     16 CL   UNL     1       2.724   6.291  19.919  0.00  0.00    +0.000 Cl
ENDBRANCH   8   9
BRANCH   1  17
ATOM     17  C   UNL     1       4.926   6.794  16.766  0.00  0.00    +0.000 C 
ATOM     18  O   UNL     1       3.986   7.534  17.032  0.00  0.00    +0.000 OA
BRANCH  17  20
ATOM     19  C   UNL     1       5.513   5.299  15.057  0.00  0.00    +0.000 C 
ATOM     20  O   UNL     1       5.458   6.650  15.520  0.00  0.00    +0.000 OA
ENDBRANCH  17  20
ENDBRANCH   1  17
TORSDOF 3
ENDMDL
MODEL 4
REMARK VINA RESULT:      -7.0      1.738      2.552
REMARK  Name = 
REMARK  4 active torsions:
REMARK  status: ('A' for Active; 'I' for Inactive)
REMARK    1  A    between atoms: C_1  and  O_2
REMARK    2  A    between atoms: O_2  and  C_3
REMARK    3  A    between atoms: C_3  and  C_5
REMARK    4  A    between atoms: C_12  and  C_13
REMARK                            x       y       z     vdW  Elec       q    Type
REMARK                         _______ _______ _______ _____ _____    ______ ____
ROOT
ATOM      1  C   UNL     1       3.592   3.727  18.580  0.00  0.00    +0.000 A 
ATOM      2  C   UNL     1       2.232   3.468  18.830  0.00  0.00    +0.000 A 
ATOM      3  N   UNL     1       1.572   3.139  20.059  0.00  0.00    +0.000 N 
ATOM      4  O   UNL     1       2.109   2.263  20.751  0.00  0.00    +0.000 OA
ATOM      5  O   UNL     1       0.549   3.773  20.349  0.00  0.00    +0.000 OA
ATOM      6  N   UNL     1       1.482   3.492  17.725  0.00  0.00    +0.000 NA
ATOM      7  O   UNL     1       2.372   3.798  16.708  0.00  0.00    +0.000 OA
ATOM      8  C   UNL     1       3.640   3.926  17.209  0.00  0.00    +0.000 A 
ENDROOT
BRANCH   8   9
ATOM      9  C   UNL     1       4.661   4.335  16.236  0.00  0.00    +0.000 A 
ATOM     10  C   UNL     1       5.284   3.343  15.453  0.00  0.00    +0.000 A 
ATOM     11  C   UNL     1       6.279   3.660  14.523  0.00  0.00    +0.000 A 
ATOM     12  C   UNL     1       6.690   4.977  14.375  0.00  0.00    +0.000 A 
ATOM     13 CL   UNL     1       7.929   5.365  13.249  0.00  0.00    +0.000 Cl
ATOM     14  C   UNL     1       6.102   5.981  15.136  0.00  0.00    +0.000 A 
ATOM     15  C   UNL     1       5.087   5.668  16.052  0.00  0.00    +0.000 A 
ATOM     16 CL   UNL     1       4.386   7.010  16.894  0.00  0.00    +0.000 Cl
ENDBRANCH   8   9
BRANCH   1  17
ATOM     17  C   UNL     1       4.674   3.812  19.522  0.00  0.00    +0.000 C 
ATOM     18  O   UNL     1       5.224   2.833  20.014  0.00  0.00    +0.000 OA
BRANCH  17  20
ATOM     19  C   UNL     1       6.438   5.349  19.369  0.00  0.00    +0.000 C 
ATOM     20  O   UNL     1       5.077   5.097  19.722  0.00  0.00    +0.000 OA
ENDBRANCH  17  20
ENDBRANCH   1  17
TORSDOF 3
ENDMDL
MODEL 5
REMARK VINA RESULT:      -6.9      1.024      1.416
REMARK  Name = 
REMARK  4 active torsions:
REMARK  status: ('A' for Active; 'I' for Inactive)
REMARK    1  A    between atoms: C_1  and  O_2
REMARK    2  A    between atoms: O_2  and  C_3
REMARK    3  A    between atoms: C_3  and  C_5
REMARK    4  A    between atoms: C_12  and  C_13
REMARK                            x       y       z     vdW  Elec       q    Type
REMARK                         _______ _______ _______ _____ _____    ______ ____
ROOT
ATOM      1  C   UNL     1       3.585   4.024  19.626  0.00  0.00    +0.000 A 
ATOM      2  C   UNL     1       3.497   3.066  20.652  0.00  0.00    +0.000 A 
ATOM      3  N   UNL     1       2.530   2.934  21.703  0.00  0.00    +0.000 N 
ATOM      4  O   UNL     1       2.253   3.969  22.324  0.00  0.00    +0.000 OA
ATOM      5  O   UNL     1       2.026   1.818  21.883  0.00  0.00    +0.000 OA
ATOM      6  N   UNL     1       4.508   2.194  20.644  0.00  0.00    +0.000 NA
ATOM      7  O   UNL     1       5.285   2.574  19.562  0.00  0.00    +0.000 OA
ATOM      8  C   UNL     1       4.748   3.678  18.956  0.00  0.00    +0.000 A 
ENDROOT
BRANCH   8   9
ATOM      9  C   UNL     1       5.440   4.127  17.741  0.00  0.00    +0.000 A 
ATOM     10  C   UNL     1       4.944   3.715  16.488  0.00  0.00    +0.000 A 
ATOM     11  C   UNL     1       5.567   4.088  15.293  0.00  0.00    +0.000 A 
ATOM     12  C   UNL     1       6.718   4.863  15.328  0.00  0.00    +0.000 A 
ATOM     13 CL   UNL     1       7.498   5.303  13.861  0.00  0.00    +0.000 Cl
ATOM     14  C   UNL     1       7.241   5.282  16.547  0.00  0.00    +0.000 A 
ATOM     15  C   UNL     1       6.603   4.928  17.746  0.00  0.00    +0.000 A 
ATOM     16 CL   UNL     1       7.309   5.564  19.194  0.00  0.00    +0.000 Cl
ENDBRANCH   8   9
BRANCH   1  17
ATOM     17  C   UNL     1       2.669   5.086  19.313  0.00  0.00    +0.000 C 
ATOM     18  O   UNL     1       2.980   6.271  19.305  0.00  0.00    +0.000 OA
BRANCH  17  20
ATOM     19  C   UNL     1       1.370   4.237  17.555  0.00  0.00    +0.000 C 
ATOM     20  O   UNL     1       1.450   4.613  18.931  0.00  0.00    +0.000 OA
ENDBRANCH  17  20
ENDBRANCH   1  17
TORSDOF 3
ENDMDL
MODEL 6
REMARK VINA RESULT:      -6.8      1.204      1.413
REMARK  Name = 
REMARK  4 active torsions:
REMARK  status: ('A' for Active; 'I' for Inactive)
REMARK    1  A    between atoms: C_1  and  O_2
REMARK    2  A    between atoms: O_2  and  C_3
REMARK    3  A    between atoms: C_3  and  C_5
REMARK    4  A    between atoms: C_12  and  C_13
REMARK                            x       y       z     vdW  Elec       q    Type
REMARK                         _______ _______ _______ _____ _____    ______ ____
ROOT
ATOM      1  C   UNL     1       3.451   4.200  18.462  0.00  0.00    +0.000 A 
ATOM      2  C   UNL     1       2.708   3.132  18.998  0.00  0.00    +0.000 A 
ATOM      3  N   UNL     1       1.754   3.125  20.068  0.00  0.00    +0.000 N 
ATOM      4  O   UNL     1       2.088   3.720  21.102  0.00  0.00    +0.000 OA
ATOM      5  O   UNL     1       0.670   2.562  19.868  0.00  0.00    +0.000 OA
ATOM      6  N   UNL     1       2.995   1.957  18.433  0.00  0.00    +0.000 NA
ATOM      7  O   UNL     1       3.949   2.258  17.474  0.00  0.00    +0.000 OA
ATOM      8  C   UNL     1       4.238   3.596  17.495  0.00  0.00    +0.000 A 
ENDROOT
BRANCH   8   9
ATOM      9  C   UNL     1       5.178   4.052  16.462  0.00  0.00    +0.000 A 
ATOM     10  C   UNL     1       4.823   3.895  15.107  0.00  0.00    +0.000 A 
ATOM     11  C   UNL     1       5.680   4.287  14.074  0.00  0.00    +0.000 A 
ATOM     12  C   UNL     1       6.924   4.823  14.376  0.00  0.00    +0.000 A 
ATOM     13 CL   UNL     1       7.987   5.285  13.107  0.00  0.00    +0.000 Cl
ATOM     14  C   UNL     1       7.311   4.986  15.702  0.00  0.00    +0.000 A 
ATOM     15  C   UNL     1       6.442   4.615  16.739  0.00  0.00    +0.000 A 
ATOM     16 CL   UNL     1       7.008   4.928  18.347  0.00  0.00    +0.000 Cl
ENDBRANCH   8   9
BRANCH   1  17
ATOM     17  C   UNL     1       3.383   5.595  18.801  0.00  0.00    +0.000 C 
ATOM     18  O   UNL     1       4.069   6.115  19.672  0.00  0.00    +0.000 OA
BRANCH  17  20
ATOM     19  C   UNL     1       2.583   7.699  18.144  0.00  0.00    +0.000 C 
ATOM     20  O   UNL     1       2.546   6.281  17.974  0.00  0.00    +0.000 OA
ENDBRANCH  17  20
ENDBRANCH   1  17
TORSDOF 3
ENDMDL
MODEL 7
REMARK VINA RESULT:      -6.8      1.486      2.509
REMARK  Name = 
REMARK  4 active torsions:
REMARK  status: ('A' for Active; 'I' for Inactive)
REMARK    1  A    between atoms: C_1  and  O_2
REMARK    2  A    between atoms: O_2  and  C_3
REMARK    3  A    between atoms: C_3  and  C_5
REMARK    4  A    between atoms: C_12  and  C_13
REMARK                            x       y       z     vdW  Elec       q    Type
REMARK                         _______ _______ _______ _____ _____    ______ ____
ROOT
ATOM      1  C   UNL     1       3.797   3.355  19.367  0.00  0.00    +0.000 A 
ATOM      2  C   UNL     1       2.963   3.925  20.346  0.00  0.00    +0.000 A 
ATOM      3  N   UNL     1       2.256   3.301  21.426  0.00  0.00    +0.000 N 
ATOM      4  O   UNL     1       1.618   2.278  21.142  0.00  0.00    +0.000 OA
ATOM      5  O   UNL     1       2.364   3.804  22.551  0.00  0.00    +0.000 OA
ATOM      6  N   UNL     1       2.789   5.239  20.186  0.00  0.00    +0.000 NA
ATOM      7  O   UNL     1       3.549   5.556  19.072  0.00  0.00    +0.000 OA
ATOM      8  C   UNL     1       4.144   4.431  18.567  0.00  0.00    +0.000 A 
ENDROOT
BRANCH   8   9
ATOM      9  C   UNL     1       5.047   4.655  17.430  0.00  0.00    +0.000 A 
ATOM     10  C   UNL     1       4.592   4.346  16.133  0.00  0.00    +0.000 A 
ATOM     11  C   UNL     1       5.408   4.514  15.010  0.00  0.00    +0.000 A 
ATOM     12  C   UNL     1       6.708   4.973  15.164  0.00  0.00    +0.000 A 
ATOM     13 CL   UNL     1       7.719   5.159  13.787  0.00  0.00    +0.000 Cl
ATOM     14  C   UNL     1       7.194   5.281  16.431  0.00  0.00    +0.000 A 
ATOM     15  C   UNL     1       6.369   5.135  17.556  0.00  0.00    +0.000 A 
ATOM     16 CL   UNL     1       7.063   5.613  19.070  0.00  0.00    +0.000 Cl
ENDBRANCH   8   9
BRANCH   1  17
ATOM     17  C   UNL     1       4.226   1.989  19.244  0.00  0.00    +0.000 C 
ATOM     18  O   UNL     1       4.964   1.434  20.050  0.00  0.00    +0.000 OA
BRANCH  17  20
ATOM     19  C   UNL     1       2.372   1.906  17.811  0.00  0.00    +0.000 C 
ATOM     20  O   UNL     1       3.638   1.362  18.187  0.00  0.00    +0.000 OA
ENDBRANCH  17  20
ENDBRANCH   1  17
TORSDOF 3
ENDMDL
MODEL 8
REMARK VINA RESULT:      -6.7      3.483      5.801
REMARK  Name = 
REMARK  4 active torsions:
REMARK  status: ('A' for Active; 'I' for Inactive)
REMARK    1  A    between atoms: C_1  and  O_2
REMARK    2  A    between atoms: O_2  and  C_3
REMARK    3  A    between atoms: C_3  and  C_5
REMARK    4  A    between atoms: C_12  and  C_13
REMARK                            x       y       z     vdW  Elec       q    Type
REMARK                         _______ _______ _______ _____ _____    ______ ____
ROOT
ATOM      1  C   UNL     1       2.969   5.318  17.831  0.00  0.00    +0.000 A 
ATOM      2  C   UNL     1       4.216   4.913  17.319  0.00  0.00    +0.000 A 
ATOM      3  N   UNL     1       4.646   3.621  16.870  0.00  0.00    +0.000 N 
ATOM      4  O   UNL     1       4.375   2.666  17.610  0.00  0.00    +0.000 OA
ATOM      5  O   UNL     1       5.216   3.556  15.773  0.00  0.00    +0.000 OA
ATOM      6  N   UNL     1       5.123   5.893  17.310  0.00  0.00    +0.000 NA
ATOM      7  O   UNL     1       4.450   6.993  17.817  0.00  0.00    +0.000 OA
ATOM      8  C   UNL     1       3.164   6.654  18.145  0.00  0.00    +0.000 A 
ENDROOT
BRANCH   8   9
ATOM      9  C   UNL     1       2.323   7.762  18.615  0.00  0.00    +0.000 A 
ATOM     10  C   UNL     1       2.111   8.862  17.760  0.00  0.00    +0.000 A 
ATOM     11  C   UNL     1       1.339   9.959  18.153  0.00  0.00    +0.000 A 
ATOM     12  C   UNL     1       0.782   9.991  19.423  0.00  0.00    +0.000 A 
ATOM     13 CL   UNL     1      -0.148  11.350  19.915  0.00  0.00    +0.000 Cl
ATOM     14  C   UNL     1       0.976   8.926  20.297  0.00  0.00    +0.000 A 
ATOM     15  C   UNL     1       1.730   7.814  19.895  0.00  0.00    +0.000 A 
ATOM     16 CL   UNL     1       1.846   6.524  21.046  0.00  0.00    +0.000 Cl
ENDBRANCH   8   9
BRANCH   1  17
ATOM     17  C   UNL     1       1.763   4.548  17.961  0.00  0.00    +0.000 C 
ATOM     18  O   UNL     1       0.944   4.412  17.060  0.00  0.00    +0.000 OA
BRANCH  17  20
ATOM     19  C   UNL     1       1.042   2.639  19.117  0.00  0.00    +0.000 C 
ATOM     20  O   UNL     1       1.691   3.911  19.163  0.00  0.00    +0.000 OA
ENDBRANCH  17  20
ENDBRANCH   1  17
TORSDOF 3
ENDMDL
MODEL 9
REMARK VINA RESULT:      -6.6      1.699      2.149
REMARK  Name = 
REMARK  4 active torsions:
REMARK  status: ('A' for Active; 'I' for Inactive)
REMARK    1  A    between atoms: C_1  and  O_2
REMARK    2  A    between atoms: O_2  and  C_3
REMARK    3  A    between atoms: C_3  and  C_5
REMARK    4  A    between atoms: C_12  and  C_13
REMARK                            x       y       z     vdW  Elec       q    Type
REMARK                         _______ _______ _______ _____ _____    ______ ____
ROOT
ATOM      1  C   UNL     1       2.928   4.032  18.633  0.00  0.00    +0.000 A 
ATOM      2  C   UNL     1       2.890   4.247  20.023  0.00  0.00    +0.000 A 
ATOM      3  N   UNL     1       1.899   3.860  20.984  0.00  0.00    +0.000 N 
ATOM      4  O   UNL     1       0.722   4.093  20.679  0.00  0.00    +0.000 OA
ATOM      5  O   UNL     1       2.289   3.299  22.016  0.00  0.00    +0.000 OA
ATOM      6  N   UNL     1       3.924   4.964  20.471  0.00  0.00    +0.000 NA
ATOM      7  O   UNL     1       4.686   5.217  19.341  0.00  0.00    +0.000 OA
ATOM      8  C   UNL     1       4.089   4.675  18.234  0.00  0.00    +0.000 A 
ENDROOT
BRANCH   8   9
ATOM      9  C   UNL     1       4.848   4.806  16.984  0.00  0.00    +0.000 A 
ATOM     10  C   UNL     1       5.472   3.662  16.448  0.00  0.00    +0.000 A 
ATOM     11  C   UNL     1       6.227   3.721  15.273  0.00  0.00    +0.000 A 
ATOM     12  C   UNL     1       6.396   4.935  14.621  0.00  0.00    +0.000 A 
ATOM     13 CL   UNL     1       7.343   5.013  13.189  0.00  0.00    +0.000 Cl
ATOM     14  C   UNL     1       5.801   6.086  15.126  0.00  0.00    +0.000 A 
ATOM     15  C   UNL     1       5.022   6.024  16.291  0.00  0.00    +0.000 A 
ATOM     16 CL   UNL     1       4.279   7.509  16.784  0.00  0.00    +0.000 Cl
ENDBRANCH   8   9
BRANCH   1  17
ATOM     17  C   UNL     1       2.008   3.286  17.818  0.00  0.00    +0.000 C 
ATOM     18  O   UNL     1       0.945   3.737  17.408  0.00  0.00    +0.000 OA
BRANCH  17  20
ATOM     19  C   UNL     1       3.280   1.438  18.501  0.00  0.00    +0.000 C 
ATOM     20  O   UNL     1       2.504   2.064  17.477  0.00  0.00    +0.000 OA
ENDBRANCH  17  20
ENDBRANCH   1  17
TORSDOF 3
ENDMDL
