MODEL 1
REMARK VINA RESULT:      -7.8      0.000      0.000
REMARK  Name = 
REMARK  4 active torsions:
REMARK  status: ('A' for Active; 'I' for Inactive)
REMARK    1  A    between atoms: C_2  and  C_4
REMARK    2  A    between atoms: C_7  and  N_8
REMARK    3  A    between atoms: C_9  and  C_11
REMARK    4  A    between atoms: N_15  and  C_16
REMARK                            x       y       z     vdW  Elec       q    Type
REMARK                         _______ _______ _______ _____ _____    ______ ____
ROOT
ATOM      1  N   UNL     1       2.666   6.539  19.926  0.00  0.00    +0.000 N 
ATOM      2  C   UNL     1       2.512   5.353  19.217  0.00  0.00    +0.000 C 
ATOM      3  O   UNL     1       1.836   5.253  18.200  0.00  0.00    +0.000 OA
ATOM      4  H   UNL     1       3.333   6.557  20.683  0.00  0.00    +0.000 HD
ENDROOT
BRANCH   1   8
ATOM      5  C   UNL     1       0.922  10.267  18.920  0.00  0.00    +0.000 A 
ATOM      6  C   UNL     1       1.696   9.589  17.982  0.00  0.00    +0.000 A 
ATOM      7  C   UNL     1       2.244   8.346  18.299  0.00  0.00    +0.000 A 
ATOM      8  C   UNL     1       2.065   7.770  19.561  0.00  0.00    +0.000 A 
ATOM      9  C   UNL     1       1.280   8.451  20.499  0.00  0.00    +0.000 A 
ATOM     10  C   UNL     1       0.725   9.702  20.185  0.00  0.00    +0.000 A 
BRANCH   5  12
ATOM     11  N   UNL     1       1.198  12.567  18.183  0.00  0.00    +0.000 N 
ATOM     12  C   UNL     1       0.332  11.589  18.595  0.00  0.00    +0.000 C 
ATOM     13  O   UNL     1      -0.873  11.792  18.667  0.00  0.00    +0.000 OA
ATOM     14  H   UNL     1       0.795  13.447  17.896  0.00  0.00    +0.000 HD
ATOM     15  H   UNL     1       2.148  12.370  17.903  0.00  0.00    +0.000 HD
ENDBRANCH   5  12
ENDBRANCH   1   8
BRANCH   2  16
ATOM     16  C   UNL     1       3.209   4.202  19.734  0.00  0.00    +0.000 A 
ATOM     17  C   UNL     1       2.865   3.350  20.766  0.00  0.00    +0.000 A 
ATOM     18  N   UNL     1       3.625   2.214  20.750  0.00  0.00    +0.000 NA
ATOM     19  C   UNL     1       4.434   2.361  19.725  0.00  0.00    +0.000 A 
ATOM     20  N   UNL     1       4.301   3.590  19.118  0.00  0.00    +0.000 N 
BRANCH  20  21
ATOM     21  C   UNL     1       5.131   4.093  18.073  0.00  0.00    +0.000 A 
ATOM     22  C   UNL     1       6.300   4.802  18.380  0.00  0.00    +0.000 A 
ATOM     23  C   UNL     1       7.149   5.223  17.350  0.00  0.00    +0.000 A 
ATOM     24  C   UNL     1       6.826   4.963  16.019  0.00  0.00    +0.000 A 
ATOM     25  C   UNL     1       5.647   4.295  15.708  0.00  0.00    +0.000 A 
ATOM     26  C   UNL     1       4.795   3.870  16.729  0.00  0.00    +0.000 A 
ENDBRANCH  20  21
ENDBRANCH   2  16
TORSDOF 4
ENDMDL
MODEL 2
REMARK VINA RESULT:      -7.7      0.795      1.315
REMARK  Name = 
REMARK  4 active torsions:
REMARK  status: ('A' for Active; 'I' for Inactive)
REMARK    1  A    between atoms: C_2  and  C_4
REMARK    2  A    between atoms: C_7  and  N_8
REMARK    3  A    between atoms: C_9  and  C_11
REMARK    4  A    between atoms: N_15  and  C_16
REMARK                            x       y       z     vdW  Elec       q    Type
REMARK                         _______ _______ _______ _____ _____    ______ ____
ROOT
ATOM      1  N   UNL     1       2.564   6.631  20.017  0.00  0.00    +0.000 N 
ATOM      2  C   UNL     1       2.521   5.487  19.227  0.00  0.00    +0.000 C 
ATOM      3  O   UNL     1       1.940   5.428  18.149  0.00  0.00    +0.000 OA
ATOM      4  H   UNL     1       3.162   6.624  20.830  0.00  0.00    +0.000 HD
ENDROOT
BRANCH   1   8
ATOM      5  C   UNL     1       0.774  10.354  19.079  0.00  0.00    +0.000 A 
ATOM      6  C   UNL     1       1.550   9.700  18.127  0.00  0.00    +0.000 A 
ATOM      7  C   UNL     1       2.113   8.458  18.422  0.00  0.00    +0.000 A 
ATOM      8  C   UNL     1       1.948   7.861  19.675  0.00  0.00    +0.000 A 
ATOM      9  C   UNL     1       1.161   8.518  20.628  0.00  0.00    +0.000 A 
ATOM     10  C   UNL     1       0.590   9.767  20.337  0.00  0.00    +0.000 A 
BRANCH   5  12
ATOM     11  N   UNL     1      -0.839  11.696  17.852  0.00  0.00    +0.000 N 
ATOM     12  C   UNL     1       0.168  11.675  18.779  0.00  0.00    +0.000 C 
ATOM     13  O   UNL     1       0.531  12.696  19.351  0.00  0.00    +0.000 OA
ATOM     14  H   UNL     1      -1.301  12.580  17.694  0.00  0.00    +0.000 HD
ATOM     15  H   UNL     1      -1.306  10.858  17.535  0.00  0.00    +0.000 HD
ENDBRANCH   5  12
ENDBRANCH   1   8
BRANCH   2  16
ATOM     16  C   UNL     1       3.217   4.332  19.733  0.00  0.00    +0.000 A 
ATOM     17  C   UNL     1       2.768   3.323  20.566  0.00  0.00    +0.000 A 
ATOM     18  N   UNL     1       3.626   2.259  20.569  0.00  0.00    +0.000 NA
ATOM     19  C   UNL     1       4.598   2.604  19.754  0.00  0.00    +0.000 A 
ATOM     20  N   UNL     1       4.462   3.892  19.284  0.00  0.00    +0.000 N 
BRANCH  20  21
ATOM     21  C   UNL     1       5.422   4.593  18.497  0.00  0.00    +0.000 A 
ATOM     22  C   UNL     1       5.381   4.517  17.098  0.00  0.00    +0.000 A 
ATOM     23  C   UNL     1       6.277   5.271  16.333  0.00  0.00    +0.000 A 
ATOM     24  C   UNL     1       7.229   6.079  16.954  0.00  0.00    +0.000 A 
ATOM     25  C   UNL     1       7.300   6.126  18.343  0.00  0.00    +0.000 A 
ATOM     26  C   UNL     1       6.408   5.379  19.113  0.00  0.00    +0.000 A 
ENDBRANCH  20  21
ENDBRANCH   2  16
TORSDOF 4
ENDMDL
MODEL 3
REMARK VINA RESULT:      -7.7      0.588      1.570
REMARK  Name = 
REMARK  4 active torsions:
REMARK  status: ('A' for Active; 'I' for Inactive)
REMARK    1  A    between atoms: C_2  and  C_4
REMARK    2  A    between atoms: C_7  and  N_8
REMARK    3  A    between atoms: C_9  and  C_11
REMARK    4  A    between atoms: N_15  and  C_16
REMARK                            x       y       z     vdW  Elec       q    Type
REMARK                         _______ _______ _______ _____ _____    ______ ____
ROOT
ATOM      1  N   UNL     1       2.588   6.612  20.096  0.00  0.00    +0.000 N 
ATOM      2  C   UNL     1       2.521   5.478  19.295  0.00  0.00    +0.000 C 
ATOM      3  O   UNL     1       1.903   5.428  18.238  0.00  0.00    +0.000 OA
ATOM      4  H   UNL     1       3.214   6.599  20.888  0.00  0.00    +0.000 HD
ENDROOT
BRANCH   1   8
ATOM      5  C   UNL     1       0.653  10.245  19.091  0.00  0.00    +0.000 A 
ATOM      6  C   UNL     1       0.473   9.692  20.356  0.00  0.00    +0.000 A 
ATOM      7  C   UNL     1       1.135   8.513  20.700  0.00  0.00    +0.000 A 
ATOM      8  C   UNL     1       1.957   7.844  19.788  0.00  0.00    +0.000 A 
ATOM      9  C   UNL     1       2.142   8.407  18.520  0.00  0.00    +0.000 A 
ATOM     10  C   UNL     1       1.479   9.594  18.167  0.00  0.00    +0.000 A 
BRANCH   5  12
ATOM     11  N   UNL     1       0.716  12.475  18.125  0.00  0.00    +0.000 N 
ATOM     12  C   UNL     1      -0.045  11.499  18.711  0.00  0.00    +0.000 C 
ATOM     13  O   UNL     1      -1.248  11.645  18.888  0.00  0.00    +0.000 OA
ATOM     14  H   UNL     1       0.234  13.302  17.803  0.00  0.00    +0.000 HD
ATOM     15  H   UNL     1       1.644  12.302  17.768  0.00  0.00    +0.000 HD
ENDBRANCH   5  12
ENDBRANCH   1   8
BRANCH   2  16
ATOM     16  C   UNL     1       3.238   4.319  19.765  0.00  0.00    +0.000 A 
ATOM     17  C   UNL     1       2.810   3.282  20.573  0.00  0.00    +0.000 A 
ATOM     18  N   UNL     1       3.684   2.231  20.540  0.00  0.00    +0.000 NA
ATOM     19  C   UNL     1       4.643   2.611  19.727  0.00  0.00    +0.000 A 
ATOM     20  N   UNL     1       4.485   3.909  19.293  0.00  0.00    +0.000 N 
BRANCH  20  21
ATOM     21  C   UNL     1       5.428   4.645  18.517  0.00  0.00    +0.000 A 
ATOM     22  C   UNL     1       5.338   4.655  17.118  0.00  0.00    +0.000 A 
ATOM     23  C   UNL     1       6.219   5.443  16.370  0.00  0.00    +0.000 A 
ATOM     24  C   UNL     1       7.203   6.200  17.005  0.00  0.00    +0.000 A 
ATOM     25  C   UNL     1       7.322   6.161  18.390  0.00  0.00    +0.000 A 
ATOM     26  C   UNL     1       6.446   5.379  19.145  0.00  0.00    +0.000 A 
ENDBRANCH  20  21
ENDBRANCH   2  16
TORSDOF 4
ENDMDL
MODEL 4
REMARK VINA RESULT:      -7.7      0.532      1.143
REMARK  Name = 
REMARK  4 active torsions:
REMARK  status: ('A' for Active; 'I' for Inactive)
REMARK    1  A    between atoms: C_2  and  C_4
REMARK    2  A    between atoms: C_7  and  N_8
REMARK    3  A    between atoms: C_9  and  C_11
REMARK    4  A    between atoms: N_15  and  C_16
REMARK                            x       y       z     vdW  Elec       q    Type
REMARK                         _______ _______ _______ _____ _____    ______ ____
ROOT
ATOM      1  N   UNL     1       2.754   6.451  20.037  0.00  0.00    +0.000 N 
ATOM      2  C   UNL     1       2.399   5.204  19.533  0.00  0.00    +0.000 C 
ATOM      3  O   UNL     1       1.462   5.024  18.764  0.00  0.00    +0.000 OA
ATOM      4  H   UNL     1       3.609   6.523  20.568  0.00  0.00    +0.000 HD
ENDROOT
BRANCH   1   8
ATOM      5  C   UNL     1       0.693  10.010  19.018  0.00  0.00    +0.000 A 
ATOM      6  C   UNL     1       0.568   9.480  20.299  0.00  0.00    +0.000 A 
ATOM      7  C   UNL     1       1.272   8.326  20.647  0.00  0.00    +0.000 A 
ATOM      8  C   UNL     1       2.081   7.659  19.724  0.00  0.00    +0.000 A 
ATOM      9  C   UNL     1       2.211   8.198  18.438  0.00  0.00    +0.000 A 
ATOM     10  C   UNL     1       1.507   9.360  18.082  0.00  0.00    +0.000 A 
BRANCH   5  12
ATOM     11  N   UNL     1       0.700  12.307  18.224  0.00  0.00    +0.000 N 
ATOM     12  C   UNL     1      -0.049  11.236  18.634  0.00  0.00    +0.000 C 
ATOM     13  O   UNL     1      -1.272  11.283  18.658  0.00  0.00    +0.000 OA
ATOM     14  H   UNL     1       0.198  13.120  17.898  0.00  0.00    +0.000 HD
ATOM     15  H   UNL     1       1.677  12.229  17.983  0.00  0.00    +0.000 HD
ENDBRANCH   5  12
ENDBRANCH   1   8
BRANCH   2  16
ATOM     16  C   UNL     1       3.209   4.089  19.954  0.00  0.00    +0.000 A 
ATOM     17  C   UNL     1       2.913   3.065  20.834  0.00  0.00    +0.000 A 
ATOM     18  N   UNL     1       3.819   2.045  20.736  0.00  0.00    +0.000 NA
ATOM     19  C   UNL     1       4.669   2.433  19.811  0.00  0.00    +0.000 A 
ATOM     20  N   UNL     1       4.412   3.709  19.360  0.00  0.00    +0.000 N 
BRANCH  20  21
ATOM     21  C   UNL     1       5.236   4.453  18.464  0.00  0.00    +0.000 A 
ATOM     22  C   UNL     1       6.222   5.315  18.962  0.00  0.00    +0.000 A 
ATOM     23  C   UNL     1       7.078   5.979  18.077  0.00  0.00    +0.000 A 
ATOM     24  C   UNL     1       6.939   5.808  16.700  0.00  0.00    +0.000 A 
ATOM     25  C   UNL     1       5.935   4.986  16.200  0.00  0.00    +0.000 A 
ATOM     26  C   UNL     1       5.079   4.317  17.076  0.00  0.00    +0.000 A 
ENDBRANCH  20  21
ENDBRANCH   2  16
TORSDOF 4
ENDMDL
MODEL 5
REMARK VINA RESULT:      -7.6      0.973      1.057
REMARK  Name = 
REMARK  4 active torsions:
REMARK  status: ('A' for Active; 'I' for Inactive)
REMARK    1  A    between atoms: C_2  and  C_4
REMARK    2  A    between atoms: C_7  and  N_8
REMARK    3  A    between atoms: C_9  and  C_11
REMARK    4  A    between atoms: N_15  and  C_16
REMARK                            x       y       z     vdW  Elec       q    Type
REMARK                         _______ _______ _______ _____ _____    ______ ____
ROOT
ATOM      1  N   UNL     1       2.638   6.651  20.044  0.00  0.00    +0.000 N 
ATOM      2  C   UNL     1       2.480   5.486  19.302  0.00  0.00    +0.000 C 
ATOM      3  O   UNL     1       1.719   5.387  18.347  0.00  0.00    +0.000 OA
ATOM      4  H   UNL     1       3.371   6.677  20.738  0.00  0.00    +0.000 HD
ENDROOT
BRANCH   1   8
ATOM      5  C   UNL     1       0.618  10.312  19.362  0.00  0.00    +0.000 A 
ATOM      6  C   UNL     1       1.370   9.736  18.342  0.00  0.00    +0.000 A 
ATOM      7  C   UNL     1       2.009   8.514  18.554  0.00  0.00    +0.000 A 
ATOM      8  C   UNL     1       1.945   7.860  19.788  0.00  0.00    +0.000 A 
ATOM      9  C   UNL     1       1.182   8.439  20.809  0.00  0.00    +0.000 A 
ATOM     10  C   UNL     1       0.535   9.668  20.602  0.00  0.00    +0.000 A 
BRANCH   5  12
ATOM     11  N   UNL     1      -0.463  11.899  17.872  0.00  0.00    +0.000 N 
ATOM     12  C   UNL     1      -0.068  11.611  19.151  0.00  0.00    +0.000 C 
ATOM     13  O   UNL     1      -0.294  12.379  20.078  0.00  0.00    +0.000 OA
ATOM     14  H   UNL     1      -0.989  12.750  17.735  0.00  0.00    +0.000 HD
ATOM     15  H   UNL     1      -0.493  11.204  17.141  0.00  0.00    +0.000 HD
ENDBRANCH   5  12
ENDBRANCH   1   8
BRANCH   2  16
ATOM     16  C   UNL     1       3.280   4.356  19.704  0.00  0.00    +0.000 A 
ATOM     17  C   UNL     1       2.917   3.219  20.401  0.00  0.00    +0.000 A 
ATOM     18  N   UNL     1       3.882   2.254  20.320  0.00  0.00    +0.000 NA
ATOM     19  C   UNL     1       4.834   2.787  19.587  0.00  0.00    +0.000 A 
ATOM     20  N   UNL     1       4.576   4.099  19.257  0.00  0.00    +0.000 N 
BRANCH  20  21
ATOM     21  C   UNL     1       5.479   4.980  18.592  0.00  0.00    +0.000 A 
ATOM     22  C   UNL     1       6.646   5.413  19.235  0.00  0.00    +0.000 A 
ATOM     23  C   UNL     1       7.565   6.213  18.546  0.00  0.00    +0.000 A 
ATOM     24  C   UNL     1       7.314   6.602  17.230  0.00  0.00    +0.000 A 
ATOM     25  C   UNL     1       6.138   6.207  16.602  0.00  0.00    +0.000 A 
ATOM     26  C   UNL     1       5.217   5.408  17.282  0.00  0.00    +0.000 A 
ENDBRANCH  20  21
ENDBRANCH   2  16
TORSDOF 4
ENDMDL
MODEL 6
REMARK VINA RESULT:      -7.6      2.185      3.723
REMARK  Name = 
REMARK  4 active torsions:
REMARK  status: ('A' for Active; 'I' for Inactive)
REMARK    1  A    between atoms: C_2  and  C_4
REMARK    2  A    between atoms: C_7  and  N_8
REMARK    3  A    between atoms: C_9  and  C_11
REMARK    4  A    between atoms: N_15  and  C_16
REMARK                            x       y       z     vdW  Elec       q    Type
REMARK                         _______ _______ _______ _____ _____    ______ ____
ROOT
ATOM      1  N   UNL     1       3.049   6.570  17.551  0.00  0.00    +0.000 N 
ATOM      2  C   UNL     1       4.413   6.557  17.284  0.00  0.00    +0.000 C 
ATOM      3  O   UNL     1       5.203   7.374  17.744  0.00  0.00    +0.000 OA
ATOM      4  H   UNL     1       2.494   5.792  17.226  0.00  0.00    +0.000 HD
ENDROOT
BRANCH   1   8
ATOM      5  C   UNL     1       1.044   9.408  19.975  0.00  0.00    +0.000 A 
ATOM      6  C   UNL     1       1.529   8.233  20.542  0.00  0.00    +0.000 A 
ATOM      7  C   UNL     1       2.218   7.312  19.753  0.00  0.00    +0.000 A 
ATOM      8  C   UNL     1       2.408   7.521  18.384  0.00  0.00    +0.000 A 
ATOM      9  C   UNL     1       1.926   8.708  17.818  0.00  0.00    +0.000 A 
ATOM     10  C   UNL     1       1.233   9.640  18.607  0.00  0.00    +0.000 A 
BRANCH   5  12
ATOM     11  N   UNL     1      -0.830  10.929  20.262  0.00  0.00    +0.000 N 
ATOM     12  C   UNL     1       0.310  10.397  20.803  0.00  0.00    +0.000 C 
ATOM     13  O   UNL     1       0.688  10.704  21.926  0.00  0.00    +0.000 OA
ATOM     14  H   UNL     1      -1.370  11.550  20.847  0.00  0.00    +0.000 HD
ATOM     15  H   UNL     1      -1.282  10.537  19.449  0.00  0.00    +0.000 HD
ENDBRANCH   5  12
ENDBRANCH   1   8
BRANCH   2  16
ATOM     16  C   UNL     1       4.888   5.504  16.422  0.00  0.00    +0.000 A 
ATOM     17  C   UNL     1       5.699   5.574  15.305  0.00  0.00    +0.000 A 
ATOM     18  N   UNL     1       6.165   4.339  14.948  0.00  0.00    +0.000 NA
ATOM     19  C   UNL     1       5.646   3.513  15.828  0.00  0.00    +0.000 A 
ATOM     20  N   UNL     1       4.781   4.141  16.698  0.00  0.00    +0.000 N 
BRANCH  20  21
ATOM     21  C   UNL     1       3.964   3.491  17.669  0.00  0.00    +0.000 A 
ATOM     22  C   UNL     1       4.429   3.316  18.979  0.00  0.00    +0.000 A 
ATOM     23  C   UNL     1       3.591   2.748  19.945  0.00  0.00    +0.000 A 
ATOM     24  C   UNL     1       2.303   2.333  19.606  0.00  0.00    +0.000 A 
ATOM     25  C   UNL     1       1.852   2.469  18.297  0.00  0.00    +0.000 A 
ATOM     26  C   UNL     1       2.682   3.035  17.328  0.00  0.00    +0.000 A 
ENDBRANCH  20  21
ENDBRANCH   2  16
TORSDOF 4
ENDMDL
MODEL 7
REMARK VINA RESULT:      -7.5      2.203      3.648
REMARK  Name = 
REMARK  4 active torsions:
REMARK  status: ('A' for Active; 'I' for Inactive)
REMARK    1  A    between atoms: C_2  and  C_4
REMARK    2  A    between atoms: C_7  and  N_8
REMARK    3  A    between atoms: C_9  and  C_11
REMARK    4  A    between atoms: N_15  and  C_16
REMARK                            x       y       z     vdW  Elec       q    Type
REMARK                         _______ _______ _______ _____ _____    ______ ____
ROOT
ATOM      1  N   UNL     1       3.030   6.519  17.548  0.00  0.00    +0.000 N 
ATOM      2  C   UNL     1       4.395   6.549  17.282  0.00  0.00    +0.000 C 
ATOM      3  O   UNL     1       5.155   7.399  17.733  0.00  0.00    +0.000 OA
ATOM      4  H   UNL     1       2.502   5.719  17.232  0.00  0.00    +0.000 HD
ENDROOT
BRANCH   1   8
ATOM      5  C   UNL     1       1.103   9.332  20.062  0.00  0.00    +0.000 A 
ATOM      6  C   UNL     1       1.261   9.609  18.707  0.00  0.00    +0.000 A 
ATOM      7  C   UNL     1       1.866   8.671  17.871  0.00  0.00    +0.000 A 
ATOM      8  C   UNL     1       2.356   7.459  18.367  0.00  0.00    +0.000 A 
ATOM      9  C   UNL     1       2.188   7.180  19.729  0.00  0.00    +0.000 A 
ATOM     10  C   UNL     1       1.579   8.120  20.576  0.00  0.00    +0.000 A 
BRANCH   5  12
ATOM     11  N   UNL     1      -0.583  11.041  20.446  0.00  0.00    +0.000 N 
ATOM     12  C   UNL     1       0.461  10.321  20.963  0.00  0.00    +0.000 C 
ATOM     13  O   UNL     1       0.828  10.470  22.122  0.00  0.00    +0.000 OA
ATOM     14  H   UNL     1      -1.066  11.666  21.075  0.00  0.00    +0.000 HD
ATOM     15  H   UNL     1      -1.046  10.788  19.585  0.00  0.00    +0.000 HD
ENDBRANCH   5  12
ENDBRANCH   1   8
BRANCH   2  16
ATOM     16  C   UNL     1       4.906   5.502  16.435  0.00  0.00    +0.000 A 
ATOM     17  C   UNL     1       5.736   5.583  15.333  0.00  0.00    +0.000 A 
ATOM     18  N   UNL     1       6.234   4.356  14.991  0.00  0.00    +0.000 NA
ATOM     19  C   UNL     1       5.715   3.523  15.866  0.00  0.00    +0.000 A 
ATOM     20  N   UNL     1       4.823   4.138  16.717  0.00  0.00    +0.000 N 
BRANCH  20  21
ATOM     21  C   UNL     1       4.002   3.476  17.677  0.00  0.00    +0.000 A 
ATOM     22  C   UNL     1       4.449   3.313  18.995  0.00  0.00    +0.000 A 
ATOM     23  C   UNL     1       3.605   2.734  19.949  0.00  0.00    +0.000 A 
ATOM     24  C   UNL     1       2.331   2.295  19.591  0.00  0.00    +0.000 A 
ATOM     25  C   UNL     1       1.899   2.419  18.275  0.00  0.00    +0.000 A 
ATOM     26  C   UNL     1       2.733   2.997  17.317  0.00  0.00    +0.000 A 
ENDBRANCH  20  21
ENDBRANCH   2  16
TORSDOF 4
ENDMDL
MODEL 8
REMARK VINA RESULT:      -7.5      2.200      3.856
REMARK  Name = 
REMARK  4 active torsions:
REMARK  status: ('A' for Active; 'I' for Inactive)
REMARK    1  A    between atoms: C_2  and  C_4
REMARK    2  A    between atoms: C_7  and  N_8
REMARK    3  A    between atoms: C_9  and  C_11
REMARK    4  A    between atoms: N_15  and  C_16
REMARK                            x       y       z     vdW  Elec       q    Type
REMARK                         _______ _______ _______ _____ _____    ______ ____
ROOT
ATOM      1  N   UNL     1       3.083   6.565  17.556  0.00  0.00    +0.000 N 
ATOM      2  C   UNL     1       4.441   6.574  17.256  0.00  0.00    +0.000 C 
ATOM      3  O   UNL     1       5.226   7.412  17.684  0.00  0.00    +0.000 OA
ATOM      4  H   UNL     1       2.535   5.772  17.256  0.00  0.00    +0.000 HD
ENDROOT
BRANCH   1   8
ATOM      5  C   UNL     1       1.087   9.407  19.982  0.00  0.00    +0.000 A 
ATOM      6  C   UNL     1       1.543   8.217  20.542  0.00  0.00    +0.000 A 
ATOM      7  C   UNL     1       2.230   7.294  19.753  0.00  0.00    +0.000 A 
ATOM      8  C   UNL     1       2.445   7.517  18.390  0.00  0.00    +0.000 A 
ATOM      9  C   UNL     1       1.992   8.718  17.831  0.00  0.00    +0.000 A 
ATOM     10  C   UNL     1       1.301   9.652  18.620  0.00  0.00    +0.000 A 
BRANCH   5  12
ATOM     11  N   UNL     1      -0.793  10.919  20.278  0.00  0.00    +0.000 N 
ATOM     12  C   UNL     1       0.356  10.398  20.810  0.00  0.00    +0.000 C 
ATOM     13  O   UNL     1       0.745  10.717  21.927  0.00  0.00    +0.000 OA
ATOM     14  H   UNL     1      -1.330  11.542  20.864  0.00  0.00    +0.000 HD
ATOM     15  H   UNL     1      -1.252  10.517  19.473  0.00  0.00    +0.000 HD
ENDBRANCH   5  12
ENDBRANCH   1   8
BRANCH   2  16
ATOM     16  C   UNL     1       4.915   5.516  16.398  0.00  0.00    +0.000 A 
ATOM     17  C   UNL     1       5.731   5.580  15.284  0.00  0.00    +0.000 A 
ATOM     18  N   UNL     1       6.193   4.342  14.932  0.00  0.00    +0.000 NA
ATOM     19  C   UNL     1       5.666   3.520  15.812  0.00  0.00    +0.000 A 
ATOM     20  N   UNL     1       4.800   4.154  16.676  0.00  0.00    +0.000 N 
BRANCH  20  21
ATOM     21  C   UNL     1       3.976   3.510  17.645  0.00  0.00    +0.000 A 
ATOM     22  C   UNL     1       2.697   3.058  17.296  0.00  0.00    +0.000 A 
ATOM     23  C   UNL     1       1.927   2.357  18.230  0.00  0.00    +0.000 A 
ATOM     24  C   UNL     1       2.415   2.126  19.516  0.00  0.00    +0.000 A 
ATOM     25  C   UNL     1       3.668   2.608  19.880  0.00  0.00    +0.000 A 
ATOM     26  C   UNL     1       4.443   3.307  18.953  0.00  0.00    +0.000 A 
ENDBRANCH  20  21
ENDBRANCH   2  16
TORSDOF 4
ENDMDL
MODEL 9
REMARK VINA RESULT:      -7.5      0.987      1.709
REMARK  Name = 
REMARK  4 active torsions:
REMARK  status: ('A' for Active; 'I' for Inactive)
REMARK    1  A    between atoms: C_2  and  C_4
REMARK    2  A    between atoms: C_7  and  N_8
REMARK    3  A    between atoms: C_9  and  C_11
REMARK    4  A    between atoms: N_15  and  C_16
REMARK                            x       y       z     vdW  Elec       q    Type
REMARK                         _______ _______ _______ _____ _____    ______ ____
ROOT
ATOM      1  N   UNL     1       2.718   5.980  19.208  0.00  0.00    +0.000 N 
ATOM      2  C   UNL     1       2.195   4.948  18.437  0.00  0.00    +0.000 C 
ATOM      3  O   UNL     1       1.286   5.098  17.629  0.00  0.00    +0.000 OA
ATOM      4  H   UNL     1       3.542   5.791  19.760  0.00  0.00    +0.000 HD
ENDROOT
BRANCH   1   8
ATOM      5  C   UNL     1       1.314   9.970  18.958  0.00  0.00    +0.000 A 
ATOM      6  C   UNL     1       1.103   9.233  20.121  0.00  0.00    +0.000 A 
ATOM      7  C   UNL     1       1.593   7.930  20.218  0.00  0.00    +0.000 A 
ATOM      8  C   UNL     1       2.268   7.323  19.155  0.00  0.00    +0.000 A 
ATOM      9  C   UNL     1       2.485   8.069  17.990  0.00  0.00    +0.000 A 
ATOM     10  C   UNL     1       1.996   9.381  17.887  0.00  0.00    +0.000 A 
BRANCH   5  12
ATOM     11  N   UNL     1       1.544  12.231  18.097  0.00  0.00    +0.000 N 
ATOM     12  C   UNL     1       0.799  11.356  18.842  0.00  0.00    +0.000 C 
ATOM     13  O   UNL     1      -0.255  11.698  19.364  0.00  0.00    +0.000 OA
ATOM     14  H   UNL     1       1.164  13.156  17.958  0.00  0.00    +0.000 HD
ATOM     15  H   UNL     1       2.284  11.928  17.480  0.00  0.00    +0.000 HD
ENDBRANCH   5  12
ENDBRANCH   1   8
BRANCH   2  16
ATOM     16  C   UNL     1       2.789   3.648  18.619  0.00  0.00    +0.000 A 
ATOM     17  C   UNL     1       2.255   2.503  19.180  0.00  0.00    +0.000 A 
ATOM     18  N   UNL     1       3.017   1.404  18.894  0.00  0.00    +0.000 NA
ATOM     19  C   UNL     1       4.014   1.861  18.170  0.00  0.00    +0.000 A 
ATOM     20  N   UNL     1       3.990   3.233  18.043  0.00  0.00    +0.000 N 
BRANCH  20  21
ATOM     21  C   UNL     1       5.007   4.027  17.436  0.00  0.00    +0.000 A 
ATOM     22  C   UNL     1       4.979   4.277  16.057  0.00  0.00    +0.000 A 
ATOM     23  C   UNL     1       5.935   5.122  15.484  0.00  0.00    +0.000 A 
ATOM     24  C   UNL     1       6.931   5.699  16.272  0.00  0.00    +0.000 A 
ATOM     25  C   UNL     1       6.986   5.421  17.634  0.00  0.00    +0.000 A 
ATOM     26  C   UNL     1       6.035   4.581  18.214  0.00  0.00    +0.000 A 
ENDBRANCH  20  21
ENDBRANCH   2  16
TORSDOF 4
ENDMDL
