MODEL 1
REMARK VINA RESULT:      -9.1      0.000      0.000
REMARK  Name = 
REMARK  8 active torsions:
REMARK  status: ('A' for Active; 'I' for Inactive)
REMARK    1  A    between atoms: C_2  and  C_3
REMARK    2  A    between atoms: C_3  and  C_4
REMARK    3  A    between atoms: C_4  and  C_5
REMARK    4  A    between atoms: N_14  and  C_15
REMARK    5  A    between atoms: C_19  and  C_20
REMARK    6  A    between atoms: C_20  and  N_21
REMARK    7  A    between atoms: C_24  and  C_25
REMARK    8  A    between atoms: N_27  and  C_28
REMARK                            x       y       z     vdW  Elec       q    Type
REMARK                         _______ _______ _______ _____ _____    ______ ____
ROOT
ATOM      1  C   UNL     1       2.366   6.946  19.608  0.00  0.00    +0.000 A 
ATOM      2  C   UNL     1       2.585   7.308  18.282  0.00  0.00    +0.000 A 
ATOM      3  C   UNL     1       2.112   8.531  17.801  0.00  0.00    +0.000 A 
ATOM      4  C   UNL     1       1.423   9.403  18.646  0.00  0.00    +0.000 A 
ATOM      5  C   UNL     1       1.198   9.065  19.988  0.00  0.00    +0.000 A 
ATOM      6  C   UNL     1       1.667   7.826  20.451  0.00  0.00    +0.000 A 
ENDROOT
BRANCH   1   9
ATOM      7  O   UNL     1       0.794   4.479  20.172  0.00  0.00    +0.000 OA
ATOM      8  C   UNL     1       1.985   4.614  20.442  0.00  0.00    +0.000 C 
ATOM      9  N   UNL     1       2.765   5.710  20.149  0.00  0.00    +0.000 N 
ATOM     10  H   UNL     1       3.776   5.576  20.232  0.00  0.00    +0.000 HD
BRANCH   8  11
ATOM     11  C   UNL     1       2.719   3.518  21.204  0.00  0.00    +0.000 C 
BRANCH  11  12
ATOM     12  C   UNL     1       3.588   2.603  20.346  0.00  0.00    +0.000 C 
BRANCH  12  13
ATOM     13  C   UNL     1       4.266   3.287  19.204  0.00  0.00    +0.000 A 
ATOM     14  N   UNL     1       3.776   3.479  17.995  0.00  0.00    +0.000 NA
ATOM     15  C   UNL     1       4.804   3.997  17.247  0.00  0.00    +0.000 A 
ATOM     16  C   UNL     1       4.851   4.312  15.881  0.00  0.00    +0.000 A 
ATOM     17  C   UNL     1       6.044   4.819  15.353  0.00  0.00    +0.000 A 
ATOM     18  C   UNL     1       7.159   5.022  16.171  0.00  0.00    +0.000 A 
ATOM     19  C   UNL     1       7.129   4.709  17.536  0.00  0.00    +0.000 A 
ATOM     20  C   UNL     1       5.933   4.190  18.035  0.00  0.00    +0.000 A 
ATOM     21  N   UNL     1       5.560   3.744  19.276  0.00  0.00    +0.000 N 
ATOM     22  H   UNL     1       6.156   3.705  20.091  0.00  0.00    +0.000 HD
ENDBRANCH  12  13
ENDBRANCH  11  12
ENDBRANCH   8  11
ENDBRANCH   1   9
BRANCH   5  23
ATOM     23  C   UNL     1       0.396   9.982  20.891  0.00  0.00    +0.000 C 
BRANCH  23  24
ATOM     24  N   UNL     1       0.096  11.332  20.345  0.00  0.00    +0.000 NA
ATOM     25  C   UNL     1      -1.353  11.601  20.421  0.00  0.00    +0.000 C 
ATOM     26  C   UNL     1      -1.735  13.058  20.122  0.00  0.00    +0.000 C 
ATOM     27  C   UNL     1      -0.939  14.074  20.952  0.00  0.00    +0.000 C 
ATOM     28  C   UNL     1       0.548  13.774  20.764  0.00  0.00    +0.000 C 
ATOM     29  C   UNL     1       0.882  12.320  21.105  0.00  0.00    +0.000 C 
BRANCH  27  30
ATOM     30  C   UNL     1      -1.361  14.098  22.431  0.00  0.00    +0.000 C 
ATOM     31  O   UNL     1      -0.560  14.302  23.344  0.00  0.00    +0.000 OA
ATOM     32  N   UNL     1      -2.703  13.871  22.661  0.00  0.00    +0.000 N 
ATOM     33  H   UNL     1      -3.265  13.502  21.903  0.00  0.00    +0.000 HD
BRANCH  32  34
ATOM     34  C   UNL     1      -3.280  13.879  24.010  0.00  0.00    +0.000 C 
ATOM     35  C   UNL     1      -3.908  15.239  24.339  0.00  0.00    +0.000 C 
ATOM     36  C   UNL     1      -5.224  15.480  23.597  0.00  0.00    +0.000 C 
ATOM     37  C   UNL     1      -6.222  14.355  23.848  0.00  0.00    +0.000 C 
ATOM     38  C   UNL     1      -5.630  12.986  23.525  0.00  0.00    +0.000 C 
ATOM     39  C   UNL     1      -4.295  12.748  24.232  0.00  0.00    +0.000 C 
ENDBRANCH  32  34
ENDBRANCH  27  30
ENDBRANCH  23  24
ENDBRANCH   5  23
TORSDOF 8
ENDMDL
MODEL 2
REMARK VINA RESULT:      -9.0      1.734      2.213
REMARK  Name = 
REMARK  8 active torsions:
REMARK  status: ('A' for Active; 'I' for Inactive)
REMARK    1  A    between atoms: C_2  and  C_3
REMARK    2  A    between atoms: C_3  and  C_4
REMARK    3  A    between atoms: C_4  and  C_5
REMARK    4  A    between atoms: N_14  and  C_15
REMARK    5  A    between atoms: C_19  and  C_20
REMARK    6  A    between atoms: C_20  and  N_21
REMARK    7  A    between atoms: C_24  and  C_25
REMARK    8  A    between atoms: N_27  and  C_28
REMARK                            x       y       z     vdW  Elec       q    Type
REMARK                         _______ _______ _______ _____ _____    ______ ____
ROOT
ATOM      1  C   UNL     1       2.439   6.783  19.614  0.00  0.00    +0.000 A 
ATOM      2  C   UNL     1       2.777   7.194  18.327  0.00  0.00    +0.000 A 
ATOM      3  C   UNL     1       2.348   8.435  17.852  0.00  0.00    +0.000 A 
ATOM      4  C   UNL     1       1.584   9.275  18.663  0.00  0.00    +0.000 A 
ATOM      5  C   UNL     1       1.239   8.889  19.966  0.00  0.00    +0.000 A 
ATOM      6  C   UNL     1       1.666   7.632  20.422  0.00  0.00    +0.000 A 
ENDROOT
BRANCH   1   9
ATOM      7  O   UNL     1       1.301   4.078  19.101  0.00  0.00    +0.000 OA
ATOM      8  C   UNL     1       2.195   4.308  19.913  0.00  0.00    +0.000 C 
ATOM      9  N   UNL     1       2.790   5.527  20.143  0.00  0.00    +0.000 N 
ATOM     10  H   UNL     1       3.662   5.507  20.677  0.00  0.00    +0.000 HD
BRANCH   8  11
ATOM     11  C   UNL     1       2.712   3.188  20.808  0.00  0.00    +0.000 C 
BRANCH  11  12
ATOM     12  C   UNL     1       3.936   2.448  20.278  0.00  0.00    +0.000 C 
BRANCH  12  13
ATOM     13  C   UNL     1       4.673   3.169  19.196  0.00  0.00    +0.000 A 
ATOM     14  N   UNL     1       5.674   4.013  19.348  0.00  0.00    +0.000 NA
ATOM     15  C   UNL     1       5.917   4.542  18.105  0.00  0.00    +0.000 A 
ATOM     16  C   UNL     1       6.821   5.540  17.714  0.00  0.00    +0.000 A 
ATOM     17  C   UNL     1       6.862   5.916  16.366  0.00  0.00    +0.000 A 
ATOM     18  C   UNL     1       6.030   5.298  15.427  0.00  0.00    +0.000 A 
ATOM     19  C   UNL     1       5.119   4.303  15.802  0.00  0.00    +0.000 A 
ATOM     20  C   UNL     1       5.087   3.958  17.155  0.00  0.00    +0.000 A 
ATOM     21  N   UNL     1       4.317   3.080  17.871  0.00  0.00    +0.000 N 
ATOM     22  H   UNL     1       3.574   2.507  17.497  0.00  0.00    +0.000 HD
ENDBRANCH  12  13
ENDBRANCH  11  12
ENDBRANCH   8  11
ENDBRANCH   1   9
BRANCH   5  23
ATOM     23  C   UNL     1       0.356   9.772  20.825  0.00  0.00    +0.000 C 
BRANCH  23  24
ATOM     24  N   UNL     1       0.041  11.115  20.269  0.00  0.00    +0.000 NA
ATOM     25  C   UNL     1      -1.175  11.049  19.437  0.00  0.00    +0.000 C 
ATOM     26  C   UNL     1      -1.728  12.421  19.026  0.00  0.00    +0.000 C 
ATOM     27  C   UNL     1      -1.920  13.374  20.213  0.00  0.00    +0.000 C 
ATOM     28  C   UNL     1      -0.600  13.444  20.980  0.00  0.00    +0.000 C 
ATOM     29  C   UNL     1      -0.109  12.055  21.393  0.00  0.00    +0.000 C 
BRANCH  27  30
ATOM     30  C   UNL     1      -3.110  12.984  21.107  0.00  0.00    +0.000 C 
ATOM     31  O   UNL     1      -2.995  12.803  22.320  0.00  0.00    +0.000 OA
ATOM     32  N   UNL     1      -4.316  12.846  20.450  0.00  0.00    +0.000 N 
ATOM     33  H   UNL     1      -4.308  12.795  19.438  0.00  0.00    +0.000 HD
BRANCH  32  34
ATOM     34  C   UNL     1      -5.556  12.497  21.152  0.00  0.00    +0.000 C 
ATOM     35  C   UNL     1      -6.292  13.752  21.637  0.00  0.00    +0.000 C 
ATOM     36  C   UNL     1      -6.960  14.526  20.500  0.00  0.00    +0.000 C 
ATOM     37  C   UNL     1      -7.897  13.636  19.692  0.00  0.00    +0.000 C 
ATOM     38  C   UNL     1      -7.194  12.379  19.187  0.00  0.00    +0.000 C 
ATOM     39  C   UNL     1      -6.491  11.615  20.311  0.00  0.00    +0.000 C 
ENDBRANCH  32  34
ENDBRANCH  27  30
ENDBRANCH  23  24
ENDBRANCH   5  23
TORSDOF 8
ENDMDL
MODEL 3
REMARK VINA RESULT:      -9.0      0.441      1.016
REMARK  Name = 
REMARK  8 active torsions:
REMARK  status: ('A' for Active; 'I' for Inactive)
REMARK    1  A    between atoms: C_2  and  C_3
REMARK    2  A    between atoms: C_3  and  C_4
REMARK    3  A    between atoms: C_4  and  C_5
REMARK    4  A    between atoms: N_14  and  C_15
REMARK    5  A    between atoms: C_19  and  C_20
REMARK    6  A    between atoms: C_20  and  N_21
REMARK    7  A    between atoms: C_24  and  C_25
REMARK    8  A    between atoms: N_27  and  C_28
REMARK                            x       y       z     vdW  Elec       q    Type
REMARK                         _______ _______ _______ _____ _____    ______ ____
ROOT
ATOM      1  C   UNL     1       2.247   7.055  19.585  0.00  0.00    +0.000 A 
ATOM      2  C   UNL     1       2.489   7.439  18.269  0.00  0.00    +0.000 A 
ATOM      3  C   UNL     1       2.001   8.658  17.793  0.00  0.00    +0.000 A 
ATOM      4  C   UNL     1       1.275   9.504  18.633  0.00  0.00    +0.000 A 
ATOM      5  C   UNL     1       1.027   9.145  19.965  0.00  0.00    +0.000 A 
ATOM      6  C   UNL     1       1.511   7.910  20.423  0.00  0.00    +0.000 A 
ENDROOT
BRANCH   1   9
ATOM      7  O   UNL     1       1.061   4.335  19.322  0.00  0.00    +0.000 OA
ATOM      8  C   UNL     1       2.044   4.595  20.013  0.00  0.00    +0.000 C 
ATOM      9  N   UNL     1       2.660   5.821  20.121  0.00  0.00    +0.000 N 
ATOM     10  H   UNL     1       3.590   5.820  20.549  0.00  0.00    +0.000 HD
BRANCH   8  11
ATOM     11  C   UNL     1       2.665   3.512  20.887  0.00  0.00    +0.000 C 
BRANCH  11  12
ATOM     12  C   UNL     1       3.663   2.600  20.177  0.00  0.00    +0.000 C 
BRANCH  12  13
ATOM     13  C   UNL     1       4.490   3.283  19.136  0.00  0.00    +0.000 A 
ATOM     14  N   UNL     1       5.456   4.156  19.342  0.00  0.00    +0.000 NA
ATOM     15  C   UNL     1       5.812   4.627  18.102  0.00  0.00    +0.000 A 
ATOM     16  C   UNL     1       6.732   5.624  17.750  0.00  0.00    +0.000 A 
ATOM     17  C   UNL     1       6.900   5.932  16.395  0.00  0.00    +0.000 A 
ATOM     18  C   UNL     1       6.177   5.248  15.413  0.00  0.00    +0.000 A 
ATOM     19  C   UNL     1       5.251   4.252  15.748  0.00  0.00    +0.000 A 
ATOM     20  C   UNL     1       5.091   3.976  17.107  0.00  0.00    +0.000 A 
ATOM     21  N   UNL     1       4.269   3.117  17.789  0.00  0.00    +0.000 N 
ATOM     22  H   UNL     1       3.578   2.510  17.374  0.00  0.00    +0.000 HD
ENDBRANCH  12  13
ENDBRANCH  11  12
ENDBRANCH   8  11
ENDBRANCH   1   9
BRANCH   5  23
ATOM     23  C   UNL     1       0.185  10.032  20.859  0.00  0.00    +0.000 C 
BRANCH  23  24
ATOM     24  N   UNL     1      -0.098  11.398  20.341  0.00  0.00    +0.000 NA
ATOM     25  C   UNL     1      -1.546  11.672  20.394  0.00  0.00    +0.000 C 
ATOM     26  C   UNL     1      -1.915  13.138  20.123  0.00  0.00    +0.000 C 
ATOM     27  C   UNL     1      -1.133  14.128  20.994  0.00  0.00    +0.000 C 
ATOM     28  C   UNL     1       0.357  13.826  20.831  0.00  0.00    +0.000 C 
ATOM     29  C   UNL     1       0.677  12.362  21.142  0.00  0.00    +0.000 C 
BRANCH  27  30
ATOM     30  C   UNL     1      -1.585  14.119  22.465  0.00  0.00    +0.000 C 
ATOM     31  O   UNL     1      -0.804  13.924  23.396  0.00  0.00    +0.000 OA
ATOM     32  N   UNL     1      -2.934  14.340  22.664  0.00  0.00    +0.000 N 
ATOM     33  H   UNL     1      -3.553  14.279  21.864  0.00  0.00    +0.000 HD
BRANCH  32  34
ATOM     34  C   UNL     1      -3.532  14.383  24.002  0.00  0.00    +0.000 C 
ATOM     35  C   UNL     1      -4.479  15.580  24.150  0.00  0.00    +0.000 C 
ATOM     36  C   UNL     1      -5.794  15.395  23.390  0.00  0.00    +0.000 C 
ATOM     37  C   UNL     1      -6.496  14.104  23.793  0.00  0.00    +0.000 C 
ATOM     38  C   UNL     1      -5.582  12.890  23.652  0.00  0.00    +0.000 C 
ATOM     39  C   UNL     1      -4.249  13.078  24.378  0.00  0.00    +0.000 C 
ENDBRANCH  32  34
ENDBRANCH  27  30
ENDBRANCH  23  24
ENDBRANCH   5  23
TORSDOF 8
ENDMDL
MODEL 4
REMARK VINA RESULT:      -8.7      1.018      1.714
REMARK  Name = 
REMARK  8 active torsions:
REMARK  status: ('A' for Active; 'I' for Inactive)
REMARK    1  A    between atoms: C_2  and  C_3
REMARK    2  A    between atoms: C_3  and  C_4
REMARK    3  A    between atoms: C_4  and  C_5
REMARK    4  A    between atoms: N_14  and  C_15
REMARK    5  A    between atoms: C_19  and  C_20
REMARK    6  A    between atoms: C_20  and  N_21
REMARK    7  A    between atoms: C_24  and  C_25
REMARK    8  A    between atoms: N_27  and  C_28
REMARK                            x       y       z     vdW  Elec       q    Type
REMARK                         _______ _______ _______ _____ _____    ______ ____
ROOT
ATOM      1  C   UNL     1       2.306   7.056  19.681  0.00  0.00    +0.000 A 
ATOM      2  C   UNL     1       2.547   7.442  18.365  0.00  0.00    +0.000 A 
ATOM      3  C   UNL     1       2.097   8.681  17.904  0.00  0.00    +0.000 A 
ATOM      4  C   UNL     1       1.410   9.545  18.759  0.00  0.00    +0.000 A 
ATOM      5  C   UNL     1       1.164   9.185  20.091  0.00  0.00    +0.000 A 
ATOM      6  C   UNL     1       1.610   7.930  20.534  0.00  0.00    +0.000 A 
ENDROOT
BRANCH   1   9
ATOM      7  O   UNL     1       1.344   4.316  19.021  0.00  0.00    +0.000 OA
ATOM      8  C   UNL     1       2.166   4.565  19.900  0.00  0.00    +0.000 C 
ATOM      9  N   UNL     1       2.682   5.805  20.203  0.00  0.00    +0.000 N 
ATOM     10  H   UNL     1       3.515   5.812  20.797  0.00  0.00    +0.000 HD
BRANCH   8  11
ATOM     11  C   UNL     1       2.675   3.447  20.802  0.00  0.00    +0.000 C 
BRANCH  11  12
ATOM     12  C   UNL     1       3.771   2.574  20.197  0.00  0.00    +0.000 C 
BRANCH  12  13
ATOM     13  C   UNL     1       4.573   3.244  19.128  0.00  0.00    +0.000 A 
ATOM     14  N   UNL     1       5.574   4.084  19.301  0.00  0.00    +0.000 NA
ATOM     15  C   UNL     1       5.890   4.560  18.052  0.00  0.00    +0.000 A 
ATOM     16  C   UNL     1       6.824   5.532  17.671  0.00  0.00    +0.000 A 
ATOM     17  C   UNL     1       6.943   5.852  16.314  0.00  0.00    +0.000 A 
ATOM     18  C   UNL     1       6.156   5.205  15.356  0.00  0.00    +0.000 A 
ATOM     19  C   UNL     1       5.214   4.234  15.721  0.00  0.00    +0.000 A 
ATOM     20  C   UNL     1       5.105   3.945  17.082  0.00  0.00    +0.000 A 
ATOM     21  N   UNL     1       4.288   3.104  17.790  0.00  0.00    +0.000 N 
ATOM     22  H   UNL     1       3.559   2.524  17.399  0.00  0.00    +0.000 HD
ENDBRANCH  12  13
ENDBRANCH  11  12
ENDBRANCH   8  11
ENDBRANCH   1   9
BRANCH   5  23
ATOM     23  C   UNL     1       0.364  10.094  21.002  0.00  0.00    +0.000 C 
BRANCH  23  24
ATOM     24  N   UNL     1      -0.071  11.388  20.411  0.00  0.00    +0.000 NA
ATOM     25  C   UNL     1      -1.465  11.289  19.940  0.00  0.00    +0.000 C 
ATOM     26  C   UNL     1      -2.090  12.636  19.548  0.00  0.00    +0.000 C 
ATOM     27  C   UNL     1      -1.949  13.707  20.637  0.00  0.00    +0.000 C 
ATOM     28  C   UNL     1      -0.471  13.799  21.019  0.00  0.00    +0.000 C 
ATOM     29  C   UNL     1       0.095  12.438  21.431  0.00  0.00    +0.000 C 
BRANCH  27  30
ATOM     30  C   UNL     1      -2.863  13.453  21.849  0.00  0.00    +0.000 C 
ATOM     31  O   UNL     1      -3.353  12.349  22.088  0.00  0.00    +0.000 OA
ATOM     32  N   UNL     1      -3.097  14.555  22.646  0.00  0.00    +0.000 N 
ATOM     33  H   UNL     1      -2.849  15.470  22.287  0.00  0.00    +0.000 HD
BRANCH  32  34
ATOM     34  C   UNL     1      -3.930  14.487  23.853  0.00  0.00    +0.000 C 
ATOM     35  C   UNL     1      -3.125  14.856  25.105  0.00  0.00    +0.000 C 
ATOM     36  C   UNL     1      -2.823  16.353  25.198  0.00  0.00    +0.000 C 
ATOM     37  C   UNL     1      -4.097  17.186  25.117  0.00  0.00    +0.000 C 
ATOM     38  C   UNL     1      -4.920  16.849  23.876  0.00  0.00    +0.000 C 
ATOM     39  C   UNL     1      -5.197  15.349  23.753  0.00  0.00    +0.000 C 
ENDBRANCH  32  34
ENDBRANCH  27  30
ENDBRANCH  23  24
ENDBRANCH   5  23
TORSDOF 8
ENDMDL
MODEL 5
REMARK VINA RESULT:      -8.6      1.135      1.727
REMARK  Name = 
REMARK  8 active torsions:
REMARK  status: ('A' for Active; 'I' for Inactive)
REMARK    1  A    between atoms: C_2  and  C_3
REMARK    2  A    between atoms: C_3  and  C_4
REMARK    3  A    between atoms: C_4  and  C_5
REMARK    4  A    between atoms: N_14  and  C_15
REMARK    5  A    between atoms: C_19  and  C_20
REMARK    6  A    between atoms: C_20  and  N_21
REMARK    7  A    between atoms: C_24  and  C_25
REMARK    8  A    between atoms: N_27  and  C_28
REMARK                            x       y       z     vdW  Elec       q    Type
REMARK                         _______ _______ _______ _____ _____    ______ ____
ROOT
ATOM      1  C   UNL     1       2.252   7.152  19.584  0.00  0.00    +0.000 A 
ATOM      2  C   UNL     1       2.450   7.468  18.242  0.00  0.00    +0.000 A 
ATOM      3  C   UNL     1       1.992   8.686  17.734  0.00  0.00    +0.000 A 
ATOM      4  C   UNL     1       1.341   9.597  18.566  0.00  0.00    +0.000 A 
ATOM      5  C   UNL     1       1.138   9.307  19.922  0.00  0.00    +0.000 A 
ATOM      6  C   UNL     1       1.591   8.073  20.414  0.00  0.00    +0.000 A 
ENDROOT
BRANCH   1   9
ATOM      7  O   UNL     1       1.203   4.398  19.150  0.00  0.00    +0.000 OA
ATOM      8  C   UNL     1       2.083   4.681  19.961  0.00  0.00    +0.000 C 
ATOM      9  N   UNL     1       2.638   5.926  20.155  0.00  0.00    +0.000 N 
ATOM     10  H   UNL     1       3.507   5.950  20.695  0.00  0.00    +0.000 HD
BRANCH   8  11
ATOM     11  C   UNL     1       2.628   3.608  20.895  0.00  0.00    +0.000 C 
BRANCH  11  12
ATOM     12  C   UNL     1       3.640   2.655  20.266  0.00  0.00    +0.000 C 
BRANCH  12  13
ATOM     13  C   UNL     1       4.511   3.279  19.224  0.00  0.00    +0.000 A 
ATOM     14  N   UNL     1       5.477   4.155  19.423  0.00  0.00    +0.000 NA
ATOM     15  C   UNL     1       5.882   4.562  18.176  0.00  0.00    +0.000 A 
ATOM     16  C   UNL     1       6.823   5.535  17.810  0.00  0.00    +0.000 A 
ATOM     17  C   UNL     1       7.043   5.775  16.449  0.00  0.00    +0.000 A 
ATOM     18  C   UNL     1       6.351   5.049  15.475  0.00  0.00    +0.000 A 
ATOM     19  C   UNL     1       5.404   4.078  15.823  0.00  0.00    +0.000 A 
ATOM     20  C   UNL     1       5.192   3.869  17.188  0.00  0.00    +0.000 A 
ATOM     21  N   UNL     1       4.338   3.051  17.880  0.00  0.00    +0.000 N 
ATOM     22  H   UNL     1       3.657   2.429  17.469  0.00  0.00    +0.000 HD
ENDBRANCH  12  13
ENDBRANCH  11  12
ENDBRANCH   8  11
ENDBRANCH   1   9
BRANCH   5  23
ATOM     23  C   UNL     1       0.375  10.268  20.812  0.00  0.00    +0.000 C 
BRANCH  23  24
ATOM     24  N   UNL     1       0.022  11.578  20.203  0.00  0.00    +0.000 NA
ATOM     25  C   UNL     1      -1.254  12.069  20.757  0.00  0.00    +0.000 C 
ATOM     26  C   UNL     1      -1.579  13.523  20.387  0.00  0.00    +0.000 C 
ATOM     27  C   UNL     1      -0.432  14.495  20.694  0.00  0.00    +0.000 C 
ATOM     28  C   UNL     1       0.834  13.955  20.028  0.00  0.00    +0.000 C 
ATOM     29  C   UNL     1       1.130  12.515  20.454  0.00  0.00    +0.000 C 
BRANCH  27  30
ATOM     30  C   UNL     1      -0.251  14.750  22.200  0.00  0.00    +0.000 C 
ATOM     31  O   UNL     1       0.858  14.853  22.726  0.00  0.00    +0.000 OA
ATOM     32  N   UNL     1      -1.424  14.850  22.922  0.00  0.00    +0.000 N 
ATOM     33  H   UNL     1      -2.286  14.547  22.483  0.00  0.00    +0.000 HD
BRANCH  32  34
ATOM     34  C   UNL     1      -1.437  15.112  24.365  0.00  0.00    +0.000 C 
ATOM     35  C   UNL     1      -1.102  16.577  24.668  0.00  0.00    +0.000 C 
ATOM     36  C   UNL     1      -2.245  17.532  24.319  0.00  0.00    +0.000 C 
ATOM     37  C   UNL     1      -3.542  17.127  25.009  0.00  0.00    +0.000 C 
ATOM     38  C   UNL     1      -3.909  15.673  24.722  0.00  0.00    +0.000 C 
ATOM     39  C   UNL     1      -2.760  14.712  25.033  0.00  0.00    +0.000 C 
ENDBRANCH  32  34
ENDBRANCH  27  30
ENDBRANCH  23  24
ENDBRANCH   5  23
TORSDOF 8
ENDMDL
MODEL 6
REMARK VINA RESULT:      -8.4      2.543     11.644
REMARK  Name = 
REMARK  8 active torsions:
REMARK  status: ('A' for Active; 'I' for Inactive)
REMARK    1  A    between atoms: C_2  and  C_3
REMARK    2  A    between atoms: C_3  and  C_4
REMARK    3  A    between atoms: C_4  and  C_5
REMARK    4  A    between atoms: N_14  and  C_15
REMARK    5  A    between atoms: C_19  and  C_20
REMARK    6  A    between atoms: C_20  and  N_21
REMARK    7  A    between atoms: C_24  and  C_25
REMARK    8  A    between atoms: N_27  and  C_28
REMARK                            x       y       z     vdW  Elec       q    Type
REMARK                         _______ _______ _______ _____ _____    ______ ____
ROOT
ATOM      1  C   UNL     1       0.148  10.355  20.621  0.00  0.00    +0.000 A 
ATOM      2  C   UNL     1       0.152   9.958  21.955  0.00  0.00    +0.000 A 
ATOM      3  C   UNL     1       0.854   8.815  22.345  0.00  0.00    +0.000 A 
ATOM      4  C   UNL     1       1.562   8.067  21.403  0.00  0.00    +0.000 A 
ATOM      5  C   UNL     1       1.582   8.451  20.055  0.00  0.00    +0.000 A 
ATOM      6  C   UNL     1       0.859   9.593  19.678  0.00  0.00    +0.000 A 
ENDROOT
BRANCH   1   9
ATOM      7  O   UNL     1       1.072  13.059  19.781  0.00  0.00    +0.000 OA
ATOM      8  C   UNL     1      -0.107  12.714  19.819  0.00  0.00    +0.000 C 
ATOM      9  N   UNL     1      -0.577  11.462  20.144  0.00  0.00    +0.000 N 
ATOM     10  H   UNL     1      -1.556  11.275  19.909  0.00  0.00    +0.000 HD
BRANCH   8  11
ATOM     11  C   UNL     1      -1.204  13.730  19.525  0.00  0.00    +0.000 C 
BRANCH  11  12
ATOM     12  C   UNL     1      -2.270  13.864  20.609  0.00  0.00    +0.000 C 
BRANCH  12  13
ATOM     13  C   UNL     1      -3.569  13.201  20.282  0.00  0.00    +0.000 A 
ATOM     14  N   UNL     1      -4.628  13.110  21.062  0.00  0.00    +0.000 NA
ATOM     15  C   UNL     1      -5.510  12.284  20.410  0.00  0.00    +0.000 A 
ATOM     16  C   UNL     1      -6.755  11.792  20.825  0.00  0.00    +0.000 A 
ATOM     17  C   UNL     1      -7.459  10.939  19.967  0.00  0.00    +0.000 A 
ATOM     18  C   UNL     1      -6.937  10.597  18.715  0.00  0.00    +0.000 A 
ATOM     19  C   UNL     1      -5.692  11.076  18.287  0.00  0.00    +0.000 A 
ATOM     20  C   UNL     1      -5.005  11.912  19.169  0.00  0.00    +0.000 A 
ATOM     21  N   UNL     1      -3.778  12.519  19.106  0.00  0.00    +0.000 N 
ATOM     22  H   UNL     1      -3.115  12.431  18.349  0.00  0.00    +0.000 HD
ENDBRANCH  12  13
ENDBRANCH  11  12
ENDBRANCH   8  11
ENDBRANCH   1   9
BRANCH   5  23
ATOM     23  C   UNL     1       2.297   7.605  19.021  0.00  0.00    +0.000 C 
BRANCH  23  24
ATOM     24  N   UNL     1       2.144   6.133  19.167  0.00  0.00    +0.000 NA
ATOM     25  C   UNL     1       1.832   5.523  17.860  0.00  0.00    +0.000 C 
ATOM     26  C   UNL     1       1.906   3.989  17.852  0.00  0.00    +0.000 C 
ATOM     27  C   UNL     1       3.225   3.445  18.416  0.00  0.00    +0.000 C 
ATOM     28  C   UNL     1       3.441   4.067  19.795  0.00  0.00    +0.000 C 
ATOM     29  C   UNL     1       3.389   5.596  19.743  0.00  0.00    +0.000 C 
BRANCH  27  30
ATOM     30  C   UNL     1       4.416   3.667  17.468  0.00  0.00    +0.000 C 
ATOM     31  O   UNL     1       4.389   3.341  16.281  0.00  0.00    +0.000 OA
ATOM     32  N   UNL     1       5.524   4.255  18.048  0.00  0.00    +0.000 N 
ATOM     33  H   UNL     1       5.568   4.302  19.059  0.00  0.00    +0.000 HD
BRANCH  32  34
ATOM     34  C   UNL     1       6.740   4.557  17.286  0.00  0.00    +0.000 C 
ATOM     35  C   UNL     1       6.554   5.804  16.413  0.00  0.00    +0.000 C 
ATOM     36  C   UNL     1       6.543   7.101  17.223  0.00  0.00    +0.000 C 
ATOM     37  C   UNL     1       7.793   7.233  18.084  0.00  0.00    +0.000 C 
ATOM     38  C   UNL     1       8.005   6.010  18.973  0.00  0.00    +0.000 C 
ATOM     39  C   UNL     1       7.982   4.703  18.178  0.00  0.00    +0.000 C 
ENDBRANCH  32  34
ENDBRANCH  27  30
ENDBRANCH  23  24
ENDBRANCH   5  23
TORSDOF 8
ENDMDL
MODEL 7
REMARK VINA RESULT:      -8.4      1.102      1.864
REMARK  Name = 
REMARK  8 active torsions:
REMARK  status: ('A' for Active; 'I' for Inactive)
REMARK    1  A    between atoms: C_2  and  C_3
REMARK    2  A    between atoms: C_3  and  C_4
REMARK    3  A    between atoms: C_4  and  C_5
REMARK    4  A    between atoms: N_14  and  C_15
REMARK    5  A    between atoms: C_19  and  C_20
REMARK    6  A    between atoms: C_20  and  N_21
REMARK    7  A    between atoms: C_24  and  C_25
REMARK    8  A    between atoms: N_27  and  C_28
REMARK                            x       y       z     vdW  Elec       q    Type
REMARK                         _______ _______ _______ _____ _____    ______ ____
ROOT
ATOM      1  C   UNL     1       2.292   7.260  19.462  0.00  0.00    +0.000 A 
ATOM      2  C   UNL     1       2.872   7.724  18.284  0.00  0.00    +0.000 A 
ATOM      3  C   UNL     1       2.427   8.914  17.704  0.00  0.00    +0.000 A 
ATOM      4  C   UNL     1       1.404   9.652  18.302  0.00  0.00    +0.000 A 
ATOM      5  C   UNL     1       0.811   9.212  19.494  0.00  0.00    +0.000 A 
ATOM      6  C   UNL     1       1.259   8.006  20.056  0.00  0.00    +0.000 A 
ENDROOT
BRANCH   1   9
ATOM      7  O   UNL     1       1.413   4.471  18.897  0.00  0.00    +0.000 OA
ATOM      8  C   UNL     1       2.172   4.783  19.812  0.00  0.00    +0.000 C 
ATOM      9  N   UNL     1       2.650   6.047  20.076  0.00  0.00    +0.000 N 
ATOM     10  H   UNL     1       3.442   6.101  20.721  0.00  0.00    +0.000 HD
BRANCH   8  11
ATOM     11  C   UNL     1       2.636   3.726  20.806  0.00  0.00    +0.000 C 
BRANCH  11  12
ATOM     12  C   UNL     1       3.727   2.790  20.294  0.00  0.00    +0.000 C 
BRANCH  12  13
ATOM     13  C   UNL     1       4.575   3.367  19.207  0.00  0.00    +0.000 A 
ATOM     14  N   UNL     1       5.586   4.200  19.351  0.00  0.00    +0.000 NA
ATOM     15  C   UNL     1       5.949   4.579  18.082  0.00  0.00    +0.000 A 
ATOM     16  C   UNL     1       6.914   5.506  17.663  0.00  0.00    +0.000 A 
ATOM     17  C   UNL     1       7.080   5.724  16.290  0.00  0.00    +0.000 A 
ATOM     18  C   UNL     1       6.311   5.022  15.357  0.00  0.00    +0.000 A 
ATOM     19  C   UNL     1       5.341   4.096  15.759  0.00  0.00    +0.000 A 
ATOM     20  C   UNL     1       5.184   3.908  17.134  0.00  0.00    +0.000 A 
ATOM     21  N   UNL     1       4.329   3.134  17.874  0.00  0.00    +0.000 N 
ATOM     22  H   UNL     1       3.602   2.540  17.502  0.00  0.00    +0.000 HD
ENDBRANCH  12  13
ENDBRANCH  11  12
ENDBRANCH   8  11
ENDBRANCH   1   9
BRANCH   5  23
ATOM     23  C   UNL     1      -0.342   9.978  20.111  0.00  0.00    +0.000 C 
BRANCH  23  24
ATOM     24  N   UNL     1       0.028  11.025  21.101  0.00  0.00    +0.000 NA
ATOM     25  C   UNL     1       0.367  12.282  20.408  0.00  0.00    +0.000 C 
ATOM     26  C   UNL     1       0.515  13.491  21.344  0.00  0.00    +0.000 C 
ATOM     27  C   UNL     1      -0.686  13.681  22.279  0.00  0.00    +0.000 C 
ATOM     28  C   UNL     1      -0.928  12.360  23.010  0.00  0.00    +0.000 C 
ATOM     29  C   UNL     1      -1.099  11.194  22.034  0.00  0.00    +0.000 C 
BRANCH  27  30
ATOM     30  C   UNL     1      -1.938  14.196  21.549  0.00  0.00    +0.000 C 
ATOM     31  O   UNL     1      -1.877  14.816  20.486  0.00  0.00    +0.000 OA
ATOM     32  N   UNL     1      -3.137  13.917  22.175  0.00  0.00    +0.000 N 
ATOM     33  H   UNL     1      -3.114  13.600  23.137  0.00  0.00    +0.000 HD
BRANCH  32  34
ATOM     34  C   UNL     1      -4.429  14.318  21.608  0.00  0.00    +0.000 C 
ATOM     35  C   UNL     1      -5.465  13.193  21.735  0.00  0.00    +0.000 C 
ATOM     36  C   UNL     1      -5.966  13.006  23.168  0.00  0.00    +0.000 C 
ATOM     37  C   UNL     1      -6.516  14.307  23.742  0.00  0.00    +0.000 C 
ATOM     38  C   UNL     1      -5.507  15.447  23.638  0.00  0.00    +0.000 C 
ATOM     39  C   UNL     1      -4.971  15.620  22.215  0.00  0.00    +0.000 C 
ENDBRANCH  32  34
ENDBRANCH  27  30
ENDBRANCH  23  24
ENDBRANCH   5  23
TORSDOF 8
ENDMDL
MODEL 8
REMARK VINA RESULT:      -8.4      2.222      2.637
REMARK  Name = 
REMARK  8 active torsions:
REMARK  status: ('A' for Active; 'I' for Inactive)
REMARK    1  A    between atoms: C_2  and  C_3
REMARK    2  A    between atoms: C_3  and  C_4
REMARK    3  A    between atoms: C_4  and  C_5
REMARK    4  A    between atoms: N_14  and  C_15
REMARK    5  A    between atoms: C_19  and  C_20
REMARK    6  A    between atoms: C_20  and  N_21
REMARK    7  A    between atoms: C_24  and  C_25
REMARK    8  A    between atoms: N_27  and  C_28
REMARK                            x       y       z     vdW  Elec       q    Type
REMARK                         _______ _______ _______ _____ _____    ______ ____
ROOT
ATOM      1  C   UNL     1       2.586   6.586  19.415  0.00  0.00    +0.000 A 
ATOM      2  C   UNL     1       3.002   7.105  18.191  0.00  0.00    +0.000 A 
ATOM      3  C   UNL     1       2.580   8.374  17.788  0.00  0.00    +0.000 A 
ATOM      4  C   UNL     1       1.747   9.135  18.609  0.00  0.00    +0.000 A 
ATOM      5  C   UNL     1       1.323   8.639  19.850  0.00  0.00    +0.000 A 
ATOM      6  C   UNL     1       1.743   7.356  20.234  0.00  0.00    +0.000 A 
ENDROOT
BRANCH   1   9
ATOM      7  O   UNL     1       1.067   4.027  19.285  0.00  0.00    +0.000 OA
ATOM      8  C   UNL     1       2.162   4.152  19.829  0.00  0.00    +0.000 C 
ATOM      9  N   UNL     1       2.925   5.297  19.865  0.00  0.00    +0.000 N 
ATOM     10  H   UNL     1       3.900   5.178  20.153  0.00  0.00    +0.000 HD
BRANCH   8  11
ATOM     11  C   UNL     1       2.772   2.978  20.586  0.00  0.00    +0.000 C 
BRANCH  11  12
ATOM     12  C   UNL     1       4.249   2.722  20.302  0.00  0.00    +0.000 C 
BRANCH  12  13
ATOM     13  C   UNL     1       4.756   3.356  19.047  0.00  0.00    +0.000 A 
ATOM     14  N   UNL     1       4.141   3.405  17.883  0.00  0.00    +0.000 NA
ATOM     15  C   UNL     1       5.046   3.935  16.997  0.00  0.00    +0.000 A 
ATOM     16  C   UNL     1       4.939   4.134  15.614  0.00  0.00    +0.000 A 
ATOM     17  C   UNL     1       6.029   4.684  14.930  0.00  0.00    +0.000 A 
ATOM     18  C   UNL     1       7.195   5.042  15.615  0.00  0.00    +0.000 A 
ATOM     19  C   UNL     1       7.320   4.845  16.996  0.00  0.00    +0.000 A 
ATOM     20  C   UNL     1       6.224   4.280  17.651  0.00  0.00    +0.000 A 
ATOM     21  N   UNL     1       6.008   3.915  18.954  0.00  0.00    +0.000 N 
ATOM     22  H   UNL     1       6.679   3.991  19.705  0.00  0.00    +0.000 HD
ENDBRANCH  12  13
ENDBRANCH  11  12
ENDBRANCH   8  11
ENDBRANCH   1   9
BRANCH   5  23
ATOM     23  C   UNL     1       0.367   9.437  20.714  0.00  0.00    +0.000 C 
BRANCH  23  24
ATOM     24  N   UNL     1       0.259  10.887  20.398  0.00  0.00    +0.000 NA
ATOM     25  C   UNL     1      -0.608  11.087  19.221  0.00  0.00    +0.000 C 
ATOM     26  C   UNL     1      -0.989  12.552  18.966  0.00  0.00    +0.000 C 
ATOM     27  C   UNL     1      -1.567  13.249  20.204  0.00  0.00    +0.000 C 
ATOM     28  C   UNL     1      -0.582  13.058  21.357  0.00  0.00    +0.000 C 
ATOM     29  C   UNL     1      -0.259  11.580  21.590  0.00  0.00    +0.000 C 
BRANCH  27  30
ATOM     30  C   UNL     1      -2.989  12.772  20.550  0.00  0.00    +0.000 C 
ATOM     31  O   UNL     1      -3.344  12.533  21.704  0.00  0.00    +0.000 OA
ATOM     32  N   UNL     1      -3.836  12.627  19.469  0.00  0.00    +0.000 N 
ATOM     33  H   UNL     1      -3.434  12.629  18.539  0.00  0.00    +0.000 HD
BRANCH  32  34
ATOM     34  C   UNL     1      -5.232  12.200  19.619  0.00  0.00    +0.000 C 
ATOM     35  C   UNL     1      -6.142  13.385  19.965  0.00  0.00    +0.000 C 
ATOM     36  C   UNL     1      -6.383  14.315  18.776  0.00  0.00    +0.000 C 
ATOM     37  C   UNL     1      -6.929  13.555  17.572  0.00  0.00    +0.000 C 
ATOM     38  C   UNL     1      -6.041  12.372  17.196  0.00  0.00    +0.000 C 
ATOM     39  C   UNL     1      -5.763  11.453  18.388  0.00  0.00    +0.000 C 
ENDBRANCH  32  34
ENDBRANCH  27  30
ENDBRANCH  23  24
ENDBRANCH   5  23
TORSDOF 8
ENDMDL
MODEL 9
REMARK VINA RESULT:      -8.4      5.525      9.194
REMARK  Name = 
REMARK  8 active torsions:
REMARK  status: ('A' for Active; 'I' for Inactive)
REMARK    1  A    between atoms: C_2  and  C_3
REMARK    2  A    between atoms: C_3  and  C_4
REMARK    3  A    between atoms: C_4  and  C_5
REMARK    4  A    between atoms: N_14  and  C_15
REMARK    5  A    between atoms: C_19  and  C_20
REMARK    6  A    between atoms: C_20  and  N_21
REMARK    7  A    between atoms: C_24  and  C_25
REMARK    8  A    between atoms: N_27  and  C_28
REMARK                            x       y       z     vdW  Elec       q    Type
REMARK                         _______ _______ _______ _____ _____    ______ ____
ROOT
ATOM      1  C   UNL     1       1.830  12.360  18.742  0.00  0.00    +0.000 A 
ATOM      2  C   UNL     1       1.019  12.615  19.845  0.00  0.00    +0.000 A 
ATOM      3  C   UNL     1       1.067  13.859  20.478  0.00  0.00    +0.000 A 
ATOM      4  C   UNL     1       1.919  14.858  20.007  0.00  0.00    +0.000 A 
ATOM      5  C   UNL     1       2.737  14.630  18.892  0.00  0.00    +0.000 A 
ATOM      6  C   UNL     1       2.689  13.370  18.277  0.00  0.00    +0.000 A 
ENDROOT
BRANCH   1   9
ATOM      7  O   UNL     1       0.393   9.814  19.312  0.00  0.00    +0.000 OA
ATOM      8  C   UNL     1       1.229   9.949  18.422  0.00  0.00    +0.000 C 
ATOM      9  N   UNL     1       1.876  11.117  18.085  0.00  0.00    +0.000 N 
ATOM     10  H   UNL     1       2.364  11.116  17.186  0.00  0.00    +0.000 HD
BRANCH   8  11
ATOM     11  C   UNL     1       1.665   8.741  17.601  0.00  0.00    +0.000 C 
BRANCH  11  12
ATOM     12  C   UNL     1       2.793   7.916  18.213  0.00  0.00    +0.000 C 
BRANCH  12  13
ATOM     13  C   UNL     1       2.368   6.583  18.740  0.00  0.00    +0.000 A 
ATOM     14  N   UNL     1       2.223   6.244  20.005  0.00  0.00    +0.000 NA
ATOM     15  C   UNL     1       1.981   4.893  20.010  0.00  0.00    +0.000 A 
ATOM     16  C   UNL     1       1.828   4.011  21.090  0.00  0.00    +0.000 A 
ATOM     17  C   UNL     1       1.602   2.656  20.821  0.00  0.00    +0.000 A 
ATOM     18  C   UNL     1       1.514   2.194  19.504  0.00  0.00    +0.000 A 
ATOM     19  C   UNL     1       1.668   3.061  18.414  0.00  0.00    +0.000 A 
ATOM     20  C   UNL     1       1.909   4.405  18.710  0.00  0.00    +0.000 A 
ATOM     21  N   UNL     1       2.144   5.501  17.922  0.00  0.00    +0.000 N 
ATOM     22  H   UNL     1       2.202   5.500  16.914  0.00  0.00    +0.000 HD
ENDBRANCH  12  13
ENDBRANCH  11  12
ENDBRANCH   8  11
ENDBRANCH   1   9
BRANCH   5  23
ATOM     23  C   UNL     1       3.709  15.692  18.417  0.00  0.00    +0.000 C 
BRANCH  23  24
ATOM     24  N   UNL     1       4.779  16.071  19.379  0.00  0.00    +0.000 NA
ATOM     25  C   UNL     1       5.491  14.867  19.848  0.00  0.00    +0.000 C 
ATOM     26  C   UNL     1       6.771  15.166  20.642  0.00  0.00    +0.000 C 
ATOM     27  C   UNL     1       7.723  16.123  19.912  0.00  0.00    +0.000 C 
ATOM     28  C   UNL     1       6.931  17.371  19.523  0.00  0.00    +0.000 C 
ATOM     29  C   UNL     1       5.684  17.021  18.708  0.00  0.00    +0.000 C 
BRANCH  27  30
ATOM     30  C   UNL     1       8.429  15.466  18.713  0.00  0.00    +0.000 C 
ATOM     31  O   UNL     1       8.588  16.047  17.639  0.00  0.00    +0.000 OA
ATOM     32  N   UNL     1       8.866  14.174  18.927  0.00  0.00    +0.000 N 
ATOM     33  H   UNL     1       8.522  13.679  19.741  0.00  0.00    +0.000 HD
BRANCH  32  34
ATOM     34  C   UNL     1       9.575  13.406  17.897  0.00  0.00    +0.000 C 
ATOM     35  C   UNL     1      11.084  13.675  17.943  0.00  0.00    +0.000 C 
ATOM     36  C   UNL     1      11.770  13.016  19.141  0.00  0.00    +0.000 C 
ATOM     37  C   UNL     1      11.493  11.517  19.188  0.00  0.00    +0.000 C 
ATOM     38  C   UNL     1       9.998  11.213  19.151  0.00  0.00    +0.000 C 
ATOM     39  C   UNL     1       9.294  11.898  17.978  0.00  0.00    +0.000 C 
ENDBRANCH  32  34
ENDBRANCH  27  30
ENDBRANCH  23  24
ENDBRANCH   5  23
TORSDOF 8
ENDMDL
