MODEL 1
REMARK VINA RESULT:      -7.9      0.000      0.000
REMARK  Name = 
REMARK  5 active torsions:
REMARK  status: ('A' for Active; 'I' for Inactive)
REMARK    1  A    between atoms: C_2  and  C_3
REMARK    2  A    between atoms: C_5  and  N_6
REMARK    3  A    between atoms: N_6  and  S_7
REMARK    4  A    between atoms: S_7  and  C_10
REMARK    5  A    between atoms: C_15  and  C_16
REMARK                            x       y       z     vdW  Elec       q    Type
REMARK                         _______ _______ _______ _____ _____    ______ ____
ROOT
ATOM      1  S   UNL     1       2.525   2.772  18.083  0.00  0.00    +0.000 S 
ATOM      2  O   UNL     1       2.228   2.950  16.680  0.00  0.00    +0.000 OA
ATOM      3  O   UNL     1       1.863   1.745  18.861  0.00  0.00    +0.000 OA
ENDROOT
BRANCH   1   4
ATOM      4  C   UNL     1       2.224   4.348  18.866  0.00  0.00    +0.000 A 
ATOM      5  C   UNL     1       2.169   5.478  18.028  0.00  0.00    +0.000 A 
ATOM      6  C   UNL     1       2.045   6.757  18.569  0.00  0.00    +0.000 A 
ATOM      7  C   UNL     1       1.971   6.921  19.946  0.00  0.00    +0.000 A 
ATOM      8  C   UNL     1       2.007   5.804  20.780  0.00  0.00    +0.000 A 
ATOM      9  C   UNL     1       2.135   4.493  20.263  0.00  0.00    +0.000 A 
BRANCH   9  10
ATOM     10  C   UNL     1       2.162   3.375  21.278  0.00  0.00    +0.000 C 
ATOM     11  F   UNL     1       2.253   3.725  22.585  0.00  0.00    +0.000 F 
ATOM     12  F   UNL     1       1.078   2.558  21.178  0.00  0.00    +0.000 F 
ATOM     13  F   UNL     1       3.245   2.566  21.071  0.00  0.00    +0.000 F 
ENDBRANCH   9  10
ENDBRANCH   1   4
BRANCH   1  14
ATOM     14  N   UNL     1       4.175   2.546  18.239  0.00  0.00    +0.000 N 
ATOM     15  H   UNL     1       4.484   1.615  18.515  0.00  0.00    +0.000 HD
BRANCH  14  18
ATOM     16  C   UNL     1       6.513   4.983  16.700  0.00  0.00    +0.000 A 
ATOM     17  C   UNL     1       5.615   3.915  16.842  0.00  0.00    +0.000 A 
ATOM     18  C   UNL     1       5.079   3.619  18.094  0.00  0.00    +0.000 A 
ATOM     19  C   UNL     1       5.401   4.396  19.203  0.00  0.00    +0.000 A 
ATOM     20  C   UNL     1       6.301   5.451  19.068  0.00  0.00    +0.000 A 
ATOM     21  C   UNL     1       6.864   5.744  17.822  0.00  0.00    +0.000 A 
ATOM     22 CL   UNL     1       7.977   7.060  17.733  0.00  0.00    +0.000 Cl
BRANCH  16  24
ATOM     23  N   UNL     1       7.507   5.484  14.355  0.00  0.00    +0.000 NA
ATOM     24  C   UNL     1       7.049   5.266  15.400  0.00  0.00    +0.000 C 
ENDBRANCH  16  24
ENDBRANCH  14  18
ENDBRANCH   1  14
TORSDOF 5
ENDMDL
MODEL 2
REMARK VINA RESULT:      -7.8      1.623      2.316
REMARK  Name = 
REMARK  5 active torsions:
REMARK  status: ('A' for Active; 'I' for Inactive)
REMARK    1  A    between atoms: C_2  and  C_3
REMARK    2  A    between atoms: C_5  and  N_6
REMARK    3  A    between atoms: N_6  and  S_7
REMARK    4  A    between atoms: S_7  and  C_10
REMARK    5  A    between atoms: C_15  and  C_16
REMARK                            x       y       z     vdW  Elec       q    Type
REMARK                         _______ _______ _______ _____ _____    ______ ____
ROOT
ATOM      1  S   UNL     1       3.249   3.177  17.810  0.00  0.00    +0.000 S 
ATOM      2  O   UNL     1       2.117   2.568  17.151  0.00  0.00    +0.000 OA
ATOM      3  O   UNL     1       4.153   2.387  18.622  0.00  0.00    +0.000 OA
ENDROOT
BRANCH   1   4
ATOM      4  C   UNL     1       2.594   4.493  18.824  0.00  0.00    +0.000 A 
ATOM      5  C   UNL     1       2.653   5.797  18.296  0.00  0.00    +0.000 A 
ATOM      6  C   UNL     1       2.262   6.892  19.064  0.00  0.00    +0.000 A 
ATOM      7  C   UNL     1       1.806   6.698  20.362  0.00  0.00    +0.000 A 
ATOM      8  C   UNL     1       1.728   5.407  20.884  0.00  0.00    +0.000 A 
ATOM      9  C   UNL     1       2.119   4.275  20.131  0.00  0.00    +0.000 A 
BRANCH   9  10
ATOM     10  C   UNL     1       1.984   2.937  20.818  0.00  0.00    +0.000 C 
ATOM     11  F   UNL     1       1.508   1.905  20.079  0.00  0.00    +0.000 F 
ATOM     12  F   UNL     1       3.158   2.510  21.355  0.00  0.00    +0.000 F 
ATOM     13  F   UNL     1       1.114   3.025  21.870  0.00  0.00    +0.000 F 
ENDBRANCH   9  10
ENDBRANCH   1   4
BRANCH   1  14
ATOM     14  N   UNL     1       4.161   3.968  16.654  0.00  0.00    +0.000 N 
ATOM     15  H   UNL     1       4.030   3.670  15.687  0.00  0.00    +0.000 HD
BRANCH  14  18
ATOM     16  C   UNL     1       6.897   5.675  18.492  0.00  0.00    +0.000 A 
ATOM     17  C   UNL     1       5.931   4.721  18.137  0.00  0.00    +0.000 A 
ATOM     18  C   UNL     1       5.131   4.925  17.013  0.00  0.00    +0.000 A 
ATOM     19  C   UNL     1       5.305   6.055  16.218  0.00  0.00    +0.000 A 
ATOM     20  C   UNL     1       6.255   7.010  16.573  0.00  0.00    +0.000 A 
ATOM     21  C   UNL     1       7.048   6.828  17.711  0.00  0.00    +0.000 A 
ATOM     22 CL   UNL     1       8.198   8.057  18.093  0.00  0.00    +0.000 Cl
BRANCH  16  24
ATOM     23  N   UNL     1       8.346   5.266  20.606  0.00  0.00    +0.000 NA
ATOM     24  C   UNL     1       7.706   5.439  19.652  0.00  0.00    +0.000 C 
ENDBRANCH  16  24
ENDBRANCH  14  18
ENDBRANCH   1  14
TORSDOF 5
ENDMDL
MODEL 3
REMARK VINA RESULT:      -7.6      4.070      6.413
REMARK  Name = 
REMARK  5 active torsions:
REMARK  status: ('A' for Active; 'I' for Inactive)
REMARK    1  A    between atoms: C_2  and  C_3
REMARK    2  A    between atoms: C_5  and  N_6
REMARK    3  A    between atoms: N_6  and  S_7
REMARK    4  A    between atoms: S_7  and  C_10
REMARK    5  A    between atoms: C_15  and  C_16
REMARK                            x       y       z     vdW  Elec       q    Type
REMARK                         _______ _______ _______ _____ _____    ______ ____
ROOT
ATOM      1  S   UNL     1       2.819   5.985  18.486  0.00  0.00    +0.000 S 
ATOM      2  O   UNL     1       3.302   5.699  19.817  0.00  0.00    +0.000 OA
ATOM      3  O   UNL     1       1.510   5.537  18.056  0.00  0.00    +0.000 OA
ENDROOT
BRANCH   1   4
ATOM      4  C   UNL     1       4.034   5.324  17.356  0.00  0.00    +0.000 A 
ATOM      5  C   UNL     1       4.807   6.252  16.633  0.00  0.00    +0.000 A 
ATOM      6  C   UNL     1       5.702   5.822  15.655  0.00  0.00    +0.000 A 
ATOM      7  C   UNL     1       5.837   4.464  15.391  0.00  0.00    +0.000 A 
ATOM      8  C   UNL     1       5.087   3.539  16.116  0.00  0.00    +0.000 A 
ATOM      9  C   UNL     1       4.169   3.944  17.114  0.00  0.00    +0.000 A 
BRANCH   9  10
ATOM     10  C   UNL     1       3.422   2.838  17.822  0.00  0.00    +0.000 C 
ATOM     11  F   UNL     1       3.407   2.868  19.178  0.00  0.00    +0.000 F 
ATOM     12  F   UNL     1       2.122   2.757  17.430  0.00  0.00    +0.000 F 
ATOM     13  F   UNL     1       3.968   1.621  17.520  0.00  0.00    +0.000 F 
ENDBRANCH   9  10
ENDBRANCH   1   4
BRANCH   1  14
ATOM     14  N   UNL     1       2.897   7.638  18.248  0.00  0.00    +0.000 N 
ATOM     15  H   UNL     1       3.723   7.991  17.766  0.00  0.00    +0.000 HD
BRANCH  14  18
ATOM     16  C   UNL     1       0.776   9.472  20.680  0.00  0.00    +0.000 A 
ATOM     17  C   UNL     1       1.751   8.610  20.156  0.00  0.00    +0.000 A 
ATOM     18  C   UNL     1       1.916   8.502  18.776  0.00  0.00    +0.000 A 
ATOM     19  C   UNL     1       1.142   9.268  17.910  0.00  0.00    +0.000 A 
ATOM     20  C   UNL     1       0.164  10.117  18.425  0.00  0.00    +0.000 A 
ATOM     21  C   UNL     1      -0.027  10.217  19.807  0.00  0.00    +0.000 A 
ATOM     22 CL   UNL     1      -1.262  11.282  20.372  0.00  0.00    +0.000 Cl
BRANCH  16  24
ATOM     23  N   UNL     1       0.508   9.611  23.258  0.00  0.00    +0.000 NA
ATOM     24  C   UNL     1       0.628   9.564  22.104  0.00  0.00    +0.000 C 
ENDBRANCH  16  24
ENDBRANCH  14  18
ENDBRANCH   1  14
TORSDOF 5
ENDMDL
MODEL 4
REMARK VINA RESULT:      -7.6      3.020      3.794
REMARK  Name = 
REMARK  5 active torsions:
REMARK  status: ('A' for Active; 'I' for Inactive)
REMARK    1  A    between atoms: C_2  and  C_3
REMARK    2  A    between atoms: C_5  and  N_6
REMARK    3  A    between atoms: N_6  and  S_7
REMARK    4  A    between atoms: S_7  and  C_10
REMARK    5  A    between atoms: C_15  and  C_16
REMARK                            x       y       z     vdW  Elec       q    Type
REMARK                         _______ _______ _______ _____ _____    ______ ____
ROOT
ATOM      1  S   UNL     1       4.826   4.588  18.981  0.00  0.00    +0.000 S 
ATOM      2  O   UNL     1       5.876   4.399  19.955  0.00  0.00    +0.000 OA
ATOM      3  O   UNL     1       4.543   5.899  18.433  0.00  0.00    +0.000 OA
ENDROOT
BRANCH   1   4
ATOM      4  C   UNL     1       3.329   3.960  19.725  0.00  0.00    +0.000 A 
ATOM      5  C   UNL     1       3.435   3.426  21.024  0.00  0.00    +0.000 A 
ATOM      6  C   UNL     1       2.339   2.819  21.634  0.00  0.00    +0.000 A 
ATOM      7  C   UNL     1       1.127   2.743  20.959  0.00  0.00    +0.000 A 
ATOM      8  C   UNL     1       1.011   3.285  19.680  0.00  0.00    +0.000 A 
ATOM      9  C   UNL     1       2.105   3.906  19.032  0.00  0.00    +0.000 A 
BRANCH   9  10
ATOM     10  C   UNL     1       1.840   4.450  17.648  0.00  0.00    +0.000 C 
ATOM     11  F   UNL     1       0.555   4.452  17.218  0.00  0.00    +0.000 F 
ATOM     12  F   UNL     1       2.293   5.724  17.498  0.00  0.00    +0.000 F 
ATOM     13  F   UNL     1       2.508   3.715  16.708  0.00  0.00    +0.000 F 
ENDBRANCH   9  10
ENDBRANCH   1   4
BRANCH   1  14
ATOM     14  N   UNL     1       5.111   3.550  17.701  0.00  0.00    +0.000 N 
ATOM     15  H   UNL     1       4.835   2.577  17.832  0.00  0.00    +0.000 HD
BRANCH  14  18
ATOM     16  C   UNL     1       6.026   4.009  14.133  0.00  0.00    +0.000 A 
ATOM     17  C   UNL     1       5.351   3.576  15.284  0.00  0.00    +0.000 A 
ATOM     18  C   UNL     1       5.790   3.983  16.543  0.00  0.00    +0.000 A 
ATOM     19  C   UNL     1       6.876   4.845  16.669  0.00  0.00    +0.000 A 
ATOM     20  C   UNL     1       7.556   5.268  15.529  0.00  0.00    +0.000 A 
ATOM     21  C   UNL     1       7.140   4.848  14.262  0.00  0.00    +0.000 A 
ATOM     22 CL   UNL     1       8.036   5.407  12.896  0.00  0.00    +0.000 Cl
BRANCH  16  24
ATOM     23  N   UNL     1       5.195   3.216  11.806  0.00  0.00    +0.000 NA
ATOM     24  C   UNL     1       5.553   3.575  12.850  0.00  0.00    +0.000 C 
ENDBRANCH  16  24
ENDBRANCH  14  18
ENDBRANCH   1  14
TORSDOF 5
ENDMDL
MODEL 5
REMARK VINA RESULT:      -7.6      2.742      3.565
REMARK  Name = 
REMARK  5 active torsions:
REMARK  status: ('A' for Active; 'I' for Inactive)
REMARK    1  A    between atoms: C_2  and  C_3
REMARK    2  A    between atoms: C_5  and  N_6
REMARK    3  A    between atoms: N_6  and  S_7
REMARK    4  A    between atoms: S_7  and  C_10
REMARK    5  A    between atoms: C_15  and  C_16
REMARK                            x       y       z     vdW  Elec       q    Type
REMARK                         _______ _______ _______ _____ _____    ______ ____
ROOT
ATOM      1  S   UNL     1       4.402   4.857  18.439  0.00  0.00    +0.000 S 
ATOM      2  O   UNL     1       4.977   5.177  19.726  0.00  0.00    +0.000 OA
ATOM      3  O   UNL     1       4.015   5.902  17.514  0.00  0.00    +0.000 OA
ENDROOT
BRANCH   1   4
ATOM      4  C   UNL     1       2.971   3.841  18.766  0.00  0.00    +0.000 A 
ATOM      5  C   UNL     1       2.883   2.617  18.075  0.00  0.00    +0.000 A 
ATOM      6  C   UNL     1       1.749   1.815  18.191  0.00  0.00    +0.000 A 
ATOM      7  C   UNL     1       0.695   2.223  18.999  0.00  0.00    +0.000 A 
ATOM      8  C   UNL     1       0.783   3.426  19.700  0.00  0.00    +0.000 A 
ATOM      9  C   UNL     1       1.920   4.262  19.601  0.00  0.00    +0.000 A 
BRANCH   9  10
ATOM     10  C   UNL     1       1.883   5.536  20.413  0.00  0.00    +0.000 C 
ATOM     11  F   UNL     1       0.676   5.937  20.884  0.00  0.00    +0.000 F 
ATOM     12  F   UNL     1       2.714   5.487  21.489  0.00  0.00    +0.000 F 
ATOM     13  F   UNL     1       2.320   6.594  19.665  0.00  0.00    +0.000 F 
ENDBRANCH   9  10
ENDBRANCH   1   4
BRANCH   1  14
ATOM     14  N   UNL     1       5.456   3.833  17.640  0.00  0.00    +0.000 N 
ATOM     15  H   UNL     1       5.721   2.978  18.129  0.00  0.00    +0.000 HD
BRANCH  14  18
ATOM     16  C   UNL     1       6.034   4.055  13.980  0.00  0.00    +0.000 A 
ATOM     17  C   UNL     1       5.469   3.700  15.215  0.00  0.00    +0.000 A 
ATOM     18  C   UNL     1       6.022   4.187  16.399  0.00  0.00    +0.000 A 
ATOM     19  C   UNL     1       7.113   5.052  16.366  0.00  0.00    +0.000 A 
ATOM     20  C   UNL     1       7.683   5.398  15.142  0.00  0.00    +0.000 A 
ATOM     21  C   UNL     1       7.152   4.897  13.950  0.00  0.00    +0.000 A 
ATOM     22 CL   UNL     1       7.916   5.362  12.473  0.00  0.00    +0.000 Cl
BRANCH  16  24
ATOM     23  N   UNL     1       4.946   3.139  11.809  0.00  0.00    +0.000 NA
ATOM     24  C   UNL     1       5.444   3.540  12.778  0.00  0.00    +0.000 C 
ENDBRANCH  16  24
ENDBRANCH  14  18
ENDBRANCH   1  14
TORSDOF 5
ENDMDL
MODEL 6
REMARK VINA RESULT:      -7.6      3.109      3.977
REMARK  Name = 
REMARK  5 active torsions:
REMARK  status: ('A' for Active; 'I' for Inactive)
REMARK    1  A    between atoms: C_2  and  C_3
REMARK    2  A    between atoms: C_5  and  N_6
REMARK    3  A    between atoms: N_6  and  S_7
REMARK    4  A    between atoms: S_7  and  C_10
REMARK    5  A    between atoms: C_15  and  C_16
REMARK                            x       y       z     vdW  Elec       q    Type
REMARK                         _______ _______ _______ _____ _____    ______ ____
ROOT
ATOM      1  S   UNL     1       4.841   4.876  18.019  0.00  0.00    +0.000 S 
ATOM      2  O   UNL     1       5.525   5.142  19.263  0.00  0.00    +0.000 OA
ATOM      3  O   UNL     1       4.455   5.957  17.134  0.00  0.00    +0.000 OA
ENDROOT
BRANCH   1   4
ATOM      4  C   UNL     1       3.375   3.947  18.439  0.00  0.00    +0.000 A 
ATOM      5  C   UNL     1       3.295   2.627  17.959  0.00  0.00    +0.000 A 
ATOM      6  C   UNL     1       2.140   1.869  18.151  0.00  0.00    +0.000 A 
ATOM      7  C   UNL     1       1.057   2.420  18.825  0.00  0.00    +0.000 A 
ATOM      8  C   UNL     1       1.137   3.722  19.318  0.00  0.00    +0.000 A 
ATOM      9  C   UNL     1       2.294   4.517  19.138  0.00  0.00    +0.000 A 
BRANCH   9  10
ATOM     10  C   UNL     1       2.245   5.909  19.722  0.00  0.00    +0.000 C 
ATOM     11  F   UNL     1       3.327   6.324  20.426  0.00  0.00    +0.000 F 
ATOM     12  F   UNL     1       2.019   6.860  18.777  0.00  0.00    +0.000 F 
ATOM     13  F   UNL     1       1.207   6.021  20.606  0.00  0.00    +0.000 F 
ENDBRANCH   9  10
ENDBRANCH   1   4
BRANCH   1  14
ATOM     14  N   UNL     1       5.767   3.800  17.136  0.00  0.00    +0.000 N 
ATOM     15  H   UNL     1       6.082   2.962  17.624  0.00  0.00    +0.000 HD
BRANCH  14  18
ATOM     16  C   UNL     1       5.841   3.890  13.426  0.00  0.00    +0.000 A 
ATOM     17  C   UNL     1       5.438   3.599  14.737  0.00  0.00    +0.000 A 
ATOM     18  C   UNL     1       6.171   4.090  15.817  0.00  0.00    +0.000 A 
ATOM     19  C   UNL     1       7.285   4.898  15.605  0.00  0.00    +0.000 A 
ATOM     20  C   UNL     1       7.695   5.181  14.303  0.00  0.00    +0.000 A 
ATOM     21  C   UNL     1       6.981   4.675  13.213  0.00  0.00    +0.000 A 
ATOM     22 CL   UNL     1       7.553   5.060  11.630  0.00  0.00    +0.000 Cl
BRANCH  16  24
ATOM     23  N   UNL     1       4.465   2.942  11.440  0.00  0.00    +0.000 NA
ATOM     24  C   UNL     1       5.068   3.371  12.334  0.00  0.00    +0.000 C 
ENDBRANCH  16  24
ENDBRANCH  14  18
ENDBRANCH   1  14
TORSDOF 5
ENDMDL
MODEL 7
REMARK VINA RESULT:      -7.5      2.924      3.753
REMARK  Name = 
REMARK  5 active torsions:
REMARK  status: ('A' for Active; 'I' for Inactive)
REMARK    1  A    between atoms: C_2  and  C_3
REMARK    2  A    between atoms: C_5  and  N_6
REMARK    3  A    between atoms: N_6  and  S_7
REMARK    4  A    between atoms: S_7  and  C_10
REMARK    5  A    between atoms: C_15  and  C_16
REMARK                            x       y       z     vdW  Elec       q    Type
REMARK                         _______ _______ _______ _____ _____    ______ ____
ROOT
ATOM      1  S   UNL     1       4.291   5.086  18.606  0.00  0.00    +0.000 S 
ATOM      2  O   UNL     1       5.154   5.741  19.562  0.00  0.00    +0.000 OA
ATOM      3  O   UNL     1       3.547   5.852  17.626  0.00  0.00    +0.000 OA
ENDROOT
BRANCH   1   4
ATOM      4  C   UNL     1       3.129   4.118  19.556  0.00  0.00    +0.000 A 
ATOM      5  C   UNL     1       2.909   4.511  20.890  0.00  0.00    +0.000 A 
ATOM      6  C   UNL     1       2.101   3.748  21.732  0.00  0.00    +0.000 A 
ATOM      7  C   UNL     1       1.503   2.590  21.251  0.00  0.00    +0.000 A 
ATOM      8  C   UNL     1       1.702   2.205  19.925  0.00  0.00    +0.000 A 
ATOM      9  C   UNL     1       2.518   2.957  19.047  0.00  0.00    +0.000 A 
BRANCH   9  10
ATOM     10  C   UNL     1       2.649   2.427  17.639  0.00  0.00    +0.000 C 
ATOM     11  F   UNL     1       2.510   3.317  16.625  0.00  0.00    +0.000 F 
ATOM     12  F   UNL     1       3.836   1.796  17.431  0.00  0.00    +0.000 F 
ATOM     13  F   UNL     1       1.689   1.484  17.391  0.00  0.00    +0.000 F 
ENDBRANCH   9  10
ENDBRANCH   1   4
BRANCH   1  14
ATOM     14  N   UNL     1       5.196   3.946  17.784  0.00  0.00    +0.000 N 
ATOM     15  H   UNL     1       5.307   3.039  18.236  0.00  0.00    +0.000 HD
BRANCH  14  18
ATOM     16  C   UNL     1       6.011   4.097  14.166  0.00  0.00    +0.000 A 
ATOM     17  C   UNL     1       5.357   3.780  15.366  0.00  0.00    +0.000 A 
ATOM     18  C   UNL     1       5.853   4.262  16.577  0.00  0.00    +0.000 A 
ATOM     19  C   UNL     1       6.975   5.085  16.604  0.00  0.00    +0.000 A 
ATOM     20  C   UNL     1       7.634   5.394  15.416  0.00  0.00    +0.000 A 
ATOM     21  C   UNL     1       7.160   4.897  14.197  0.00  0.00    +0.000 A 
ATOM     22 CL   UNL     1       8.033   5.314  12.767  0.00  0.00    +0.000 Cl
BRANCH  16  24
ATOM     23  N   UNL     1       5.030   3.195  11.939  0.00  0.00    +0.000 NA
ATOM     24  C   UNL     1       5.480   3.588  12.935  0.00  0.00    +0.000 C 
ENDBRANCH  16  24
ENDBRANCH  14  18
ENDBRANCH   1  14
TORSDOF 5
ENDMDL
MODEL 8
REMARK VINA RESULT:      -7.4      2.574      3.412
REMARK  Name = 
REMARK  5 active torsions:
REMARK  status: ('A' for Active; 'I' for Inactive)
REMARK    1  A    between atoms: C_2  and  C_3
REMARK    2  A    between atoms: C_5  and  N_6
REMARK    3  A    between atoms: N_6  and  S_7
REMARK    4  A    between atoms: S_7  and  C_10
REMARK    5  A    between atoms: C_15  and  C_16
REMARK                            x       y       z     vdW  Elec       q    Type
REMARK                         _______ _______ _______ _____ _____    ______ ____
ROOT
ATOM      1  S   UNL     1       3.699   3.076  17.663  0.00  0.00    +0.000 S 
ATOM      2  O   UNL     1       2.932   3.884  16.743  0.00  0.00    +0.000 OA
ATOM      3  O   UNL     1       3.750   1.634  17.524  0.00  0.00    +0.000 OA
ENDROOT
BRANCH   1   4
ATOM      4  C   UNL     1       3.093   3.459  19.298  0.00  0.00    +0.000 A 
ATOM      5  C   UNL     1       2.875   2.375  20.170  0.00  0.00    +0.000 A 
ATOM      6  C   UNL     1       2.303   2.577  21.425  0.00  0.00    +0.000 A 
ATOM      7  C   UNL     1       1.947   3.859  21.823  0.00  0.00    +0.000 A 
ATOM      8  C   UNL     1       2.176   4.939  20.971  0.00  0.00    +0.000 A 
ATOM      9  C   UNL     1       2.753   4.767  19.691  0.00  0.00    +0.000 A 
BRANCH   9  10
ATOM     10  C   UNL     1       2.945   6.021  18.871  0.00  0.00    +0.000 C 
ATOM     11  F   UNL     1       4.172   6.230  18.335  0.00  0.00    +0.000 F 
ATOM     12  F   UNL     1       2.061   6.107  17.841  0.00  0.00    +0.000 F 
ATOM     13  F   UNL     1       2.719   7.133  19.636  0.00  0.00    +0.000 F 
ENDBRANCH   9  10
ENDBRANCH   1   4
BRANCH   1  14
ATOM     14  N   UNL     1       5.272   3.644  17.667  0.00  0.00    +0.000 N 
ATOM     15  H   UNL     1       5.721   3.736  18.578  0.00  0.00    +0.000 HD
BRANCH  14  18
ATOM     16  C   UNL     1       6.132   3.961  14.070  0.00  0.00    +0.000 A 
ATOM     17  C   UNL     1       5.505   3.538  15.251  0.00  0.00    +0.000 A 
ATOM     18  C   UNL     1       5.902   4.067  16.479  0.00  0.00    +0.000 A 
ATOM     19  C   UNL     1       6.897   5.039  16.541  0.00  0.00    +0.000 A 
ATOM     20  C   UNL     1       7.530   5.453  15.371  0.00  0.00    +0.000 A 
ATOM     21  C   UNL     1       7.157   4.913  14.136  0.00  0.00    +0.000 A 
ATOM     22 CL   UNL     1       7.991   5.469  12.731  0.00  0.00    +0.000 Cl
BRANCH  16  24
ATOM     23  N   UNL     1       5.354   2.922  11.823  0.00  0.00    +0.000 NA
ATOM     24  C   UNL     1       5.703   3.400  12.822  0.00  0.00    +0.000 C 
ENDBRANCH  16  24
ENDBRANCH  14  18
ENDBRANCH   1  14
TORSDOF 5
ENDMDL
MODEL 9
REMARK VINA RESULT:      -7.3      2.760      3.387
REMARK  Name = 
REMARK  5 active torsions:
REMARK  status: ('A' for Active; 'I' for Inactive)
REMARK    1  A    between atoms: C_2  and  C_3
REMARK    2  A    between atoms: C_5  and  N_6
REMARK    3  A    between atoms: N_6  and  S_7
REMARK    4  A    between atoms: S_7  and  C_10
REMARK    5  A    between atoms: C_15  and  C_16
REMARK                            x       y       z     vdW  Elec       q    Type
REMARK                         _______ _______ _______ _____ _____    ______ ____
ROOT
ATOM      1  S   UNL     1       4.718   4.131  17.935  0.00  0.00    +0.000 S 
ATOM      2  O   UNL     1       4.129   2.928  17.394  0.00  0.00    +0.000 OA
ATOM      3  O   UNL     1       5.972   4.088  18.660  0.00  0.00    +0.000 OA
ENDROOT
BRANCH   1   4
ATOM      4  C   UNL     1       3.483   4.862  18.999  0.00  0.00    +0.000 A 
ATOM      5  C   UNL     1       3.145   6.207  18.756  0.00  0.00    +0.000 A 
ATOM      6  C   UNL     1       2.271   6.884  19.605  0.00  0.00    +0.000 A 
ATOM      7  C   UNL     1       1.724   6.226  20.700  0.00  0.00    +0.000 A 
ATOM      8  C   UNL     1       2.041   4.889  20.936  0.00  0.00    +0.000 A 
ATOM      9  C   UNL     1       2.926   4.175  20.093  0.00  0.00    +0.000 A 
BRANCH   9  10
ATOM     10  C   UNL     1       3.183   2.733  20.464  0.00  0.00    +0.000 C 
ATOM     11  F   UNL     1       4.471   2.308  20.448  0.00  0.00    +0.000 F 
ATOM     12  F   UNL     1       2.695   2.420  21.695  0.00  0.00    +0.000 F 
ATOM     13  F   UNL     1       2.542   1.894  19.596  0.00  0.00    +0.000 F 
ENDBRANCH   9  10
ENDBRANCH   1   4
BRANCH   1  14
ATOM     14  N   UNL     1       4.887   5.233  16.689  0.00  0.00    +0.000 N 
ATOM     15  H   UNL     1       4.442   6.142  16.819  0.00  0.00    +0.000 HD
BRANCH  14  18
ATOM     16  C   UNL     1       5.422   3.995  13.230  0.00  0.00    +0.000 A 
ATOM     17  C   UNL     1       4.785   4.342  14.431  0.00  0.00    +0.000 A 
ATOM     18  C   UNL     1       5.525   4.882  15.482  0.00  0.00    +0.000 A 
ATOM     19  C   UNL     1       6.890   5.113  15.338  0.00  0.00    +0.000 A 
ATOM     20  C   UNL     1       7.529   4.760  14.151  0.00  0.00    +0.000 A 
ATOM     21  C   UNL     1       6.801   4.196  13.099  0.00  0.00    +0.000 A 
ATOM     22 CL   UNL     1       7.662   3.776  11.662  0.00  0.00    +0.000 Cl
BRANCH  16  24
ATOM     23  N   UNL     1       4.007   3.014  11.288  0.00  0.00    +0.000 NA
ATOM     24  C   UNL     1       4.635   3.442  12.166  0.00  0.00    +0.000 C 
ENDBRANCH  16  24
ENDBRANCH  14  18
ENDBRANCH   1  14
TORSDOF 5
ENDMDL
