MODEL 1
REMARK VINA RESULT:      -8.2      0.000      0.000
REMARK  Name = 
REMARK  8 active torsions:
REMARK  status: ('A' for Active; 'I' for Inactive)
REMARK    1  A    between atoms: C_1  and  O_2
REMARK    2  A    between atoms: O_2  and  C_3
REMARK    3  A    between atoms: C_6  and  N_7
REMARK    4  A    between atoms: C_11  and  C_12
REMARK    5  A    between atoms: N_13  and  C_14
REMARK    6  A    between atoms: C_14  and  C_15
REMARK    7  A    between atoms: N_25  and  C_26
REMARK    8  A    between atoms: C_26  and  C_27
REMARK                            x       y       z     vdW  Elec       q    Type
REMARK                         _______ _______ _______ _____ _____    ______ ____
ROOT
ATOM      1  N   UNL     1       2.917   7.236  18.581  0.00  0.00    +0.000 N 
ATOM      2  C   UNL     1       2.360   8.454  18.142  0.00  0.00    +0.000 A 
ATOM      3  O   UNL     1       2.547   9.047  17.092  0.00  0.00    +0.000 OA
ATOM      4  C   UNL     1       1.420   8.864  19.237  0.00  0.00    +0.000 A 
ATOM      5  C   UNL     1       0.563   9.898  19.335  0.00  0.00    +0.000 A 
ATOM      6  C   UNL     1       0.328  10.872  18.208  0.00  0.00    +0.000 C 
ATOM      7  N   UNL     1      -0.174  10.056  20.534  0.00  0.00    +0.000 N 
ATOM      8  C   UNL     1      -0.030   9.173  21.613  0.00  0.00    +0.000 A 
ATOM      9  O   UNL     1      -0.686   9.214  22.650  0.00  0.00    +0.000 OA
ATOM     10  C   UNL     1       0.945   8.068  21.466  0.00  0.00    +0.000 A 
ATOM     11  C   UNL     1       1.540   7.875  20.286  0.00  0.00    +0.000 A 
ATOM     12  N   UNL     1       2.320   6.829  19.812  0.00  0.00    +0.000 N 
ENDROOT
BRANCH   1  16
ATOM     13  C   UNL     1       5.300   4.666  16.234  0.00  0.00    +0.000 A 
ATOM     14  C   UNL     1       5.783   5.904  16.659  0.00  0.00    +0.000 A 
ATOM     15  C   UNL     1       4.974   6.764  17.404  0.00  0.00    +0.000 A 
ATOM     16  C   UNL     1       3.677   6.380  17.759  0.00  0.00    +0.000 A 
ATOM     17  C   UNL     1       3.182   5.154  17.305  0.00  0.00    +0.000 A 
ATOM     18  C   UNL     1       3.987   4.305  16.534  0.00  0.00    +0.000 A 
BRANCH  13  20
ATOM     19  C   UNL     1       6.881   4.613  14.477  0.00  0.00    +0.000 C 
ATOM     20  O   UNL     1       6.182   3.919  15.504  0.00  0.00    +0.000 OA
ENDBRANCH  13  20
ENDBRANCH   1  16
BRANCH   7  21
ATOM     21  C   UNL     1      -1.193  11.105  20.694  0.00  0.00    +0.000 C 
BRANCH  21  22
ATOM     22  C   UNL     1      -0.743  12.336  21.468  0.00  0.00    +0.000 A 
ATOM     23  C   UNL     1       0.262  13.170  20.954  0.00  0.00    +0.000 A 
ATOM     24  C   UNL     1       0.602  14.364  21.596  0.00  0.00    +0.000 A 
ATOM     25  C   UNL     1      -0.063  14.744  22.763  0.00  0.00    +0.000 A 
ATOM     26  C   UNL     1      -1.056  13.924  23.291  0.00  0.00    +0.000 A 
ATOM     27  C   UNL     1      -1.390  12.728  22.649  0.00  0.00    +0.000 A 
ENDBRANCH  21  22
ENDBRANCH   7  21
BRANCH  12  28
ATOM     28  C   UNL     1       2.965   5.810  20.648  0.00  0.00    +0.000 C 
BRANCH  28  29
ATOM     29  C   UNL     1       2.506   4.399  20.299  0.00  0.00    +0.000 A 
ATOM     30  C   UNL     1       1.138   4.136  20.107  0.00  0.00    +0.000 A 
ATOM     31  C   UNL     1       0.703   2.872  19.698  0.00  0.00    +0.000 A 
ATOM     32  C   UNL     1       1.620   1.854  19.460  0.00  0.00    +0.000 A 
ATOM     33  C   UNL     1       2.977   2.091  19.656  0.00  0.00    +0.000 A 
ATOM     34  C   UNL     1       3.412   3.346  20.077  0.00  0.00    +0.000 A 
ENDBRANCH  28  29
ENDBRANCH  12  28
TORSDOF 6
ENDMDL
MODEL 2
REMARK VINA RESULT:      -8.0      1.521      2.586
REMARK  Name = 
REMARK  8 active torsions:
REMARK  status: ('A' for Active; 'I' for Inactive)
REMARK    1  A    between atoms: C_1  and  O_2
REMARK    2  A    between atoms: O_2  and  C_3
REMARK    3  A    between atoms: C_6  and  N_7
REMARK    4  A    between atoms: C_11  and  C_12
REMARK    5  A    between atoms: N_13  and  C_14
REMARK    6  A    between atoms: C_14  and  C_15
REMARK    7  A    between atoms: N_25  and  C_26
REMARK    8  A    between atoms: C_26  and  C_27
REMARK                            x       y       z     vdW  Elec       q    Type
REMARK                         _______ _______ _______ _____ _____    ______ ____
ROOT
ATOM      1  N   UNL     1       3.266   6.930  18.639  0.00  0.00    +0.000 N 
ATOM      2  C   UNL     1       2.921   8.213  18.168  0.00  0.00    +0.000 A 
ATOM      3  O   UNL     1       3.343   8.809  17.190  0.00  0.00    +0.000 OA
ATOM      4  C   UNL     1       1.858   8.696  19.110  0.00  0.00    +0.000 A 
ATOM      5  C   UNL     1       1.109   9.816  19.110  0.00  0.00    +0.000 A 
ATOM      6  C   UNL     1       1.172  10.838  18.004  0.00  0.00    +0.000 C 
ATOM      7  N   UNL     1       0.201  10.023  20.177  0.00  0.00    +0.000 N 
ATOM      8  C   UNL     1       0.068   9.102  21.225  0.00  0.00    +0.000 A 
ATOM      9  O   UNL     1      -0.746   9.188  22.140  0.00  0.00    +0.000 OA
ATOM     10  C   UNL     1       0.933   7.900  21.192  0.00  0.00    +0.000 A 
ATOM     11  C   UNL     1       1.695   7.673  20.119  0.00  0.00    +0.000 A 
ATOM     12  N   UNL     1       2.431   6.560  19.735  0.00  0.00    +0.000 N 
ENDROOT
BRANCH   1  16
ATOM     13  C   UNL     1       5.588   4.261  16.342  0.00  0.00    +0.000 A 
ATOM     14  C   UNL     1       4.196   4.259  16.254  0.00  0.00    +0.000 A 
ATOM     15  C   UNL     1       3.433   5.121  17.046  0.00  0.00    +0.000 A 
ATOM     16  C   UNL     1       4.060   6.017  17.916  0.00  0.00    +0.000 A 
ATOM     17  C   UNL     1       5.454   5.996  18.027  0.00  0.00    +0.000 A 
ATOM     18  C   UNL     1       6.215   5.112  17.251  0.00  0.00    +0.000 A 
BRANCH  13  20
ATOM     19  C   UNL     1       6.284   3.722  14.148  0.00  0.00    +0.000 C 
ATOM     20  O   UNL     1       6.221   3.367  15.524  0.00  0.00    +0.000 OA
ENDBRANCH  13  20
ENDBRANCH   1  16
BRANCH   7  21
ATOM     21  C   UNL     1      -0.714  11.173  20.213  0.00  0.00    +0.000 C 
BRANCH  21  22
ATOM     22  C   UNL     1      -1.961  11.038  19.351  0.00  0.00    +0.000 A 
ATOM     23  C   UNL     1      -2.991  11.988  19.438  0.00  0.00    +0.000 A 
ATOM     24  C   UNL     1      -4.086  11.941  18.571  0.00  0.00    +0.000 A 
ATOM     25  C   UNL     1      -4.165  10.943  17.598  0.00  0.00    +0.000 A 
ATOM     26  C   UNL     1      -3.157   9.988  17.504  0.00  0.00    +0.000 A 
ATOM     27  C   UNL     1      -2.066  10.036  18.376  0.00  0.00    +0.000 A 
ENDBRANCH  21  22
ENDBRANCH   7  21
BRANCH  12  28
ATOM     28  C   UNL     1       2.815   5.454  20.620  0.00  0.00    +0.000 C 
BRANCH  28  29
ATOM     29  C   UNL     1       2.420   4.095  20.055  0.00  0.00    +0.000 A 
ATOM     30  C   UNL     1       1.092   3.863  19.655  0.00  0.00    +0.000 A 
ATOM     31  C   UNL     1       0.726   2.656  19.050  0.00  0.00    +0.000 A 
ATOM     32  C   UNL     1       1.677   1.667  18.821  0.00  0.00    +0.000 A 
ATOM     33  C   UNL     1       2.994   1.874  19.221  0.00  0.00    +0.000 A 
ATOM     34  C   UNL     1       3.357   3.070  19.835  0.00  0.00    +0.000 A 
ENDBRANCH  28  29
ENDBRANCH  12  28
TORSDOF 6
ENDMDL
MODEL 3
REMARK VINA RESULT:      -7.8      0.700      1.083
REMARK  Name = 
REMARK  8 active torsions:
REMARK  status: ('A' for Active; 'I' for Inactive)
REMARK    1  A    between atoms: C_1  and  O_2
REMARK    2  A    between atoms: O_2  and  C_3
REMARK    3  A    between atoms: C_6  and  N_7
REMARK    4  A    between atoms: C_11  and  C_12
REMARK    5  A    between atoms: N_13  and  C_14
REMARK    6  A    between atoms: C_14  and  C_15
REMARK    7  A    between atoms: N_25  and  C_26
REMARK    8  A    between atoms: C_26  and  C_27
REMARK                            x       y       z     vdW  Elec       q    Type
REMARK                         _______ _______ _______ _____ _____    ______ ____
ROOT
ATOM      1  N   UNL     1       2.442   7.443  19.005  0.00  0.00    +0.000 N 
ATOM      2  C   UNL     1       1.957   8.667  18.504  0.00  0.00    +0.000 A 
ATOM      3  O   UNL     1       2.152   9.181  17.415  0.00  0.00    +0.000 OA
ATOM      4  C   UNL     1       1.079   9.208  19.595  0.00  0.00    +0.000 A 
ATOM      5  C   UNL     1       0.298  10.304  19.649  0.00  0.00    +0.000 A 
ATOM      6  C   UNL     1       0.097  11.221  18.470  0.00  0.00    +0.000 C 
ATOM      7  N   UNL     1      -0.391  10.586  20.855  0.00  0.00    +0.000 N 
ATOM      8  C   UNL     1      -0.275   9.763  21.983  0.00  0.00    +0.000 A 
ATOM      9  O   UNL     1      -0.896   9.912  23.031  0.00  0.00    +0.000 OA
ATOM     10  C   UNL     1       0.617   8.585  21.880  0.00  0.00    +0.000 A 
ATOM     11  C   UNL     1       1.163   8.279  20.701  0.00  0.00    +0.000 A 
ATOM     12  N   UNL     1       1.856   7.154  20.273  0.00  0.00    +0.000 N 
ENDROOT
BRANCH   1  16
ATOM     13  C   UNL     1       4.555   4.551  16.776  0.00  0.00    +0.000 A 
ATOM     14  C   UNL     1       5.208   5.662  17.312  0.00  0.00    +0.000 A 
ATOM     15  C   UNL     1       4.493   6.633  18.017  0.00  0.00    +0.000 A 
ATOM     16  C   UNL     1       3.118   6.488  18.219  0.00  0.00    +0.000 A 
ATOM     17  C   UNL     1       2.459   5.392  17.653  0.00  0.00    +0.000 A 
ATOM     18  C   UNL     1       3.173   4.432  16.924  0.00  0.00    +0.000 A 
BRANCH  13  20
ATOM     19  C   UNL     1       6.351   4.264  15.266  0.00  0.00    +0.000 C 
ATOM     20  O   UNL     1       5.359   3.676  16.100  0.00  0.00    +0.000 OA
ENDBRANCH  13  20
ENDBRANCH   1  16
BRANCH   7  21
ATOM     21  C   UNL     1      -1.330  11.711  20.974  0.00  0.00    +0.000 C 
BRANCH  21  22
ATOM     22  C   UNL     1      -0.802  12.921  21.730  0.00  0.00    +0.000 A 
ATOM     23  C   UNL     1       0.308  13.631  21.247  0.00  0.00    +0.000 A 
ATOM     24  C   UNL     1       0.730  14.812  21.866  0.00  0.00    +0.000 A 
ATOM     25  C   UNL     1       0.044  15.301  22.978  0.00  0.00    +0.000 A 
ATOM     26  C   UNL     1      -1.053  14.605  23.476  0.00  0.00    +0.000 A 
ATOM     27  C   UNL     1      -1.470  13.422  22.856  0.00  0.00    +0.000 A 
ENDBRANCH  21  22
ENDBRANCH   7  21
BRANCH  12  28
ATOM     28  C   UNL     1       2.454   6.145  21.155  0.00  0.00    +0.000 C 
BRANCH  28  29
ATOM     29  C   UNL     1       2.196   4.724  20.669  0.00  0.00    +0.000 A 
ATOM     30  C   UNL     1       3.259   3.807  20.595  0.00  0.00    +0.000 A 
ATOM     31  C   UNL     1       3.031   2.474  20.240  0.00  0.00    +0.000 A 
ATOM     32  C   UNL     1       1.742   2.028  19.967  0.00  0.00    +0.000 A 
ATOM     33  C   UNL     1       0.678   2.924  20.024  0.00  0.00    +0.000 A 
ATOM     34  C   UNL     1       0.905   4.256  20.365  0.00  0.00    +0.000 A 
ENDBRANCH  28  29
ENDBRANCH  12  28
TORSDOF 6
ENDMDL
MODEL 4
REMARK VINA RESULT:      -7.8      0.331      1.208
REMARK  Name = 
REMARK  8 active torsions:
REMARK  status: ('A' for Active; 'I' for Inactive)
REMARK    1  A    between atoms: C_1  and  O_2
REMARK    2  A    between atoms: O_2  and  C_3
REMARK    3  A    between atoms: C_6  and  N_7
REMARK    4  A    between atoms: C_11  and  C_12
REMARK    5  A    between atoms: N_13  and  C_14
REMARK    6  A    between atoms: C_14  and  C_15
REMARK    7  A    between atoms: N_25  and  C_26
REMARK    8  A    between atoms: C_26  and  C_27
REMARK                            x       y       z     vdW  Elec       q    Type
REMARK                         _______ _______ _______ _____ _____    ______ ____
ROOT
ATOM      1  N   UNL     1       3.044   7.128  18.625  0.00  0.00    +0.000 N 
ATOM      2  C   UNL     1       2.535   8.344  18.125  0.00  0.00    +0.000 A 
ATOM      3  O   UNL     1       2.803   8.915  17.081  0.00  0.00    +0.000 OA
ATOM      4  C   UNL     1       1.524   8.785  19.143  0.00  0.00    +0.000 A 
ATOM      5  C   UNL     1       0.675   9.830  19.160  0.00  0.00    +0.000 A 
ATOM      6  C   UNL     1       0.534  10.785  18.002  0.00  0.00    +0.000 C 
ATOM      7  N   UNL     1      -0.144  10.019  20.301  0.00  0.00    +0.000 N 
ATOM      8  C   UNL     1      -0.088   9.155  21.403  0.00  0.00    +0.000 A 
ATOM      9  O   UNL     1      -0.816   9.222  22.389  0.00  0.00    +0.000 OA
ATOM     10  C   UNL     1       0.881   8.035  21.345  0.00  0.00    +0.000 A 
ATOM     11  C   UNL     1       1.557   7.814  20.215  0.00  0.00    +0.000 A 
ATOM     12  N   UNL     1       2.356   6.751  19.816  0.00  0.00    +0.000 N 
ENDROOT
BRANCH   1  16
ATOM     13  C   UNL     1       5.367   4.527  16.252  0.00  0.00    +0.000 A 
ATOM     14  C   UNL     1       4.008   4.288  16.459  0.00  0.00    +0.000 A 
ATOM     15  C   UNL     1       3.255   5.134  17.277  0.00  0.00    +0.000 A 
ATOM     16  C   UNL     1       3.850   6.249  17.874  0.00  0.00    +0.000 A 
ATOM     17  C   UNL     1       5.219   6.469  17.693  0.00  0.00    +0.000 A 
ATOM     18  C   UNL     1       5.978   5.604  16.894  0.00  0.00    +0.000 A 
BRANCH  13  20
ATOM     19  C   UNL     1       6.052   3.965  14.061  0.00  0.00    +0.000 C 
ATOM     20  O   UNL     1       5.997   3.625  15.441  0.00  0.00    +0.000 OA
ENDBRANCH  13  20
ENDBRANCH   1  16
BRANCH   7  21
ATOM     21  C   UNL     1      -1.158  11.081  20.369  0.00  0.00    +0.000 C 
BRANCH  21  22
ATOM     22  C   UNL     1      -0.710  12.364  21.055  0.00  0.00    +0.000 A 
ATOM     23  C   UNL     1      -1.351  12.805  22.223  0.00  0.00    +0.000 A 
ATOM     24  C   UNL     1      -0.875  13.915  22.927  0.00  0.00    +0.000 A 
ATOM     25  C   UNL     1       0.253  14.600  22.473  0.00  0.00    +0.000 A 
ATOM     26  C   UNL     1       0.894  14.181  21.311  0.00  0.00    +0.000 A 
ATOM     27  C   UNL     1       0.413  13.073  20.607  0.00  0.00    +0.000 A 
ENDBRANCH  21  22
ENDBRANCH   7  21
BRANCH  12  28
ATOM     28  C   UNL     1       2.926   5.740  20.714  0.00  0.00    +0.000 C 
BRANCH  28  29
ATOM     29  C   UNL     1       2.510   4.324  20.332  0.00  0.00    +0.000 A 
ATOM     30  C   UNL     1       1.153   4.029  20.112  0.00  0.00    +0.000 A 
ATOM     31  C   UNL     1       0.759   2.762  19.672  0.00  0.00    +0.000 A 
ATOM     32  C   UNL     1       1.706   1.773  19.432  0.00  0.00    +0.000 A 
ATOM     33  C   UNL     1       3.053   2.043  19.656  0.00  0.00    +0.000 A 
ATOM     34  C   UNL     1       3.448   3.300  20.107  0.00  0.00    +0.000 A 
ENDBRANCH  28  29
ENDBRANCH  12  28
TORSDOF 6
ENDMDL
MODEL 5
REMARK VINA RESULT:      -7.8      2.656      9.553
REMARK  Name = 
REMARK  8 active torsions:
REMARK  status: ('A' for Active; 'I' for Inactive)
REMARK    1  A    between atoms: C_1  and  O_2
REMARK    2  A    between atoms: O_2  and  C_3
REMARK    3  A    between atoms: C_6  and  N_7
REMARK    4  A    between atoms: C_11  and  C_12
REMARK    5  A    between atoms: N_13  and  C_14
REMARK    6  A    between atoms: C_14  and  C_15
REMARK    7  A    between atoms: N_25  and  C_26
REMARK    8  A    between atoms: C_26  and  C_27
REMARK                            x       y       z     vdW  Elec       q    Type
REMARK                         _______ _______ _______ _____ _____    ______ ____
ROOT
ATOM      1  N   UNL     1      -0.861  11.602  21.060  0.00  0.00    +0.000 N 
ATOM      2  C   UNL     1      -0.018  10.708  21.751  0.00  0.00    +0.000 A 
ATOM      3  O   UNL     1       0.138  10.577  22.954  0.00  0.00    +0.000 OA
ATOM      4  C   UNL     1       0.634   9.886  20.678  0.00  0.00    +0.000 A 
ATOM      5  C   UNL     1       1.473   8.835  20.746  0.00  0.00    +0.000 A 
ATOM      6  C   UNL     1       1.877   8.198  22.052  0.00  0.00    +0.000 C 
ATOM      7  N   UNL     1       1.970   8.285  19.539  0.00  0.00    +0.000 N 
ATOM      8  C   UNL     1       1.615   8.807  18.287  0.00  0.00    +0.000 A 
ATOM      9  O   UNL     1       1.954   8.335  17.206  0.00  0.00    +0.000 OA
ATOM     10  C   UNL     1       0.710   9.979  18.267  0.00  0.00    +0.000 A 
ATOM     11  C   UNL     1       0.168  10.405  19.411  0.00  0.00    +0.000 A 
ATOM     12  N   UNL     1      -0.842  11.325  19.661  0.00  0.00    +0.000 N 
ENDROOT
BRANCH   1  16
ATOM     13  C   UNL     1      -3.748  14.109  22.840  0.00  0.00    +0.000 A 
ATOM     14  C   UNL     1      -2.396  14.454  22.847  0.00  0.00    +0.000 A 
ATOM     15  C   UNL     1      -1.443  13.600  22.287  0.00  0.00    +0.000 A 
ATOM     16  C   UNL     1      -1.838  12.400  21.688  0.00  0.00    +0.000 A 
ATOM     17  C   UNL     1      -3.189  12.040  21.711  0.00  0.00    +0.000 A 
ATOM     18  C   UNL     1      -4.140  12.887  22.296  0.00  0.00    +0.000 A 
BRANCH  13  20
ATOM     19  C   UNL     1      -5.958  14.665  23.468  0.00  0.00    +0.000 C 
ATOM     20  O   UNL     1      -4.582  15.022  23.424  0.00  0.00    +0.000 OA
ENDBRANCH  13  20
ENDBRANCH   1  16
BRANCH   7  21
ATOM     21  C   UNL     1       2.821   7.086  19.518  0.00  0.00    +0.000 C 
BRANCH  21  22
ATOM     22  C   UNL     1       2.079   5.765  19.374  0.00  0.00    +0.000 A 
ATOM     23  C   UNL     1       2.016   5.118  18.131  0.00  0.00    +0.000 A 
ATOM     24  C   UNL     1       1.440   3.849  18.010  0.00  0.00    +0.000 A 
ATOM     25  C   UNL     1       0.921   3.207  19.135  0.00  0.00    +0.000 A 
ATOM     26  C   UNL     1       0.968   3.839  20.374  0.00  0.00    +0.000 A 
ATOM     27  C   UNL     1       1.541   5.109  20.490  0.00  0.00    +0.000 A 
ENDBRANCH  21  22
ENDBRANCH   7  21
BRANCH  12  28
ATOM     28  C   UNL     1      -1.336  12.318  18.701  0.00  0.00    +0.000 C 
BRANCH  28  29
ATOM     29  C   UNL     1      -2.442  11.765  17.810  0.00  0.00    +0.000 A 
ATOM     30  C   UNL     1      -3.783  11.852  18.224  0.00  0.00    +0.000 A 
ATOM     31  C   UNL     1      -4.820  11.435  17.385  0.00  0.00    +0.000 A 
ATOM     32  C   UNL     1      -4.543  10.937  16.116  0.00  0.00    +0.000 A 
ATOM     33  C   UNL     1      -3.221  10.832  15.693  0.00  0.00    +0.000 A 
ATOM     34  C   UNL     1      -2.185  11.235  16.533  0.00  0.00    +0.000 A 
ENDBRANCH  28  29
ENDBRANCH  12  28
TORSDOF 6
ENDMDL
MODEL 6
REMARK VINA RESULT:      -7.7      2.349      9.802
REMARK  Name = 
REMARK  8 active torsions:
REMARK  status: ('A' for Active; 'I' for Inactive)
REMARK    1  A    between atoms: C_1  and  O_2
REMARK    2  A    between atoms: O_2  and  C_3
REMARK    3  A    between atoms: C_6  and  N_7
REMARK    4  A    between atoms: C_11  and  C_12
REMARK    5  A    between atoms: N_13  and  C_14
REMARK    6  A    between atoms: C_14  and  C_15
REMARK    7  A    between atoms: N_25  and  C_26
REMARK    8  A    between atoms: C_26  and  C_27
REMARK                            x       y       z     vdW  Elec       q    Type
REMARK                         _______ _______ _______ _____ _____    ______ ____
ROOT
ATOM      1  N   UNL     1      -0.771  11.509  20.481  0.00  0.00    +0.000 N 
ATOM      2  C   UNL     1      -0.174  10.509  21.275  0.00  0.00    +0.000 A 
ATOM      3  O   UNL     1      -0.323  10.283  22.464  0.00  0.00    +0.000 OA
ATOM      4  C   UNL     1       0.672   9.716  20.322  0.00  0.00    +0.000 A 
ATOM      5  C   UNL     1       1.408   8.602  20.498  0.00  0.00    +0.000 A 
ATOM      6  C   UNL     1       1.445   7.848  21.803  0.00  0.00    +0.000 C 
ATOM      7  N   UNL     1       2.152   8.101  19.402  0.00  0.00    +0.000 N 
ATOM      8  C   UNL     1       2.144   8.733  18.151  0.00  0.00    +0.000 A 
ATOM      9  O   UNL     1       2.709   8.313  17.145  0.00  0.00    +0.000 OA
ATOM     10  C   UNL     1       1.339   9.969  18.016  0.00  0.00    +0.000 A 
ATOM     11  C   UNL     1       0.559  10.355  19.029  0.00  0.00    +0.000 A 
ATOM     12  N   UNL     1      -0.427  11.329  19.109  0.00  0.00    +0.000 N 
ENDROOT
BRANCH   1  16
ATOM     13  C   UNL     1      -3.839  14.105  21.763  0.00  0.00    +0.000 A 
ATOM     14  C   UNL     1      -2.570  14.154  22.341  0.00  0.00    +0.000 A 
ATOM     15  C   UNL     1      -1.571  13.265  21.935  0.00  0.00    +0.000 A 
ATOM     16  C   UNL     1      -1.824  12.335  20.924  0.00  0.00    +0.000 A 
ATOM     17  C   UNL     1      -3.105  12.264  20.369  0.00  0.00    +0.000 A 
ATOM     18  C   UNL     1      -4.113  13.139  20.796  0.00  0.00    +0.000 A 
BRANCH  13  20
ATOM     19  C   UNL     1      -5.066  14.888  23.626  0.00  0.00    +0.000 C 
ATOM     20  O   UNL     1      -4.732  15.019  22.249  0.00  0.00    +0.000 OA
ENDBRANCH  13  20
ENDBRANCH   1  16
BRANCH   7  21
ATOM     21  C   UNL     1       2.913   6.845  19.482  0.00  0.00    +0.000 C 
BRANCH  21  22
ATOM     22  C   UNL     1       2.101   5.578  19.258  0.00  0.00    +0.000 A 
ATOM     23  C   UNL     1       2.006   5.013  17.977  0.00  0.00    +0.000 A 
ATOM     24  C   UNL     1       1.363   3.787  17.778  0.00  0.00    +0.000 A 
ATOM     25  C   UNL     1       0.807   3.106  18.862  0.00  0.00    +0.000 A 
ATOM     26  C   UNL     1       0.884   3.657  20.138  0.00  0.00    +0.000 A 
ATOM     27  C   UNL     1       1.525   4.885  20.332  0.00  0.00    +0.000 A 
ENDBRANCH  21  22
ENDBRANCH   7  21
BRANCH  12  28
ATOM     28  C   UNL     1      -0.615  12.422  18.147  0.00  0.00    +0.000 C 
BRANCH  28  29
ATOM     29  C   UNL     1       0.255  13.632  18.467  0.00  0.00    +0.000 A 
ATOM     30  C   UNL     1       1.653  13.540  18.343  0.00  0.00    +0.000 A 
ATOM     31  C   UNL     1       2.464  14.661  18.542  0.00  0.00    +0.000 A 
ATOM     32  C   UNL     1       1.899  15.893  18.854  0.00  0.00    +0.000 A 
ATOM     33  C   UNL     1       0.518  16.001  18.992  0.00  0.00    +0.000 A 
ATOM     34  C   UNL     1      -0.291  14.882  18.807  0.00  0.00    +0.000 A 
ENDBRANCH  28  29
ENDBRANCH  12  28
TORSDOF 6
ENDMDL
MODEL 7
REMARK VINA RESULT:      -7.7      1.471      2.394
REMARK  Name = 
REMARK  8 active torsions:
REMARK  status: ('A' for Active; 'I' for Inactive)
REMARK    1  A    between atoms: C_1  and  O_2
REMARK    2  A    between atoms: O_2  and  C_3
REMARK    3  A    between atoms: C_6  and  N_7
REMARK    4  A    between atoms: C_11  and  C_12
REMARK    5  A    between atoms: N_13  and  C_14
REMARK    6  A    between atoms: C_14  and  C_15
REMARK    7  A    between atoms: N_25  and  C_26
REMARK    8  A    between atoms: C_26  and  C_27
REMARK                            x       y       z     vdW  Elec       q    Type
REMARK                         _______ _______ _______ _____ _____    ______ ____
ROOT
ATOM      1  N   UNL     1       3.224   7.089  18.405  0.00  0.00    +0.000 N 
ATOM      2  C   UNL     1       2.765   8.351  17.975  0.00  0.00    +0.000 A 
ATOM      3  O   UNL     1       3.064   8.972  16.969  0.00  0.00    +0.000 OA
ATOM      4  C   UNL     1       1.762   8.768  19.011  0.00  0.00    +0.000 A 
ATOM      5  C   UNL     1       0.953   9.842  19.085  0.00  0.00    +0.000 A 
ATOM      6  C   UNL     1       0.857  10.869  17.985  0.00  0.00    +0.000 C 
ATOM      7  N   UNL     1       0.132   9.993  20.229  0.00  0.00    +0.000 N 
ATOM      8  C   UNL     1       0.146   9.063  21.278  0.00  0.00    +0.000 A 
ATOM      9  O   UNL     1      -0.588   9.100  22.261  0.00  0.00    +0.000 OA
ATOM     10  C   UNL     1       1.072   7.914  21.160  0.00  0.00    +0.000 A 
ATOM     11  C   UNL     1       1.750   7.735  20.023  0.00  0.00    +0.000 A 
ATOM     12  N   UNL     1       2.512   6.668  19.567  0.00  0.00    +0.000 N 
ENDROOT
BRANCH   1  16
ATOM     13  C   UNL     1       5.656   4.490  16.142  0.00  0.00    +0.000 A 
ATOM     14  C   UNL     1       6.160   5.691  16.641  0.00  0.00    +0.000 A 
ATOM     15  C   UNL     1       5.337   6.563  17.358  0.00  0.00    +0.000 A 
ATOM     16  C   UNL     1       4.004   6.226  17.608  0.00  0.00    +0.000 A 
ATOM     17  C   UNL     1       3.491   5.038  17.080  0.00  0.00    +0.000 A 
ATOM     18  C   UNL     1       4.311   4.178  16.338  0.00  0.00    +0.000 A 
BRANCH  13  20
ATOM     19  C   UNL     1       6.494   3.828  14.033  0.00  0.00    +0.000 C 
ATOM     20  O   UNL     1       6.556   3.727  15.451  0.00  0.00    +0.000 OA
ENDBRANCH  13  20
ENDBRANCH   1  16
BRANCH   7  21
ATOM     21  C   UNL     1      -0.843  11.087  20.354  0.00  0.00    +0.000 C 
BRANCH  21  22
ATOM     22  C   UNL     1      -1.992  11.051  19.356  0.00  0.00    +0.000 A 
ATOM     23  C   UNL     1      -2.150   9.954  18.496  0.00  0.00    +0.000 A 
ATOM     24  C   UNL     1      -3.266   9.853  17.658  0.00  0.00    +0.000 A 
ATOM     25  C   UNL     1      -4.243  10.850  17.674  0.00  0.00    +0.000 A 
ATOM     26  C   UNL     1      -4.097  11.949  18.515  0.00  0.00    +0.000 A 
ATOM     27  C   UNL     1      -2.978  12.048  19.347  0.00  0.00    +0.000 A 
ENDBRANCH  21  22
ENDBRANCH   7  21
BRANCH  12  28
ATOM     28  C   UNL     1       3.036   5.585  20.407  0.00  0.00    +0.000 C 
BRANCH  28  29
ATOM     29  C   UNL     1       2.496   4.220  19.997  0.00  0.00    +0.000 A 
ATOM     30  C   UNL     1       1.121   4.057  19.751  0.00  0.00    +0.000 A 
ATOM     31  C   UNL     1       0.617   2.839  19.286  0.00  0.00    +0.000 A 
ATOM     32  C   UNL     1       1.471   1.768  19.046  0.00  0.00    +0.000 A 
ATOM     33  C   UNL     1       2.833   1.906  19.295  0.00  0.00    +0.000 A 
ATOM     34  C   UNL     1       3.337   3.115  19.771  0.00  0.00    +0.000 A 
ENDBRANCH  28  29
ENDBRANCH  12  28
TORSDOF 6
ENDMDL
MODEL 8
REMARK VINA RESULT:      -7.6      2.453      9.771
REMARK  Name = 
REMARK  8 active torsions:
REMARK  status: ('A' for Active; 'I' for Inactive)
REMARK    1  A    between atoms: C_1  and  O_2
REMARK    2  A    between atoms: O_2  and  C_3
REMARK    3  A    between atoms: C_6  and  N_7
REMARK    4  A    between atoms: C_11  and  C_12
REMARK    5  A    between atoms: N_13  and  C_14
REMARK    6  A    between atoms: C_14  and  C_15
REMARK    7  A    between atoms: N_25  and  C_26
REMARK    8  A    between atoms: C_26  and  C_27
REMARK                            x       y       z     vdW  Elec       q    Type
REMARK                         _______ _______ _______ _____ _____    ______ ____
ROOT
ATOM      1  N   UNL     1      -0.898  11.562  20.407  0.00  0.00    +0.000 N 
ATOM      2  C   UNL     1      -0.305  10.582  21.227  0.00  0.00    +0.000 A 
ATOM      3  O   UNL     1      -0.473  10.375  22.418  0.00  0.00    +0.000 OA
ATOM      4  C   UNL     1       0.566   9.783  20.303  0.00  0.00    +0.000 A 
ATOM      5  C   UNL     1       1.311   8.680  20.512  0.00  0.00    +0.000 A 
ATOM      6  C   UNL     1       1.332   7.948  21.830  0.00  0.00    +0.000 C 
ATOM      7  N   UNL     1       2.080   8.168  19.438  0.00  0.00    +0.000 N 
ATOM      8  C   UNL     1       2.087   8.779  18.176  0.00  0.00    +0.000 A 
ATOM      9  O   UNL     1       2.674   8.349  17.188  0.00  0.00    +0.000 OA
ATOM     10  C   UNL     1       1.271  10.004  18.006  0.00  0.00    +0.000 A 
ATOM     11  C   UNL     1       0.470  10.399  18.998  0.00  0.00    +0.000 A 
ATOM     12  N   UNL     1      -0.528  11.363  19.044  0.00  0.00    +0.000 N 
ENDROOT
BRANCH   1  16
ATOM     13  C   UNL     1      -4.185  13.890  21.661  0.00  0.00    +0.000 A 
ATOM     14  C   UNL     1      -4.291  13.029  20.568  0.00  0.00    +0.000 A 
ATOM     15  C   UNL     1      -3.186  12.290  20.137  0.00  0.00    +0.000 A 
ATOM     16  C   UNL     1      -1.968  12.383  20.816  0.00  0.00    +0.000 A 
ATOM     17  C   UNL     1      -1.854  13.271  21.890  0.00  0.00    +0.000 A 
ATOM     18  C   UNL     1      -2.956  14.031  22.304  0.00  0.00    +0.000 A 
BRANCH  13  20
ATOM     19  C   UNL     1      -6.502  14.162  21.281  0.00  0.00    +0.000 C 
ATOM     20  O   UNL     1      -5.330  14.565  21.980  0.00  0.00    +0.000 OA
ENDBRANCH  13  20
ENDBRANCH   1  16
BRANCH   7  21
ATOM     21  C   UNL     1       2.852   6.923  19.552  0.00  0.00    +0.000 C 
BRANCH  21  22
ATOM     22  C   UNL     1       2.061   5.643  19.323  0.00  0.00    +0.000 A 
ATOM     23  C   UNL     1       1.998   5.068  18.045  0.00  0.00    +0.000 A 
ATOM     24  C   UNL     1       1.374   3.833  17.843  0.00  0.00    +0.000 A 
ATOM     25  C   UNL     1       0.806   3.153  18.922  0.00  0.00    +0.000 A 
ATOM     26  C   UNL     1       0.853   3.713  20.195  0.00  0.00    +0.000 A 
ATOM     27  C   UNL     1       1.474   4.951  20.391  0.00  0.00    +0.000 A 
ENDBRANCH  21  22
ENDBRANCH   7  21
BRANCH  12  28
ATOM     28  C   UNL     1      -0.710  12.437  18.060  0.00  0.00    +0.000 C 
BRANCH  28  29
ATOM     29  C   UNL     1       0.177  13.642  18.346  0.00  0.00    +0.000 A 
ATOM     30  C   UNL     1      -0.399  14.845  18.791  0.00  0.00    +0.000 A 
ATOM     31  C   UNL     1       0.402  15.934  19.147  0.00  0.00    +0.000 A 
ATOM     32  C   UNL     1       1.788  15.841  19.080  0.00  0.00    +0.000 A 
ATOM     33  C   UNL     1       2.377  14.663  18.631  0.00  0.00    +0.000 A 
ATOM     34  C   UNL     1       1.580  13.580  18.263  0.00  0.00    +0.000 A 
ENDBRANCH  28  29
ENDBRANCH  12  28
TORSDOF 6
ENDMDL
MODEL 9
REMARK VINA RESULT:      -7.6      1.500      2.666
REMARK  Name = 
REMARK  8 active torsions:
REMARK  status: ('A' for Active; 'I' for Inactive)
REMARK    1  A    between atoms: C_1  and  O_2
REMARK    2  A    between atoms: O_2  and  C_3
REMARK    3  A    between atoms: C_6  and  N_7
REMARK    4  A    between atoms: C_11  and  C_12
REMARK    5  A    between atoms: N_13  and  C_14
REMARK    6  A    between atoms: C_14  and  C_15
REMARK    7  A    between atoms: N_25  and  C_26
REMARK    8  A    between atoms: C_26  and  C_27
REMARK                            x       y       z     vdW  Elec       q    Type
REMARK                         _______ _______ _______ _____ _____    ______ ____
ROOT
ATOM      1  N   UNL     1       3.278   6.984  18.550  0.00  0.00    +0.000 N 
ATOM      2  C   UNL     1       2.923   8.273  18.102  0.00  0.00    +0.000 A 
ATOM      3  O   UNL     1       3.335   8.887  17.132  0.00  0.00    +0.000 OA
ATOM      4  C   UNL     1       1.864   8.735  19.060  0.00  0.00    +0.000 A 
ATOM      5  C   UNL     1       1.110   9.850  19.084  0.00  0.00    +0.000 A 
ATOM      6  C   UNL     1       1.159  10.891  17.994  0.00  0.00    +0.000 C 
ATOM      7  N   UNL     1       0.209  10.036  20.161  0.00  0.00    +0.000 N 
ATOM      8  C   UNL     1       0.089   9.097  21.195  0.00  0.00    +0.000 A 
ATOM      9  O   UNL     1      -0.719   9.164  22.117  0.00  0.00    +0.000 OA
ATOM     10  C   UNL     1       0.959   7.900  21.136  0.00  0.00    +0.000 A 
ATOM     11  C   UNL     1       1.715   7.695  20.054  0.00  0.00    +0.000 A 
ATOM     12  N   UNL     1       2.453   6.592  19.646  0.00  0.00    +0.000 N 
ENDROOT
BRANCH   1  16
ATOM     13  C   UNL     1       5.578   4.346  16.195  0.00  0.00    +0.000 A 
ATOM     14  C   UNL     1       4.191   4.212  16.276  0.00  0.00    +0.000 A 
ATOM     15  C   UNL     1       3.442   5.068  17.088  0.00  0.00    +0.000 A 
ATOM     16  C   UNL     1       4.072   6.088  17.807  0.00  0.00    +0.000 A 
ATOM     17  C   UNL     1       5.464   6.200  17.751  0.00  0.00    +0.000 A 
ATOM     18  C   UNL     1       6.217   5.324  16.957  0.00  0.00    +0.000 A 
BRANCH  13  20
ATOM     19  C   UNL     1       6.358   3.847  14.020  0.00  0.00    +0.000 C 
ATOM     20  O   UNL     1       6.200   3.446  15.376  0.00  0.00    +0.000 OA
ENDBRANCH  13  20
ENDBRANCH   1  16
BRANCH   7  21
ATOM     21  C   UNL     1      -0.712  11.180  20.222  0.00  0.00    +0.000 C 
BRANCH  21  22
ATOM     22  C   UNL     1      -1.910  11.100  19.287  0.00  0.00    +0.000 A 
ATOM     23  C   UNL     1      -2.054  10.016  18.408  0.00  0.00    +0.000 A 
ATOM     24  C   UNL     1      -3.206   9.871  17.629  0.00  0.00    +0.000 A 
ATOM     25  C   UNL     1      -4.235  10.810  17.721  0.00  0.00    +0.000 A 
ATOM     26  C   UNL     1      -4.104  11.896  18.581  0.00  0.00    +0.000 A 
ATOM     27  C   UNL     1      -2.949  12.040  19.355  0.00  0.00    +0.000 A 
ENDBRANCH  21  22
ENDBRANCH   7  21
BRANCH  12  28
ATOM     28  C   UNL     1       2.850   5.474  20.510  0.00  0.00    +0.000 C 
BRANCH  28  29
ATOM     29  C   UNL     1       2.438   4.123  19.937  0.00  0.00    +0.000 A 
ATOM     30  C   UNL     1       3.391   3.096  19.815  0.00  0.00    +0.000 A 
ATOM     31  C   UNL     1       3.018   1.822  19.378  0.00  0.00    +0.000 A 
ATOM     32  C   UNL     1       1.691   1.544  19.068  0.00  0.00    +0.000 A 
ATOM     33  C   UNL     1       0.736   2.551  19.171  0.00  0.00    +0.000 A 
ATOM     34  C   UNL     1       1.108   3.825  19.594  0.00  0.00    +0.000 A 
ENDBRANCH  28  29
ENDBRANCH  12  28
TORSDOF 6
ENDMDL
