MODEL 1
REMARK VINA RESULT:      -7.6      0.000      0.000
REMARK  Name = 
REMARK  16 active torsions:
REMARK  status: ('A' for Active; 'I' for Inactive)
REMARK    1  A    between atoms: C_2  and  C_3
REMARK    2  A    between atoms: C_3  and  N_4
REMARK    3  A    between atoms: C_6  and  C_7
REMARK    4  A    between atoms: N_8  and  C_9
REMARK    5  A    between atoms: C_9  and  C_10
REMARK    6  A    between atoms: C_9  and  C_25
REMARK    7  A    between atoms: C_13  and  C_14
REMARK    8  A    between atoms: N_16  and  C_17
REMARK    9  A    between atoms: N_16  and  C_19
REMARK   10  A    between atoms: C_17  and  C_18
REMARK   11  A    between atoms: C_19  and  C_20
REMARK   12  A    between atoms: C_20  and  C_21
REMARK   13  A    between atoms: C_21  and  C_22
REMARK   14  A    between atoms: C_29  and  O_30
REMARK   15  A    between atoms: O_30  and  C_31
REMARK   16  A    between atoms: C_34  and  C_35
REMARK                            x       y       z     vdW  Elec       q    Type
REMARK                         _______ _______ _______ _____ _____    ______ ____
ROOT
ATOM      1  C   UNL     1      -0.616  10.276  19.883  0.00  0.00    +0.000 C 
ENDROOT
BRANCH   1   6
ATOM      2  N   UNL     1      -1.177  14.127  21.920  0.00  0.00    +0.000 NA
ATOM      3  C   UNL     1      -0.965  12.923  22.753  0.00  0.00    +0.000 C 
ATOM      4  C   UNL     1      -1.129  11.551  22.018  0.00  0.00    +0.000 C 
ATOM      5  C   UNL     1      -0.734  10.461  23.029  0.00  0.00    +0.000 C 
ATOM      6  N   UNL     1      -0.330  11.448  20.780  0.00  0.00    +0.000 NA
ATOM      7  C   UNL     1      -0.111  12.720  20.081  0.00  0.00    +0.000 C 
ATOM      8  C   UNL     1      -0.169  14.070  20.839  0.00  0.00    +0.000 C 
ATOM      9  C   UNL     1      -0.284  15.191  19.788  0.00  0.00    +0.000 C 
BRANCH   2  10
ATOM     10  C   UNL     1      -2.560  14.251  21.449  0.00  0.00    +0.000 C 
BRANCH  10  12
ATOM     11  C   UNL     1      -4.510  15.166  22.747  0.00  0.00    +0.000 C 
ATOM     12  C   UNL     1      -3.564  14.235  22.568  0.00  0.00    +0.000 C 
ENDBRANCH  10  12
ENDBRANCH   2  10
ENDBRANCH   1   6
BRANCH   1  13
ATOM     13  C   UNL     1       0.676   9.551  19.432  0.00  0.00    +0.000 A 
ATOM     14  C   UNL     1       1.286   8.570  20.226  0.00  0.00    +0.000 A 
ATOM     15  C   UNL     1       2.227   7.693  19.683  0.00  0.00    +0.000 A 
ATOM     16  C   UNL     1       2.690   7.828  18.363  0.00  0.00    +0.000 A 
ATOM     17  C   UNL     1       2.260   8.961  17.666  0.00  0.00    +0.000 A 
ATOM     18  C   UNL     1       1.245   9.793  18.178  0.00  0.00    +0.000 A 
BRANCH  16  19
ATOM     19  C   UNL     1       3.509   6.664  17.850  0.00  0.00    +0.000 C 
ATOM     20  O   UNL     1       4.679   6.926  17.537  0.00  0.00    +0.000 OA
ATOM     21  N   UNL     1       3.080   5.320  17.827  0.00  0.00    +0.000 N 
BRANCH  21  22
ATOM     22  C   UNL     1       1.692   4.882  17.960  0.00  0.00    +0.000 C 
ATOM     23  C   UNL     1       1.350   3.878  19.051  0.00  0.00    +0.000 C 
ENDBRANCH  21  22
BRANCH  21  24
ATOM     24  C   UNL     1       4.166   4.317  17.808  0.00  0.00    +0.000 C 
BRANCH  24  25
ATOM     25  C   UNL     1       4.344   3.697  16.415  0.00  0.00    +0.000 C 
BRANCH  25  26
ATOM     26  C   UNL     1       5.758   3.884  15.863  0.00  0.00    +0.000 C 
ATOM     27  C   UNL     1       5.709   4.340  14.411  0.00  0.00    +0.000 C 
ENDBRANCH  25  26
ENDBRANCH  24  25
ENDBRANCH  21  24
ENDBRANCH  16  19
ENDBRANCH   1  13
BRANCH   1  28
ATOM     28  C   UNL     1      -1.569  10.463  18.690  0.00  0.00    +0.000 A 
ATOM     29  C   UNL     1      -1.430   9.826  17.453  0.00  0.00    +0.000 A 
ATOM     30  C   UNL     1      -2.417   9.909  16.471  0.00  0.00    +0.000 A 
ATOM     31  C   UNL     1      -3.577  10.641  16.715  0.00  0.00    +0.000 A 
ATOM     32  C   UNL     1      -3.743  11.308  17.924  0.00  0.00    +0.000 A 
ATOM     33  C   UNL     1      -2.750  11.226  18.896  0.00  0.00    +0.000 A 
BRANCH  32  34
ATOM     34  O   UNL     1      -4.933  11.973  18.044  0.00  0.00    +0.000 OA
ATOM     35  C   UNL     1      -5.567  12.381  16.838  0.00  0.00    +0.000 C 
ENDBRANCH  32  34
ENDBRANCH   1  28
TORSDOF 11
ENDMDL
MODEL 2
REMARK VINA RESULT:      -7.5      1.683      2.414
REMARK  Name = 
REMARK  16 active torsions:
REMARK  status: ('A' for Active; 'I' for Inactive)
REMARK    1  A    between atoms: C_2  and  C_3
REMARK    2  A    between atoms: C_3  and  N_4
REMARK    3  A    between atoms: C_6  and  C_7
REMARK    4  A    between atoms: N_8  and  C_9
REMARK    5  A    between atoms: C_9  and  C_10
REMARK    6  A    between atoms: C_9  and  C_25
REMARK    7  A    between atoms: C_13  and  C_14
REMARK    8  A    between atoms: N_16  and  C_17
REMARK    9  A    between atoms: N_16  and  C_19
REMARK   10  A    between atoms: C_17  and  C_18
REMARK   11  A    between atoms: C_19  and  C_20
REMARK   12  A    between atoms: C_20  and  C_21
REMARK   13  A    between atoms: C_21  and  C_22
REMARK   14  A    between atoms: C_29  and  O_30
REMARK   15  A    between atoms: O_30  and  C_31
REMARK   16  A    between atoms: C_34  and  C_35
REMARK                            x       y       z     vdW  Elec       q    Type
REMARK                         _______ _______ _______ _____ _____    ______ ____
ROOT
ATOM      1  C   UNL     1      -0.130  10.653  19.944  0.00  0.00    +0.000 C 
ENDROOT
BRANCH   1   6
ATOM      2  N   UNL     1       0.968  14.904  19.824  0.00  0.00    +0.000 NA
ATOM      3  C   UNL     1       0.389  14.370  21.076  0.00  0.00    +0.000 C 
ATOM      4  C   UNL     1      -0.308  12.972  20.960  0.00  0.00    +0.000 C 
ATOM      5  C   UNL     1      -0.708  12.561  22.387  0.00  0.00    +0.000 C 
ATOM      6  N   UNL     1       0.539  11.944  20.323  0.00  0.00    +0.000 NA
ATOM      7  C   UNL     1       1.493  12.458  19.332  0.00  0.00    +0.000 C 
ATOM      8  C   UNL     1       1.986  13.926  19.383  0.00  0.00    +0.000 C 
ATOM      9  C   UNL     1       2.645  14.244  18.027  0.00  0.00    +0.000 C 
BRANCH   2  10
ATOM     10  C   UNL     1      -0.052  15.208  18.816  0.00  0.00    +0.000 C 
BRANCH  10  12
ATOM     11  C   UNL     1      -1.111  17.462  19.169  0.00  0.00    +0.000 C 
ATOM     12  C   UNL     1      -0.206  16.682  18.564  0.00  0.00    +0.000 C 
ENDBRANCH  10  12
ENDBRANCH   2  10
ENDBRANCH   1   6
BRANCH   1  13
ATOM     13  C   UNL     1       0.880   9.488  19.793  0.00  0.00    +0.000 A 
ATOM     14  C   UNL     1       1.119   8.581  20.834  0.00  0.00    +0.000 A 
ATOM     15  C   UNL     1       1.751   7.361  20.589  0.00  0.00    +0.000 A 
ATOM     16  C   UNL     1       2.278   7.040  19.326  0.00  0.00    +0.000 A 
ATOM     17  C   UNL     1       2.254   8.056  18.366  0.00  0.00    +0.000 A 
ATOM     18  C   UNL     1       1.538   9.251  18.583  0.00  0.00    +0.000 A 
BRANCH  16  19
ATOM     19  C   UNL     1       2.703   5.598  19.157  0.00  0.00    +0.000 C 
ATOM     20  O   UNL     1       1.790   4.762  19.178  0.00  0.00    +0.000 OA
ATOM     21  N   UNL     1       4.014   5.170  18.857  0.00  0.00    +0.000 N 
BRANCH  21  22
ATOM     22  C   UNL     1       5.215   5.991  19.002  0.00  0.00    +0.000 C 
ATOM     23  C   UNL     1       6.529   5.299  19.334  0.00  0.00    +0.000 C 
ENDBRANCH  21  22
BRANCH  21  24
ATOM     24  C   UNL     1       4.108   3.840  18.219  0.00  0.00    +0.000 C 
BRANCH  24  25
ATOM     25  C   UNL     1       4.086   3.941  16.687  0.00  0.00    +0.000 C 
BRANCH  25  26
ATOM     26  C   UNL     1       5.487   3.906  16.074  0.00  0.00    +0.000 C 
ATOM     27  C   UNL     1       5.759   5.183  15.288  0.00  0.00    +0.000 C 
ENDBRANCH  25  26
ENDBRANCH  24  25
ENDBRANCH  21  24
ENDBRANCH  16  19
ENDBRANCH   1  13
BRANCH   1  28
ATOM     28  C   UNL     1      -1.134  10.645  18.778  0.00  0.00    +0.000 A 
ATOM     29  C   UNL     1      -0.989   9.893  17.608  0.00  0.00    +0.000 A 
ATOM     30  C   UNL     1      -2.012   9.803  16.663  0.00  0.00    +0.000 A 
ATOM     31  C   UNL     1      -3.215  10.473  16.879  0.00  0.00    +0.000 A 
ATOM     32  C   UNL     1      -3.389  11.249  18.020  0.00  0.00    +0.000 A 
ATOM     33  C   UNL     1      -2.361  11.340  18.953  0.00  0.00    +0.000 A 
BRANCH  32  34
ATOM     34  O   UNL     1      -4.621  11.837  18.119  0.00  0.00    +0.000 OA
ATOM     35  C   UNL     1      -5.733  10.974  18.319  0.00  0.00    +0.000 C 
ENDBRANCH  32  34
ENDBRANCH   1  28
TORSDOF 11
ENDMDL
MODEL 3
REMARK VINA RESULT:      -7.4      0.982      1.602
REMARK  Name = 
REMARK  16 active torsions:
REMARK  status: ('A' for Active; 'I' for Inactive)
REMARK    1  A    between atoms: C_2  and  C_3
REMARK    2  A    between atoms: C_3  and  N_4
REMARK    3  A    between atoms: C_6  and  C_7
REMARK    4  A    between atoms: N_8  and  C_9
REMARK    5  A    between atoms: C_9  and  C_10
REMARK    6  A    between atoms: C_9  and  C_25
REMARK    7  A    between atoms: C_13  and  C_14
REMARK    8  A    between atoms: N_16  and  C_17
REMARK    9  A    between atoms: N_16  and  C_19
REMARK   10  A    between atoms: C_17  and  C_18
REMARK   11  A    between atoms: C_19  and  C_20
REMARK   12  A    between atoms: C_20  and  C_21
REMARK   13  A    between atoms: C_21  and  C_22
REMARK   14  A    between atoms: C_29  and  O_30
REMARK   15  A    between atoms: O_30  and  C_31
REMARK   16  A    between atoms: C_34  and  C_35
REMARK                            x       y       z     vdW  Elec       q    Type
REMARK                         _______ _______ _______ _____ _____    ______ ____
ROOT
ATOM      1  C   UNL     1      -0.476  10.176  19.847  0.00  0.00    +0.000 C 
ENDROOT
BRANCH   1   6
ATOM      2  N   UNL     1      -0.819  14.131  21.727  0.00  0.00    +0.000 NA
ATOM      3  C   UNL     1      -0.783  12.943  22.607  0.00  0.00    +0.000 C 
ATOM      4  C   UNL     1      -1.021  11.566  21.900  0.00  0.00    +0.000 C 
ATOM      5  C   UNL     1      -0.806  10.481  22.969  0.00  0.00    +0.000 C 
ATOM      6  N   UNL     1      -0.147  11.347  20.730  0.00  0.00    +0.000 NA
ATOM      7  C   UNL     1       0.241  12.568  20.014  0.00  0.00    +0.000 C 
ATOM      8  C   UNL     1       0.255  13.944  20.728  0.00  0.00    +0.000 C 
ATOM      9  C   UNL     1       0.323  15.033  19.640  0.00  0.00    +0.000 C 
BRANCH   2  10
ATOM     10  C   UNL     1      -2.146  14.364  21.150  0.00  0.00    +0.000 C 
BRANCH  10  12
ATOM     11  C   UNL     1      -3.627  15.789  22.600  0.00  0.00    +0.000 C 
ATOM     12  C   UNL     1      -3.208  14.585  22.190  0.00  0.00    +0.000 C 
ENDBRANCH  10  12
ENDBRANCH   2  10
ENDBRANCH   1   6
BRANCH   1  13
ATOM     13  C   UNL     1       0.787   9.390  19.417  0.00  0.00    +0.000 A 
ATOM     14  C   UNL     1       1.338   8.384  20.221  0.00  0.00    +0.000 A 
ATOM     15  C   UNL     1       2.246   7.463  19.694  0.00  0.00    +0.000 A 
ATOM     16  C   UNL     1       2.734   7.572  18.381  0.00  0.00    +0.000 A 
ATOM     17  C   UNL     1       2.368   8.722  17.675  0.00  0.00    +0.000 A 
ATOM     18  C   UNL     1       1.385   9.603  18.171  0.00  0.00    +0.000 A 
BRANCH  16  19
ATOM     19  C   UNL     1       3.506   6.371  17.882  0.00  0.00    +0.000 C 
ATOM     20  O   UNL     1       4.707   6.561  17.648  0.00  0.00    +0.000 OA
ATOM     21  N   UNL     1       2.991   5.059  17.791  0.00  0.00    +0.000 N 
BRANCH  21  22
ATOM     22  C   UNL     1       1.572   4.713  17.828  0.00  0.00    +0.000 C 
ATOM     23  C   UNL     1       1.065   3.857  18.978  0.00  0.00    +0.000 C 
ENDBRANCH  21  22
BRANCH  21  24
ATOM     24  C   UNL     1       4.008   3.986  17.806  0.00  0.00    +0.000 C 
BRANCH  24  25
ATOM     25  C   UNL     1       4.602   3.785  19.207  0.00  0.00    +0.000 C 
BRANCH  25  26
ATOM     26  C   UNL     1       4.320   2.392  19.772  0.00  0.00    +0.000 C 
ATOM     27  C   UNL     1       3.426   2.484  21.002  0.00  0.00    +0.000 C 
ENDBRANCH  25  26
ENDBRANCH  24  25
ENDBRANCH  21  24
ENDBRANCH  16  19
ENDBRANCH   1  13
BRANCH   1  28
ATOM     28  C   UNL     1      -1.412  10.385  18.644  0.00  0.00    +0.000 A 
ATOM     29  C   UNL     1      -1.285   9.732  17.414  0.00  0.00    +0.000 A 
ATOM     30  C   UNL     1      -2.260   9.842  16.423  0.00  0.00    +0.000 A 
ATOM     31  C   UNL     1      -3.396  10.617  16.650  0.00  0.00    +0.000 A 
ATOM     32  C   UNL     1      -3.548  11.301  17.852  0.00  0.00    +0.000 A 
ATOM     33  C   UNL     1      -2.566  11.192  18.834  0.00  0.00    +0.000 A 
BRANCH  32  34
ATOM     34  O   UNL     1      -4.714  12.009  17.955  0.00  0.00    +0.000 OA
ATOM     35  C   UNL     1      -5.088  12.450  19.254  0.00  0.00    +0.000 C 
ENDBRANCH  32  34
ENDBRANCH   1  28
TORSDOF 11
ENDMDL
MODEL 4
REMARK VINA RESULT:      -7.3      1.219      1.751
REMARK  Name = 
REMARK  16 active torsions:
REMARK  status: ('A' for Active; 'I' for Inactive)
REMARK    1  A    between atoms: C_2  and  C_3
REMARK    2  A    between atoms: C_3  and  N_4
REMARK    3  A    between atoms: C_6  and  C_7
REMARK    4  A    between atoms: N_8  and  C_9
REMARK    5  A    between atoms: C_9  and  C_10
REMARK    6  A    between atoms: C_9  and  C_25
REMARK    7  A    between atoms: C_13  and  C_14
REMARK    8  A    between atoms: N_16  and  C_17
REMARK    9  A    between atoms: N_16  and  C_19
REMARK   10  A    between atoms: C_17  and  C_18
REMARK   11  A    between atoms: C_19  and  C_20
REMARK   12  A    between atoms: C_20  and  C_21
REMARK   13  A    between atoms: C_21  and  C_22
REMARK   14  A    between atoms: C_29  and  O_30
REMARK   15  A    between atoms: O_30  and  C_31
REMARK   16  A    between atoms: C_34  and  C_35
REMARK                            x       y       z     vdW  Elec       q    Type
REMARK                         _______ _______ _______ _____ _____    ______ ____
ROOT
ATOM      1  C   UNL     1      -0.349  10.420  19.785  0.00  0.00    +0.000 C 
ENDROOT
BRANCH   1   6
ATOM      2  N   UNL     1      -0.054  14.649  20.939  0.00  0.00    +0.000 NA
ATOM      3  C   UNL     1      -0.340  13.656  21.997  0.00  0.00    +0.000 C 
ATOM      4  C   UNL     1      -0.786  12.240  21.500  0.00  0.00    +0.000 C 
ATOM      5  C   UNL     1      -0.893  11.350  22.749  0.00  0.00    +0.000 C 
ATOM      6  N   UNL     1       0.129  11.654  20.500  0.00  0.00    +0.000 NA
ATOM      7  C   UNL     1       0.819  12.631  19.649  0.00  0.00    +0.000 C 
ATOM      8  C   UNL     1       1.046  14.088  20.125  0.00  0.00    +0.000 C 
ATOM      9  C   UNL     1       1.432  14.927  18.892  0.00  0.00    +0.000 C 
BRANCH   2  10
ATOM     10  C   UNL     1      -1.249  15.011  20.169  0.00  0.00    +0.000 C 
BRANCH  10  12
ATOM     11  C   UNL     1      -3.512  15.368  21.206  0.00  0.00    +0.000 C 
ATOM     12  C   UNL     1      -2.257  15.777  20.978  0.00  0.00    +0.000 C 
ENDBRANCH  10  12
ENDBRANCH   2  10
ENDBRANCH   1   6
BRANCH   1  13
ATOM     13  C   UNL     1       0.819   9.487  19.377  0.00  0.00    +0.000 A 
ATOM     14  C   UNL     1       1.341   8.534  20.261  0.00  0.00    +0.000 A 
ATOM     15  C   UNL     1       2.137   7.486  19.794  0.00  0.00    +0.000 A 
ATOM     16  C   UNL     1       2.546   7.407  18.452  0.00  0.00    +0.000 A 
ATOM     17  C   UNL     1       2.225   8.498  17.639  0.00  0.00    +0.000 A 
ATOM     18  C   UNL     1       1.348   9.509  18.084  0.00  0.00    +0.000 A 
BRANCH  16  19
ATOM     19  C   UNL     1       3.187   6.096  18.053  0.00  0.00    +0.000 C 
ATOM     20  O   UNL     1       2.634   5.074  18.481  0.00  0.00    +0.000 OA
ATOM     21  N   UNL     1       4.263   5.964  17.149  0.00  0.00    +0.000 N 
BRANCH  21  22
ATOM     22  C   UNL     1       5.142   7.054  16.729  0.00  0.00    +0.000 C 
ATOM     23  C   UNL     1       6.479   7.218  17.435  0.00  0.00    +0.000 C 
ENDBRANCH  21  22
BRANCH  21  24
ATOM     24  C   UNL     1       4.376   4.640  16.500  0.00  0.00    +0.000 C 
BRANCH  24  25
ATOM     25  C   UNL     1       5.768   4.026  16.699  0.00  0.00    +0.000 C 
BRANCH  25  26
ATOM     26  C   UNL     1       6.627   4.091  15.436  0.00  0.00    +0.000 C 
ATOM     27  C   UNL     1       5.747   4.181  14.195  0.00  0.00    +0.000 C 
ENDBRANCH  25  26
ENDBRANCH  24  25
ENDBRANCH  21  24
ENDBRANCH  16  19
ENDBRANCH   1  13
BRANCH   1  28
ATOM     28  C   UNL     1      -1.346  10.568  18.622  0.00  0.00    +0.000 A 
ATOM     29  C   UNL     1      -1.269   9.868  17.414  0.00  0.00    +0.000 A 
ATOM     30  C   UNL     1      -2.293   9.924  16.469  0.00  0.00    +0.000 A 
ATOM     31  C   UNL     1      -3.429  10.691  16.722  0.00  0.00    +0.000 A 
ATOM     32  C   UNL     1      -3.533  11.420  17.902  0.00  0.00    +0.000 A 
ATOM     33  C   UNL     1      -2.502  11.365  18.837  0.00  0.00    +0.000 A 
BRANCH  32  34
ATOM     34  O   UNL     1      -4.704  12.115  18.035  0.00  0.00    +0.000 OA
ATOM     35  C   UNL     1      -5.712  11.528  18.848  0.00  0.00    +0.000 C 
ENDBRANCH  32  34
ENDBRANCH   1  28
TORSDOF 11
ENDMDL
MODEL 5
REMARK VINA RESULT:      -7.3      1.626      2.757
REMARK  Name = 
REMARK  16 active torsions:
REMARK  status: ('A' for Active; 'I' for Inactive)
REMARK    1  A    between atoms: C_2  and  C_3
REMARK    2  A    between atoms: C_3  and  N_4
REMARK    3  A    between atoms: C_6  and  C_7
REMARK    4  A    between atoms: N_8  and  C_9
REMARK    5  A    between atoms: C_9  and  C_10
REMARK    6  A    between atoms: C_9  and  C_25
REMARK    7  A    between atoms: C_13  and  C_14
REMARK    8  A    between atoms: N_16  and  C_17
REMARK    9  A    between atoms: N_16  and  C_19
REMARK   10  A    between atoms: C_17  and  C_18
REMARK   11  A    between atoms: C_19  and  C_20
REMARK   12  A    between atoms: C_20  and  C_21
REMARK   13  A    between atoms: C_21  and  C_22
REMARK   14  A    between atoms: C_29  and  O_30
REMARK   15  A    between atoms: O_30  and  C_31
REMARK   16  A    between atoms: C_34  and  C_35
REMARK                            x       y       z     vdW  Elec       q    Type
REMARK                         _______ _______ _______ _____ _____    ______ ____
ROOT
ATOM      1  C   UNL     1      -0.511  10.799  19.948  0.00  0.00    +0.000 C 
ENDROOT
BRANCH   1   6
ATOM      2  N   UNL     1       0.310  15.112  20.092  0.00  0.00    +0.000 NA
ATOM      3  C   UNL     1      -0.461  14.512  21.203  0.00  0.00    +0.000 C 
ATOM      4  C   UNL     1      -1.030  13.077  20.939  0.00  0.00    +0.000 C 
ATOM      5  C   UNL     1      -1.665  12.608  22.259  0.00  0.00    +0.000 C 
ATOM      6  N   UNL     1      -0.011  12.119  20.464  0.00  0.00    +0.000 NA
ATOM      7  C   UNL     1       1.077  12.716  19.679  0.00  0.00    +0.000 C 
ATOM      8  C   UNL     1       1.454  14.210  19.842  0.00  0.00    +0.000 C 
ATOM      9  C   UNL     1       2.336  14.601  18.640  0.00  0.00    +0.000 C 
BRANCH   2  10
ATOM     10  C   UNL     1      -0.518  15.376  18.911  0.00  0.00    +0.000 C 
BRANCH  10  12
ATOM     11  C   UNL     1      -0.514  17.530  17.612  0.00  0.00    +0.000 C 
ATOM     12  C   UNL     1      -0.815  16.837  18.718  0.00  0.00    +0.000 C 
ENDBRANCH  10  12
ENDBRANCH   2  10
ENDBRANCH   1   6
BRANCH   1  13
ATOM     13  C   UNL     1       0.628   9.761  19.786  0.00  0.00    +0.000 A 
ATOM     14  C   UNL     1       1.003   8.910  20.834  0.00  0.00    +0.000 A 
ATOM     15  C   UNL     1       1.771   7.770  20.589  0.00  0.00    +0.000 A 
ATOM     16  C   UNL     1       2.299   7.490  19.318  0.00  0.00    +0.000 A 
ATOM     17  C   UNL     1       2.126   8.477  18.342  0.00  0.00    +0.000 A 
ATOM     18  C   UNL     1       1.278   9.582  18.561  0.00  0.00    +0.000 A 
BRANCH  16  19
ATOM     19  C   UNL     1       2.890   6.107  19.159  0.00  0.00    +0.000 C 
ATOM     20  O   UNL     1       2.509   5.261  19.978  0.00  0.00    +0.000 OA
ATOM     21  N   UNL     1       3.721   5.700  18.093  0.00  0.00    +0.000 N 
BRANCH  21  22
ATOM     22  C   UNL     1       4.417   6.606  17.181  0.00  0.00    +0.000 C 
ATOM     23  C   UNL     1       5.901   6.383  16.931  0.00  0.00    +0.000 C 
ENDBRANCH  21  22
BRANCH  21  24
ATOM     24  C   UNL     1       3.741   4.244  17.836  0.00  0.00    +0.000 C 
BRANCH  24  25
ATOM     25  C   UNL     1       2.372   3.731  17.366  0.00  0.00    +0.000 C 
BRANCH  25  26
ATOM     26  C   UNL     1       2.023   2.363  17.954  0.00  0.00    +0.000 C 
ATOM     27  C   UNL     1       0.782   2.460  18.833  0.00  0.00    +0.000 C 
ENDBRANCH  25  26
ENDBRANCH  24  25
ENDBRANCH  21  24
ENDBRANCH  16  19
ENDBRANCH   1  13
BRANCH   1  28
ATOM     28  C   UNL     1      -1.433  10.777  18.716  0.00  0.00    +0.000 A 
ATOM     29  C   UNL     1      -1.237   9.974  17.589  0.00  0.00    +0.000 A 
ATOM     30  C   UNL     1      -2.196   9.879  16.581  0.00  0.00    +0.000 A 
ATOM     31  C   UNL     1      -3.386  10.597  16.687  0.00  0.00    +0.000 A 
ATOM     32  C   UNL     1      -3.609  11.426  17.782  0.00  0.00    +0.000 A 
ATOM     33  C   UNL     1      -2.643  11.520  18.780  0.00  0.00    +0.000 A 
BRANCH  32  34
ATOM     34  O   UNL     1      -4.822  12.058  17.773  0.00  0.00    +0.000 OA
ATOM     35  C   UNL     1      -5.430  12.302  19.035  0.00  0.00    +0.000 C 
ENDBRANCH  32  34
ENDBRANCH   1  28
TORSDOF 11
ENDMDL
MODEL 6
REMARK VINA RESULT:      -7.3      1.318      1.467
REMARK  Name = 
REMARK  16 active torsions:
REMARK  status: ('A' for Active; 'I' for Inactive)
REMARK    1  A    between atoms: C_2  and  C_3
REMARK    2  A    between atoms: C_3  and  N_4
REMARK    3  A    between atoms: C_6  and  C_7
REMARK    4  A    between atoms: N_8  and  C_9
REMARK    5  A    between atoms: C_9  and  C_10
REMARK    6  A    between atoms: C_9  and  C_25
REMARK    7  A    between atoms: C_13  and  C_14
REMARK    8  A    between atoms: N_16  and  C_17
REMARK    9  A    between atoms: N_16  and  C_19
REMARK   10  A    between atoms: C_17  and  C_18
REMARK   11  A    between atoms: C_19  and  C_20
REMARK   12  A    between atoms: C_20  and  C_21
REMARK   13  A    between atoms: C_21  and  C_22
REMARK   14  A    between atoms: C_29  and  O_30
REMARK   15  A    between atoms: O_30  and  C_31
REMARK   16  A    between atoms: C_34  and  C_35
REMARK                            x       y       z     vdW  Elec       q    Type
REMARK                         _______ _______ _______ _____ _____    ______ ____
ROOT
ATOM      1  C   UNL     1      -0.746  10.509  19.754  0.00  0.00    +0.000 C 
ENDROOT
BRANCH   1   6
ATOM      2  N   UNL     1      -1.283  14.539  21.417  0.00  0.00    +0.000 NA
ATOM      3  C   UNL     1      -1.109  13.413  22.361  0.00  0.00    +0.000 C 
ATOM      4  C   UNL     1      -1.280  11.981  21.752  0.00  0.00    +0.000 C 
ATOM      5  C   UNL     1      -0.924  10.984  22.867  0.00  0.00    +0.000 C 
ATOM      6  N   UNL     1      -0.458  11.754  20.546  0.00  0.00    +0.000 NA
ATOM      7  C   UNL     1      -0.204  12.953  19.738  0.00  0.00    +0.000 C 
ATOM      8  C   UNL     1      -0.256  14.368  20.368  0.00  0.00    +0.000 C 
ATOM      9  C   UNL     1      -0.331  15.388  19.216  0.00  0.00    +0.000 C 
BRANCH   2  10
ATOM     10  C   UNL     1      -2.654  14.638  20.908  0.00  0.00    +0.000 C 
BRANCH  10  12
ATOM     11  C   UNL     1      -3.918  16.774  20.499  0.00  0.00    +0.000 C 
ATOM     12  C   UNL     1      -3.350  15.899  21.339  0.00  0.00    +0.000 C 
ENDBRANCH  10  12
ENDBRANCH   2  10
ENDBRANCH   1   6
BRANCH   1  13
ATOM     13  C   UNL     1       0.542   9.717  19.413  0.00  0.00    +0.000 A 
ATOM     14  C   UNL     1       1.056   8.741  20.276  0.00  0.00    +0.000 A 
ATOM     15  C   UNL     1       1.993   7.809  19.824  0.00  0.00    +0.000 A 
ATOM     16  C   UNL     1       2.547   7.881  18.535  0.00  0.00    +0.000 A 
ATOM     17  C   UNL     1       2.212   9.006  17.776  0.00  0.00    +0.000 A 
ATOM     18  C   UNL     1       1.201   9.895  18.193  0.00  0.00    +0.000 A 
BRANCH  16  19
ATOM     19  C   UNL     1       3.349   6.669  18.114  0.00  0.00    +0.000 C 
ATOM     20  O   UNL     1       3.942   6.766  17.032  0.00  0.00    +0.000 OA
ATOM     21  N   UNL     1       3.560   5.522  18.909  0.00  0.00    +0.000 N 
BRANCH  21  22
ATOM     22  C   UNL     1       2.778   5.168  20.092  0.00  0.00    +0.000 C 
ATOM     23  C   UNL     1       2.395   3.711  20.298  0.00  0.00    +0.000 C 
ENDBRANCH  21  22
BRANCH  21  24
ATOM     24  C   UNL     1       4.760   4.731  18.560  0.00  0.00    +0.000 C 
BRANCH  24  25
ATOM     25  C   UNL     1       6.015   5.261  19.266  0.00  0.00    +0.000 C 
BRANCH  25  26
ATOM     26  C   UNL     1       7.227   5.339  18.335  0.00  0.00    +0.000 C 
ATOM     27  C   UNL     1       7.432   6.766  17.843  0.00  0.00    +0.000 C 
ENDBRANCH  25  26
ENDBRANCH  24  25
ENDBRANCH  21  24
ENDBRANCH  16  19
ENDBRANCH   1  13
BRANCH   1  28
ATOM     28  C   UNL     1      -1.660  10.601  18.520  0.00  0.00    +0.000 A 
ATOM     29  C   UNL     1      -1.486   9.864  17.345  0.00  0.00    +0.000 A 
ATOM     30  C   UNL     1      -2.442   9.871  16.328  0.00  0.00    +0.000 A 
ATOM     31  C   UNL     1      -3.604  10.626  16.475  0.00  0.00    +0.000 A 
ATOM     32  C   UNL     1      -3.802  11.391  17.619  0.00  0.00    +0.000 A 
ATOM     33  C   UNL     1      -2.840  11.384  18.626  0.00  0.00    +0.000 A 
BRANCH  32  34
ATOM     34  O   UNL     1      -4.990  12.070  17.646  0.00  0.00    +0.000 OA
ATOM     35  C   UNL     1      -6.147  11.330  18.015  0.00  0.00    +0.000 C 
ENDBRANCH  32  34
ENDBRANCH   1  28
TORSDOF 11
ENDMDL
MODEL 7
REMARK VINA RESULT:      -7.2      1.140      1.510
REMARK  Name = 
REMARK  16 active torsions:
REMARK  status: ('A' for Active; 'I' for Inactive)
REMARK    1  A    between atoms: C_2  and  C_3
REMARK    2  A    between atoms: C_3  and  N_4
REMARK    3  A    between atoms: C_6  and  C_7
REMARK    4  A    between atoms: N_8  and  C_9
REMARK    5  A    between atoms: C_9  and  C_10
REMARK    6  A    between atoms: C_9  and  C_25
REMARK    7  A    between atoms: C_13  and  C_14
REMARK    8  A    between atoms: N_16  and  C_17
REMARK    9  A    between atoms: N_16  and  C_19
REMARK   10  A    between atoms: C_17  and  C_18
REMARK   11  A    between atoms: C_19  and  C_20
REMARK   12  A    between atoms: C_20  and  C_21
REMARK   13  A    between atoms: C_21  and  C_22
REMARK   14  A    between atoms: C_29  and  O_30
REMARK   15  A    between atoms: O_30  and  C_31
REMARK   16  A    between atoms: C_34  and  C_35
REMARK                            x       y       z     vdW  Elec       q    Type
REMARK                         _______ _______ _______ _____ _____    ______ ____
ROOT
ATOM      1  C   UNL     1      -0.756  10.657  19.829  0.00  0.00    +0.000 C 
ENDROOT
BRANCH   1   6
ATOM      2  N   UNL     1      -1.038  14.794  21.281  0.00  0.00    +0.000 NA
ATOM      3  C   UNL     1      -0.918  13.711  22.282  0.00  0.00    +0.000 C 
ATOM      4  C   UNL     1      -1.180  12.262  21.750  0.00  0.00    +0.000 C 
ATOM      5  C   UNL     1      -0.870  11.305  22.913  0.00  0.00    +0.000 C 
ATOM      6  N   UNL     1      -0.387  11.923  20.551  0.00  0.00    +0.000 NA
ATOM      7  C   UNL     1      -0.073  13.061  19.679  0.00  0.00    +0.000 C 
ATOM      8  C   UNL     1      -0.034  14.508  20.233  0.00  0.00    +0.000 C 
ATOM      9  C   UNL     1      -0.063  15.469  19.030  0.00  0.00    +0.000 C 
BRANCH   2  10
ATOM     10  C   UNL     1      -2.406  14.948  20.779  0.00  0.00    +0.000 C 
BRANCH  10  12
ATOM     11  C   UNL     1      -3.168  17.281  20.231  0.00  0.00    +0.000 C 
ATOM     12  C   UNL     1      -3.007  16.285  21.111  0.00  0.00    +0.000 C 
ENDBRANCH  10  12
ENDBRANCH   2  10
ENDBRANCH   1   6
BRANCH   1  13
ATOM     13  C   UNL     1       0.486   9.819  19.437  0.00  0.00    +0.000 A 
ATOM     14  C   UNL     1       1.047   8.881  20.314  0.00  0.00    +0.000 A 
ATOM     15  C   UNL     1       1.929   7.905  19.848  0.00  0.00    +0.000 A 
ATOM     16  C   UNL     1       2.384   7.890  18.518  0.00  0.00    +0.000 A 
ATOM     17  C   UNL     1       2.011   8.978  17.722  0.00  0.00    +0.000 A 
ATOM     18  C   UNL     1       1.052   9.912  18.163  0.00  0.00    +0.000 A 
BRANCH  16  19
ATOM     19  C   UNL     1       3.128   6.638  18.109  0.00  0.00    +0.000 C 
ATOM     20  O   UNL     1       4.042   6.799  17.289  0.00  0.00    +0.000 OA
ATOM     21  N   UNL     1       2.938   5.361  18.679  0.00  0.00    +0.000 N 
BRANCH  21  22
ATOM     22  C   UNL     1       1.784   4.968  19.486  0.00  0.00    +0.000 C 
ATOM     23  C   UNL     1       2.032   4.214  20.783  0.00  0.00    +0.000 C 
ENDBRANCH  21  22
BRANCH  21  24
ATOM     24  C   UNL     1       4.083   4.437  18.538  0.00  0.00    +0.000 C 
BRANCH  24  25
ATOM     25  C   UNL     1       3.921   3.509  17.326  0.00  0.00    +0.000 C 
BRANCH  25  26
ATOM     26  C   UNL     1       2.963   2.348  17.596  0.00  0.00    +0.000 C 
ATOM     27  C   UNL     1       3.551   1.401  18.634  0.00  0.00    +0.000 C 
ENDBRANCH  25  26
ENDBRANCH  24  25
ENDBRANCH  21  24
ENDBRANCH  16  19
ENDBRANCH   1  13
BRANCH   1  28
ATOM     28  C   UNL     1      -1.746  10.729  18.652  0.00  0.00    +0.000 A 
ATOM     29  C   UNL     1      -1.592  10.047  17.441  0.00  0.00    +0.000 A 
ATOM     30  C   UNL     1      -2.604  10.023  16.481  0.00  0.00    +0.000 A 
ATOM     31  C   UNL     1      -3.804  10.689  16.723  0.00  0.00    +0.000 A 
ATOM     32  C   UNL     1      -3.987  11.397  17.906  0.00  0.00    +0.000 A 
ATOM     33  C   UNL     1      -2.969  11.422  18.855  0.00  0.00    +0.000 A 
BRANCH  32  34
ATOM     34  O   UNL     1      -5.215  11.989  18.026  0.00  0.00    +0.000 OA
ATOM     35  C   UNL     1      -5.793  12.520  16.840  0.00  0.00    +0.000 C 
ENDBRANCH  32  34
ENDBRANCH   1  28
TORSDOF 11
ENDMDL
MODEL 8
REMARK VINA RESULT:      -7.2      1.858      2.810
REMARK  Name = 
REMARK  16 active torsions:
REMARK  status: ('A' for Active; 'I' for Inactive)
REMARK    1  A    between atoms: C_2  and  C_3
REMARK    2  A    between atoms: C_3  and  N_4
REMARK    3  A    between atoms: C_6  and  C_7
REMARK    4  A    between atoms: N_8  and  C_9
REMARK    5  A    between atoms: C_9  and  C_10
REMARK    6  A    between atoms: C_9  and  C_25
REMARK    7  A    between atoms: C_13  and  C_14
REMARK    8  A    between atoms: N_16  and  C_17
REMARK    9  A    between atoms: N_16  and  C_19
REMARK   10  A    between atoms: C_17  and  C_18
REMARK   11  A    between atoms: C_19  and  C_20
REMARK   12  A    between atoms: C_20  and  C_21
REMARK   13  A    between atoms: C_21  and  C_22
REMARK   14  A    between atoms: C_29  and  O_30
REMARK   15  A    between atoms: O_30  and  C_31
REMARK   16  A    between atoms: C_34  and  C_35
REMARK                            x       y       z     vdW  Elec       q    Type
REMARK                         _______ _______ _______ _____ _____    ______ ____
ROOT
ATOM      1  C   UNL     1      -0.026  10.640  20.096  0.00  0.00    +0.000 C 
ENDROOT
BRANCH   1   6
ATOM      2  N   UNL     1       1.248  14.835  19.818  0.00  0.00    +0.000 NA
ATOM      3  C   UNL     1       0.647  14.372  21.088  0.00  0.00    +0.000 C 
ATOM      4  C   UNL     1      -0.107  13.001  21.024  0.00  0.00    +0.000 C 
ATOM      5  C   UNL     1      -0.522  12.661  22.465  0.00  0.00    +0.000 C 
ATOM      6  N   UNL     1       0.697  11.916  20.427  0.00  0.00    +0.000 NA
ATOM      7  C   UNL     1       1.670  12.353  19.418  0.00  0.00    +0.000 C 
ATOM      8  C   UNL     1       2.224  13.800  19.415  0.00  0.00    +0.000 C 
ATOM      9  C   UNL     1       2.894  14.039  18.049  0.00  0.00    +0.000 C 
BRANCH   2  10
ATOM     10  C   UNL     1       0.240  15.143  18.798  0.00  0.00    +0.000 C 
BRANCH  10  12
ATOM     11  C   UNL     1       0.267  17.492  17.900  0.00  0.00    +0.000 C 
ATOM     12  C   UNL     1      -0.165  16.590  18.791  0.00  0.00    +0.000 C 
ENDBRANCH  10  12
ENDBRANCH   2  10
ENDBRANCH   1   6
BRANCH   1  13
ATOM     13  C   UNL     1       0.942   9.510  19.665  0.00  0.00    +0.000 A 
ATOM     14  C   UNL     1       1.284   8.464  20.532  0.00  0.00    +0.000 A 
ATOM     15  C   UNL     1       1.865   7.291  20.044  0.00  0.00    +0.000 A 
ATOM     16  C   UNL     1       2.240   7.155  18.697  0.00  0.00    +0.000 A 
ATOM     17  C   UNL     1       2.122   8.298  17.901  0.00  0.00    +0.000 A 
ATOM     18  C   UNL     1       1.455   9.449  18.366  0.00  0.00    +0.000 A 
BRANCH  16  19
ATOM     19  C   UNL     1       2.620   5.753  18.276  0.00  0.00    +0.000 C 
ATOM     20  O   UNL     1       1.764   5.133  17.631  0.00  0.00    +0.000 OA
ATOM     21  N   UNL     1       3.894   5.171  18.455  0.00  0.00    +0.000 N 
BRANCH  21  22
ATOM     22  C   UNL     1       4.924   5.676  19.360  0.00  0.00    +0.000 C 
ATOM     23  C   UNL     1       6.377   5.614  18.912  0.00  0.00    +0.000 C 
ENDBRANCH  21  22
BRANCH  21  24
ATOM     24  C   UNL     1       4.210   4.061  17.531  0.00  0.00    +0.000 C 
BRANCH  24  25
ATOM     25  C   UNL     1       4.718   4.574  16.177  0.00  0.00    +0.000 C 
BRANCH  25  26
ATOM     26  C   UNL     1       5.951   3.815  15.684  0.00  0.00    +0.000 C 
ATOM     27  C   UNL     1       6.845   4.728  14.856  0.00  0.00    +0.000 C 
ENDBRANCH  25  26
ENDBRANCH  24  25
ENDBRANCH  21  24
ENDBRANCH  16  19
ENDBRANCH   1  13
BRANCH   1  28
ATOM     28  C   UNL     1      -1.241  10.692  19.153  0.00  0.00    +0.000 A 
ATOM     29  C   UNL     1      -2.384  11.467  19.371  0.00  0.00    +0.000 A 
ATOM     30  C   UNL     1      -3.377  11.597  18.400  0.00  0.00    +0.000 A 
ATOM     31  C   UNL     1      -3.239  10.944  17.176  0.00  0.00    +0.000 A 
ATOM     32  C   UNL     1      -2.127  10.145  16.930  0.00  0.00    +0.000 A 
ATOM     33  C   UNL     1      -1.145  10.015  17.908  0.00  0.00    +0.000 A 
BRANCH  32  34
ATOM     34  O   UNL     1      -2.105   9.577  15.685  0.00  0.00    +0.000 OA
ATOM     35  C   UNL     1      -2.983  10.126  14.711  0.00  0.00    +0.000 C 
ENDBRANCH  32  34
ENDBRANCH   1  28
TORSDOF 11
ENDMDL
MODEL 9
REMARK VINA RESULT:      -7.1      1.653      2.410
REMARK  Name = 
REMARK  16 active torsions:
REMARK  status: ('A' for Active; 'I' for Inactive)
REMARK    1  A    between atoms: C_2  and  C_3
REMARK    2  A    between atoms: C_3  and  N_4
REMARK    3  A    between atoms: C_6  and  C_7
REMARK    4  A    between atoms: N_8  and  C_9
REMARK    5  A    between atoms: C_9  and  C_10
REMARK    6  A    between atoms: C_9  and  C_25
REMARK    7  A    between atoms: C_13  and  C_14
REMARK    8  A    between atoms: N_16  and  C_17
REMARK    9  A    between atoms: N_16  and  C_19
REMARK   10  A    between atoms: C_17  and  C_18
REMARK   11  A    between atoms: C_19  and  C_20
REMARK   12  A    between atoms: C_20  and  C_21
REMARK   13  A    between atoms: C_21  and  C_22
REMARK   14  A    between atoms: C_29  and  O_30
REMARK   15  A    between atoms: O_30  and  C_31
REMARK   16  A    between atoms: C_34  and  C_35
REMARK                            x       y       z     vdW  Elec       q    Type
REMARK                         _______ _______ _______ _____ _____    ______ ____
ROOT
ATOM      1  C   UNL     1      -0.315  10.688  19.780  0.00  0.00    +0.000 C 
ENDROOT
BRANCH   1   6
ATOM      2  N   UNL     1       0.456  15.003  20.064  0.00  0.00    +0.000 NA
ATOM      3  C   UNL     1      -0.230  14.343  21.195  0.00  0.00    +0.000 C 
ATOM      4  C   UNL     1      -0.797  12.912  20.905  0.00  0.00    +0.000 C 
ATOM      5  C   UNL     1      -1.337  12.375  22.241  0.00  0.00    +0.000 C 
ATOM      6  N   UNL     1       0.200  11.992  20.321  0.00  0.00    +0.000 NA
ATOM      7  C   UNL     1       1.226  12.640  19.494  0.00  0.00    +0.000 C 
ATOM      8  C   UNL     1       1.594  14.132  19.698  0.00  0.00    +0.000 C 
ATOM      9  C   UNL     1       2.389  14.590  18.461  0.00  0.00    +0.000 C 
BRANCH   2  10
ATOM     10  C   UNL     1      -0.451  15.306  18.953  0.00  0.00    +0.000 C 
BRANCH  10  12
ATOM     11  C   UNL     1      -0.601  17.520  17.768  0.00  0.00    +0.000 C 
ATOM     12  C   UNL     1      -0.796  16.766  18.858  0.00  0.00    +0.000 C 
ENDBRANCH  10  12
ENDBRANCH   2  10
ENDBRANCH   1   6
BRANCH   1  13
ATOM     13  C   UNL     1       0.826   9.685  19.476  0.00  0.00    +0.000 A 
ATOM     14  C   UNL     1       1.261   8.754  20.429  0.00  0.00    +0.000 A 
ATOM     15  C   UNL     1       2.029   7.651  20.052  0.00  0.00    +0.000 A 
ATOM     16  C   UNL     1       2.497   7.487  18.738  0.00  0.00    +0.000 A 
ATOM     17  C   UNL     1       2.265   8.550  17.859  0.00  0.00    +0.000 A 
ATOM     18  C   UNL     1       1.417   9.619  18.211  0.00  0.00    +0.000 A 
BRANCH  16  19
ATOM     19  C   UNL     1       3.094   6.131  18.433  0.00  0.00    +0.000 C 
ATOM     20  O   UNL     1       3.682   6.033  17.348  0.00  0.00    +0.000 OA
ATOM     21  N   UNL     1       3.135   5.044  19.333  0.00  0.00    +0.000 N 
BRANCH  21  22
ATOM     22  C   UNL     1       2.322   4.929  20.543  0.00  0.00    +0.000 C 
ATOM     23  C   UNL     1       0.968   4.243  20.444  0.00  0.00    +0.000 C 
ENDBRANCH  21  22
BRANCH  21  24
ATOM     24  C   UNL     1       4.192   4.047  19.063  0.00  0.00    +0.000 C 
BRANCH  24  25
ATOM     25  C   UNL     1       3.770   3.052  17.973  0.00  0.00    +0.000 C 
BRANCH  25  26
ATOM     26  C   UNL     1       3.227   1.743  18.549  0.00  0.00    +0.000 C 
ATOM     27  C   UNL     1       1.705   1.725  18.492  0.00  0.00    +0.000 C 
ENDBRANCH  25  26
ENDBRANCH  24  25
ENDBRANCH  21  24
ENDBRANCH  16  19
ENDBRANCH   1  13
BRANCH   1  28
ATOM     28  C   UNL     1      -1.333  10.706  18.626  0.00  0.00    +0.000 A 
ATOM     29  C   UNL     1      -1.234   9.932  17.466  0.00  0.00    +0.000 A 
ATOM     30  C   UNL     1      -2.271   9.872  16.535  0.00  0.00    +0.000 A 
ATOM     31  C   UNL     1      -3.442  10.595  16.755  0.00  0.00    +0.000 A 
ATOM     32  C   UNL     1      -3.569  11.395  17.885  0.00  0.00    +0.000 A 
ATOM     33  C   UNL     1      -2.526  11.455  18.806  0.00  0.00    +0.000 A 
BRANCH  32  34
ATOM     34  O   UNL     1      -4.774  12.036  17.990  0.00  0.00    +0.000 OA
ATOM     35  C   UNL     1      -5.918  11.225  18.223  0.00  0.00    +0.000 C 
ENDBRANCH  32  34
ENDBRANCH   1  28
TORSDOF 11
ENDMDL
