MODEL 1
REMARK VINA RESULT:      -7.3      0.000      0.000
REMARK  Name = 
REMARK  1 active torsions:
REMARK  status: ('A' for Active; 'I' for Inactive)
REMARK    1  A    between atoms: C_2  and  C_3
REMARK                            x       y       z     vdW  Elec       q    Type
REMARK                         _______ _______ _______ _____ _____    ______ ____
ROOT
ATOM      1  C   UNL     1       3.973   3.410  17.786  0.00  0.00    +0.000 A 
ATOM      2  C   UNL     1       3.632   2.102  17.528  0.00  0.00    +0.000 A 
ATOM      3  N   UNL     1       2.544   1.796  18.300  0.00  0.00    +0.000 N 
ATOM      4  C   UNL     1       2.167   2.887  19.052  0.00  0.00    +0.000 A 
ATOM      5  C   UNL     1       1.113   3.035  19.962  0.00  0.00    +0.000 A 
ATOM      6  C   UNL     1       0.967   4.277  20.587  0.00  0.00    +0.000 A 
ATOM      7  C   UNL     1       1.844   5.325  20.318  0.00  0.00    +0.000 A 
ATOM      8  C   UNL     1       2.894   5.159  19.407  0.00  0.00    +0.000 A 
ATOM      9  C   UNL     1       3.059   3.920  18.755  0.00  0.00    +0.000 A 
ATOM     10  H   UNL     1       2.074   0.901  18.314  0.00  0.00    +0.000 HD
ENDROOT
BRANCH   1  12
ATOM     11  C   UNL     1       5.108   4.359  15.840  0.00  0.00    +0.000 C 
ATOM     12  C   UNL     1       5.048   4.097  17.155  0.00  0.00    +0.000 C 
ATOM     13  C   UNL     1       6.173   4.499  18.073  0.00  0.00    +0.000 C 
ATOM     14  C   UNL     1       7.458   4.783  17.282  0.00  0.00    +0.000 C 
ATOM     15  N   UNL     1       7.205   5.673  16.148  0.00  0.00    +0.000 NA
ATOM     16  C   UNL     1       6.259   5.077  15.201  0.00  0.00    +0.000 C 
ATOM     17  H   UNL     1       8.079   5.866  15.663  0.00  0.00    +0.000 HD
ENDBRANCH   1  12
TORSDOF 1
ENDMDL
MODEL 2
REMARK VINA RESULT:      -7.1      0.245      1.287
REMARK  Name = 
REMARK  1 active torsions:
REMARK  status: ('A' for Active; 'I' for Inactive)
REMARK    1  A    between atoms: C_2  and  C_3
REMARK                            x       y       z     vdW  Elec       q    Type
REMARK                         _______ _______ _______ _____ _____    ______ ____
ROOT
ATOM      1  C   UNL     1       3.998   3.342  17.928  0.00  0.00    +0.000 A 
ATOM      2  C   UNL     1       3.616   2.056  17.623  0.00  0.00    +0.000 A 
ATOM      3  N   UNL     1       2.480   1.780  18.335  0.00  0.00    +0.000 N 
ATOM      4  C   UNL     1       2.113   2.869  19.094  0.00  0.00    +0.000 A 
ATOM      5  C   UNL     1       1.023   3.042  19.956  0.00  0.00    +0.000 A 
ATOM      6  C   UNL     1       0.899   4.276  20.604  0.00  0.00    +0.000 A 
ATOM      7  C   UNL     1       1.831   5.290  20.401  0.00  0.00    +0.000 A 
ATOM      8  C   UNL     1       2.917   5.100  19.537  0.00  0.00    +0.000 A 
ATOM      9  C   UNL     1       3.061   3.869  18.865  0.00  0.00    +0.000 A 
ATOM     10  H   UNL     1       1.973   0.906  18.305  0.00  0.00    +0.000 HD
ENDROOT
BRANCH   1  12
ATOM     11  C   UNL     1       6.176   4.443  18.080  0.00  0.00    +0.000 C 
ATOM     12  C   UNL     1       5.130   3.996  17.365  0.00  0.00    +0.000 C 
ATOM     13  C   UNL     1       5.073   4.199  15.874  0.00  0.00    +0.000 C 
ATOM     14  C   UNL     1       6.050   5.295  15.426  0.00  0.00    +0.000 C 
ATOM     15  N   UNL     1       7.384   5.091  15.997  0.00  0.00    +0.000 NA
ATOM     16  C   UNL     1       7.351   5.138  17.461  0.00  0.00    +0.000 C 
ATOM     17  H   UNL     1       8.014   5.815  15.658  0.00  0.00    +0.000 HD
ENDBRANCH   1  12
TORSDOF 1
ENDMDL
MODEL 3
REMARK VINA RESULT:      -7.1      1.589      2.310
REMARK  Name = 
REMARK  1 active torsions:
REMARK  status: ('A' for Active; 'I' for Inactive)
REMARK    1  A    between atoms: C_2  and  C_3
REMARK                            x       y       z     vdW  Elec       q    Type
REMARK                         _______ _______ _______ _____ _____    ______ ____
ROOT
ATOM      1  C   UNL     1       3.864   4.710  18.351  0.00  0.00    +0.000 A 
ATOM      2  C   UNL     1       2.930   5.525  17.755  0.00  0.00    +0.000 A 
ATOM      3  N   UNL     1       1.737   5.327  18.395  0.00  0.00    +0.000 N 
ATOM      4  C   UNL     1       1.881   4.400  19.404  0.00  0.00    +0.000 A 
ATOM      5  C   UNL     1       0.940   3.906  20.316  0.00  0.00    +0.000 A 
ATOM      6  C   UNL     1       1.377   2.956  21.246  0.00  0.00    +0.000 A 
ATOM      7  C   UNL     1       2.699   2.516  21.256  0.00  0.00    +0.000 A 
ATOM      8  C   UNL     1       3.625   3.019  20.336  0.00  0.00    +0.000 A 
ATOM      9  C   UNL     1       3.214   3.984  19.393  0.00  0.00    +0.000 A 
ATOM     10  H   UNL     1       0.871   5.798  18.170  0.00  0.00    +0.000 HD
ENDROOT
BRANCH   1  12
ATOM     11  C   UNL     1       6.248   5.100  18.728  0.00  0.00    +0.000 C 
ATOM     12  C   UNL     1       5.234   4.649  17.971  0.00  0.00    +0.000 C 
ATOM     13  C   UNL     1       5.493   4.062  16.609  0.00  0.00    +0.000 C 
ATOM     14  C   UNL     1       6.880   4.462  16.087  0.00  0.00    +0.000 C 
ATOM     15  N   UNL     1       7.919   4.232  17.093  0.00  0.00    +0.000 NA
ATOM     16  C   UNL     1       7.683   5.032  18.297  0.00  0.00    +0.000 C 
ATOM     17  H   UNL     1       8.828   4.477  16.707  0.00  0.00    +0.000 HD
ENDBRANCH   1  12
TORSDOF 1
ENDMDL
MODEL 4
REMARK VINA RESULT:      -7.0      1.888      5.692
REMARK  Name = 
REMARK  1 active torsions:
REMARK  status: ('A' for Active; 'I' for Inactive)
REMARK    1  A    between atoms: C_2  and  C_3
REMARK                            x       y       z     vdW  Elec       q    Type
REMARK                         _______ _______ _______ _____ _____    ______ ____
ROOT
ATOM      1  C   UNL     1       3.076   5.534  18.391  0.00  0.00    +0.000 A 
ATOM      2  C   UNL     1       2.949   6.903  18.447  0.00  0.00    +0.000 A 
ATOM      3  N   UNL     1       3.765   7.435  17.485  0.00  0.00    +0.000 N 
ATOM      4  C   UNL     1       4.417   6.433  16.800  0.00  0.00    +0.000 A 
ATOM      5  C   UNL     1       5.326   6.510  15.738  0.00  0.00    +0.000 A 
ATOM      6  C   UNL     1       5.834   5.309  15.232  0.00  0.00    +0.000 A 
ATOM      7  C   UNL     1       5.451   4.083  15.771  0.00  0.00    +0.000 A 
ATOM      8  C   UNL     1       4.542   4.024  16.834  0.00  0.00    +0.000 A 
ATOM      9  C   UNL     1       4.008   5.220  17.358  0.00  0.00    +0.000 A 
ATOM     10  H   UNL     1       3.872   8.422  17.294  0.00  0.00    +0.000 HD
ENDROOT
BRANCH   1  12
ATOM     11  C   UNL     1       2.592   4.480  20.543  0.00  0.00    +0.000 C 
ATOM     12  C   UNL     1       2.365   4.629  19.228  0.00  0.00    +0.000 C 
ATOM     13  C   UNL     1       1.329   3.792  18.526  0.00  0.00    +0.000 C 
ATOM     14  C   UNL     1       0.964   2.551  19.355  0.00  0.00    +0.000 C 
ATOM     15  N   UNL     1       0.672   2.902  20.746  0.00  0.00    +0.000 NA
ATOM     16  C   UNL     1       1.834   3.510  21.399  0.00  0.00    +0.000 C 
ATOM     17  H   UNL     1       0.405   2.065  21.261  0.00  0.00    +0.000 HD
ENDBRANCH   1  12
TORSDOF 1
ENDMDL
MODEL 5
REMARK VINA RESULT:      -7.0      1.496      2.206
REMARK  Name = 
REMARK  1 active torsions:
REMARK  status: ('A' for Active; 'I' for Inactive)
REMARK    1  A    between atoms: C_2  and  C_3
REMARK                            x       y       z     vdW  Elec       q    Type
REMARK                         _______ _______ _______ _____ _____    ______ ____
ROOT
ATOM      1  C   UNL     1       3.900   5.195  18.269  0.00  0.00    +0.000 A 
ATOM      2  C   UNL     1       3.440   6.454  18.579  0.00  0.00    +0.000 A 
ATOM      3  N   UNL     1       2.346   6.309  19.388  0.00  0.00    +0.000 N 
ATOM      4  C   UNL     1       2.090   4.974  19.616  0.00  0.00    +0.000 A 
ATOM      5  C   UNL     1       1.091   4.365  20.385  0.00  0.00    +0.000 A 
ATOM      6  C   UNL     1       1.075   2.967  20.436  0.00  0.00    +0.000 A 
ATOM      7  C   UNL     1       2.016   2.212  19.740  0.00  0.00    +0.000 A 
ATOM      8  C   UNL     1       3.007   2.837  18.973  0.00  0.00    +0.000 A 
ATOM      9  C   UNL     1       3.051   4.245  18.912  0.00  0.00    +0.000 A 
ATOM     10  H   UNL     1       1.802   7.069  19.774  0.00  0.00    +0.000 HD
ENDROOT
BRANCH   1  12
ATOM     11  C   UNL     1       4.989   4.380  16.238  0.00  0.00    +0.000 C 
ATOM     12  C   UNL     1       5.041   4.936  17.459  0.00  0.00    +0.000 C 
ATOM     13  C   UNL     1       6.362   5.301  18.083  0.00  0.00    +0.000 C 
ATOM     14  C   UNL     1       7.523   4.574  17.389  0.00  0.00    +0.000 C 
ATOM     15  N   UNL     1       7.442   4.704  15.932  0.00  0.00    +0.000 NA
ATOM     16  C   UNL     1       6.210   4.109  15.410  0.00  0.00    +0.000 C 
ATOM     17  H   UNL     1       8.240   4.239  15.504  0.00  0.00    +0.000 HD
ENDBRANCH   1  12
TORSDOF 1
ENDMDL
MODEL 6
REMARK VINA RESULT:      -6.8      1.444      2.547
REMARK  Name = 
REMARK  1 active torsions:
REMARK  status: ('A' for Active; 'I' for Inactive)
REMARK    1  A    between atoms: C_2  and  C_3
REMARK                            x       y       z     vdW  Elec       q    Type
REMARK                         _______ _______ _______ _____ _____    ______ ____
ROOT
ATOM      1  C   UNL     1       4.029   5.020  18.639  0.00  0.00    +0.000 A 
ATOM      2  C   UNL     1       3.771   6.084  19.474  0.00  0.00    +0.000 A 
ATOM      3  N   UNL     1       2.597   5.824  20.127  0.00  0.00    +0.000 N 
ATOM      4  C   UNL     1       2.089   4.605  19.735  0.00  0.00    +0.000 A 
ATOM      5  C   UNL     1       0.929   3.936  20.147  0.00  0.00    +0.000 A 
ATOM      6  C   UNL     1       0.661   2.690  19.571  0.00  0.00    +0.000 A 
ATOM      7  C   UNL     1       1.515   2.141  18.617  0.00  0.00    +0.000 A 
ATOM      8  C   UNL     1       2.669   2.824  18.215  0.00  0.00    +0.000 A 
ATOM      9  C   UNL     1       2.968   4.078  18.787  0.00  0.00    +0.000 A 
ATOM     10  H   UNL     1       2.164   6.433  20.808  0.00  0.00    +0.000 HD
ENDROOT
BRANCH   1  12
ATOM     11  C   UNL     1       6.422   4.695  18.258  0.00  0.00    +0.000 C 
ATOM     12  C   UNL     1       5.177   4.916  17.805  0.00  0.00    +0.000 C 
ATOM     13  C   UNL     1       4.917   5.108  16.334  0.00  0.00    +0.000 C 
ATOM     14  C   UNL     1       6.209   5.456  15.583  0.00  0.00    +0.000 C 
ATOM     15  N   UNL     1       7.295   4.536  15.929  0.00  0.00    +0.000 NA
ATOM     16  C   UNL     1       7.616   4.600  17.357  0.00  0.00    +0.000 C 
ATOM     17  H   UNL     1       8.128   4.774  15.393  0.00  0.00    +0.000 HD
ENDBRANCH   1  12
TORSDOF 1
ENDMDL
MODEL 7
REMARK VINA RESULT:      -6.8      2.014      5.654
REMARK  Name = 
REMARK  1 active torsions:
REMARK  status: ('A' for Active; 'I' for Inactive)
REMARK    1  A    between atoms: C_2  and  C_3
REMARK                            x       y       z     vdW  Elec       q    Type
REMARK                         _______ _______ _______ _____ _____    ______ ____
ROOT
ATOM      1  C   UNL     1       3.197   5.655  18.473  0.00  0.00    +0.000 A 
ATOM      2  C   UNL     1       2.772   6.882  18.019  0.00  0.00    +0.000 A 
ATOM      3  N   UNL     1       3.848   7.512  17.455  0.00  0.00    +0.000 N 
ATOM      4  C   UNL     1       4.967   6.711  17.529  0.00  0.00    +0.000 A 
ATOM      5  C   UNL     1       6.272   6.938  17.074  0.00  0.00    +0.000 A 
ATOM      6  C   UNL     1       7.217   5.931  17.289  0.00  0.00    +0.000 A 
ATOM      7  C   UNL     1       6.872   4.748  17.939  0.00  0.00    +0.000 A 
ATOM      8  C   UNL     1       5.563   4.538  18.390  0.00  0.00    +0.000 A 
ATOM      9  C   UNL     1       4.588   5.534  18.178  0.00  0.00    +0.000 A 
ATOM     10  H   UNL     1       3.830   8.431  17.034  0.00  0.00    +0.000 HD
ENDROOT
BRANCH   1  12
ATOM     11  C   UNL     1       2.332   4.470  20.428  0.00  0.00    +0.000 C 
ATOM     12  C   UNL     1       2.354   4.698  19.106  0.00  0.00    +0.000 C 
ATOM     13  C   UNL     1       1.481   3.903  18.172  0.00  0.00    +0.000 C 
ATOM     14  C   UNL     1       0.985   2.613  18.841  0.00  0.00    +0.000 C 
ATOM     15  N   UNL     1       0.430   2.878  20.170  0.00  0.00    +0.000 NA
ATOM     16  C   UNL     1       1.439   3.448  21.066  0.00  0.00    +0.000 C 
ATOM     17  H   UNL     1       0.083   2.010  20.574  0.00  0.00    +0.000 HD
ENDBRANCH   1  12
TORSDOF 1
ENDMDL
MODEL 8
REMARK VINA RESULT:      -6.7      1.737      5.598
REMARK  Name = 
REMARK  1 active torsions:
REMARK  status: ('A' for Active; 'I' for Inactive)
REMARK    1  A    between atoms: C_2  and  C_3
REMARK                            x       y       z     vdW  Elec       q    Type
REMARK                         _______ _______ _______ _____ _____    ______ ____
ROOT
ATOM      1  C   UNL     1       3.263   5.340  17.969  0.00  0.00    +0.000 A 
ATOM      2  C   UNL     1       3.221   6.712  18.055  0.00  0.00    +0.000 A 
ATOM      3  N   UNL     1       4.192   7.209  17.229  0.00  0.00    +0.000 N 
ATOM      4  C   UNL     1       4.862   6.181  16.601  0.00  0.00    +0.000 A 
ATOM      5  C   UNL     1       5.909   6.221  15.672  0.00  0.00    +0.000 A 
ATOM      6  C   UNL     1       6.398   5.000  15.196  0.00  0.00    +0.000 A 
ATOM      7  C   UNL     1       5.865   3.791  15.637  0.00  0.00    +0.000 A 
ATOM      8  C   UNL     1       4.820   3.770  16.569  0.00  0.00    +0.000 A 
ATOM      9  C   UNL     1       4.302   4.986  17.058  0.00  0.00    +0.000 A 
ATOM     10  H   UNL     1       4.390   8.191  17.088  0.00  0.00    +0.000 HD
ENDROOT
BRANCH   1  12
ATOM     11  C   UNL     1       1.602   3.549  18.085  0.00  0.00    +0.000 C 
ATOM     12  C   UNL     1       2.387   4.466  18.673  0.00  0.00    +0.000 C 
ATOM     13  C   UNL     1       2.361   4.657  20.167  0.00  0.00    +0.000 C 
ATOM     14  C   UNL     1       1.093   4.049  20.782  0.00  0.00    +0.000 C 
ATOM     15  N   UNL     1       0.867   2.683  20.305  0.00  0.00    +0.000 NA
ATOM     16  C   UNL     1       0.681   2.648  18.852  0.00  0.00    +0.000 C 
ATOM     17  H   UNL     1       0.038   2.297  20.753  0.00  0.00    +0.000 HD
ENDBRANCH   1  12
TORSDOF 1
ENDMDL
MODEL 9
REMARK VINA RESULT:      -6.7      1.692      5.242
REMARK  Name = 
REMARK  1 active torsions:
REMARK  status: ('A' for Active; 'I' for Inactive)
REMARK    1  A    between atoms: C_2  and  C_3
REMARK                            x       y       z     vdW  Elec       q    Type
REMARK                         _______ _______ _______ _____ _____    ______ ____
ROOT
ATOM      1  C   UNL     1       4.626   5.302  17.153  0.00  0.00    +0.000 A 
ATOM      2  C   UNL     1       4.600   6.072  16.014  0.00  0.00    +0.000 A 
ATOM      3  N   UNL     1       5.705   6.879  16.033  0.00  0.00    +0.000 N 
ATOM      4  C   UNL     1       6.454   6.641  17.164  0.00  0.00    +0.000 A 
ATOM      5  C   UNL     1       7.658   7.219  17.588  0.00  0.00    +0.000 A 
ATOM      6  C   UNL     1       8.199   6.774  18.799  0.00  0.00    +0.000 A 
ATOM      7  C   UNL     1       7.557   5.797  19.556  0.00  0.00    +0.000 A 
ATOM      8  C   UNL     1       6.353   5.232  19.119  0.00  0.00    +0.000 A 
ATOM      9  C   UNL     1       5.790   5.656  17.898  0.00  0.00    +0.000 A 
ATOM     10  H   UNL     1       5.948   7.550  15.317  0.00  0.00    +0.000 HD
ENDROOT
BRANCH   1  12
ATOM     11  C   UNL     1       2.393   4.607  17.867  0.00  0.00    +0.000 C 
ATOM     12  C   UNL     1       3.647   4.322  17.480  0.00  0.00    +0.000 C 
ATOM     13  C   UNL     1       4.122   2.895  17.399  0.00  0.00    +0.000 C 
ATOM     14  C   UNL     1       3.207   1.959  18.202  0.00  0.00    +0.000 C 
ATOM     15  N   UNL     1       1.795   2.186  17.883  0.00  0.00    +0.000 NA
ATOM     16  C   UNL     1       1.385   3.553  18.215  0.00  0.00    +0.000 C 
ATOM     17  H   UNL     1       1.218   1.532  18.407  0.00  0.00    +0.000 HD
ENDBRANCH   1  12
TORSDOF 1
ENDMDL
