MODEL 1
REMARK VINA RESULT:      -7.3      0.000      0.000
REMARK  Name = 
REMARK  3 active torsions:
REMARK  status: ('A' for Active; 'I' for Inactive)
REMARK    1  A    between atoms: C_2  and  C_14
REMARK    2  A    between atoms: C_4  and  C_6
REMARK    3  A    between atoms: C_18  and  C_19
REMARK                            x       y       z     vdW  Elec       q    Type
REMARK                         _______ _______ _______ _____ _____    ______ ____
ROOT
ATOM      1  O   UNL     1       2.084   5.997  20.634  0.00  0.00    +0.000 OA
ATOM      2  C   UNL     1       2.469   6.650  19.671  0.00  0.00    +0.000 C 
ATOM      3  N   UNL     1       3.449   6.195  18.791  0.00  0.00    +0.000 N 
ATOM      4  C   UNL     1       4.015   4.931  18.848  0.00  0.00    +0.000 C 
ATOM      5  O   UNL     1       3.709   4.078  19.674  0.00  0.00    +0.000 OA
ATOM      6  H   UNL     1       3.773   6.830  18.079  0.00  0.00    +0.000 HD
ENDROOT
BRANCH   4   7
ATOM      7  C   UNL     1       5.086   4.610  17.865  0.00  0.00    +0.000 A 
ATOM      8  C   UNL     1       4.751   4.037  16.633  0.00  0.00    +0.000 A 
ATOM      9  F   UNL     1       3.492   3.642  16.385  0.00  0.00    +0.000 F 
ATOM     10  C   UNL     1       5.697   3.863  15.622  0.00  0.00    +0.000 A 
ATOM     11  C   UNL     1       7.014   4.261  15.835  0.00  0.00    +0.000 A 
ATOM     12  C   UNL     1       7.380   4.797  17.068  0.00  0.00    +0.000 A 
ATOM     13  C   UNL     1       6.429   4.966  18.084  0.00  0.00    +0.000 A 
ATOM     14 CL   UNL     1       7.037   5.562  19.591  0.00  0.00    +0.000 Cl
ENDBRANCH   4   7
BRANCH   2  15
ATOM     15  C   UNL     1       1.914   7.956  19.377  0.00  0.00    +0.000 A 
ATOM     16  S   UNL     1       2.202   8.775  17.895  0.00  0.00    +0.000 S 
ATOM     17  N   UNL     1       1.180  10.036  18.263  0.00  0.00    +0.000 NA
ATOM     18  N   UNL     1       0.650   9.929  19.467  0.00  0.00    +0.000 NA
ATOM     19  C   UNL     1       1.073   8.777  20.122  0.00  0.00    +0.000 A 
BRANCH  19  20
ATOM     20  C   UNL     1       0.574   8.469  21.540  0.00  0.00    +0.000 C 
ATOM     21  C   UNL     1       1.079   9.304  22.705  0.00  0.00    +0.000 C 
ATOM     22  C   UNL     1      -0.311   9.502  22.209  0.00  0.00    +0.000 C 
ENDBRANCH  19  20
ENDBRANCH   2  15
TORSDOF 3
ENDMDL
MODEL 2
REMARK VINA RESULT:      -7.3      2.656      3.362
REMARK  Name = 
REMARK  3 active torsions:
REMARK  status: ('A' for Active; 'I' for Inactive)
REMARK    1  A    between atoms: C_2  and  C_14
REMARK    2  A    between atoms: C_4  and  C_6
REMARK    3  A    between atoms: C_18  and  C_19
REMARK                            x       y       z     vdW  Elec       q    Type
REMARK                         _______ _______ _______ _____ _____    ______ ____
ROOT
ATOM      1  O   UNL     1       2.462   9.252  17.766  0.00  0.00    +0.000 OA
ATOM      2  C   UNL     1       1.947   8.564  18.639  0.00  0.00    +0.000 C 
ATOM      3  N   UNL     1       2.175   7.195  18.757  0.00  0.00    +0.000 N 
ATOM      4  C   UNL     1       3.075   6.488  17.973  0.00  0.00    +0.000 C 
ATOM      5  O   UNL     1       3.770   6.996  17.099  0.00  0.00    +0.000 OA
ATOM      6  H   UNL     1       1.643   6.687  19.446  0.00  0.00    +0.000 HD
ENDROOT
BRANCH   4   7
ATOM      7  C   UNL     1       3.172   5.019  18.188  0.00  0.00    +0.000 A 
ATOM      8  C   UNL     1       2.139   4.183  17.752  0.00  0.00    +0.000 A 
ATOM      9  F   UNL     1       0.997   4.702  17.273  0.00  0.00    +0.000 F 
ATOM     10  C   UNL     1       2.254   2.792  17.790  0.00  0.00    +0.000 A 
ATOM     11  C   UNL     1       3.421   2.210  18.276  0.00  0.00    +0.000 A 
ATOM     12  C   UNL     1       4.448   3.023  18.752  0.00  0.00    +0.000 A 
ATOM     13  C   UNL     1       4.328   4.419  18.719  0.00  0.00    +0.000 A 
ATOM     14 CL   UNL     1       5.640   5.303  19.421  0.00  0.00    +0.000 Cl
ENDBRANCH   4   7
BRANCH   2  15
ATOM     15  C   UNL     1       1.059   9.143  19.627  0.00  0.00    +0.000 A 
ATOM     16  S   UNL     1       1.218   8.839  21.310  0.00  0.00    +0.000 S 
ATOM     17  N   UNL     1       0.006   9.900  21.731  0.00  0.00    +0.000 NA
ATOM     18  N   UNL     1      -0.572  10.456  20.683  0.00  0.00    +0.000 NA
ATOM     19  C   UNL     1      -0.012  10.021  19.487  0.00  0.00    +0.000 A 
BRANCH  19  20
ATOM     20  C   UNL     1      -0.549  10.546  18.148  0.00  0.00    +0.000 C 
ATOM     21  C   UNL     1      -1.856   9.997  17.603  0.00  0.00    +0.000 C 
ATOM     22  C   UNL     1      -1.821  11.369  18.180  0.00  0.00    +0.000 C 
ENDBRANCH  19  20
ENDBRANCH   2  15
TORSDOF 3
ENDMDL
MODEL 3
REMARK VINA RESULT:      -7.1      2.884      6.866
REMARK  Name = 
REMARK  3 active torsions:
REMARK  status: ('A' for Active; 'I' for Inactive)
REMARK    1  A    between atoms: C_2  and  C_14
REMARK    2  A    between atoms: C_4  and  C_6
REMARK    3  A    between atoms: C_18  and  C_19
REMARK                            x       y       z     vdW  Elec       q    Type
REMARK                         _______ _______ _______ _____ _____    ______ ____
ROOT
ATOM      1  O   UNL     1       3.876   3.995  19.325  0.00  0.00    +0.000 OA
ATOM      2  C   UNL     1       4.464   4.989  18.912  0.00  0.00    +0.000 C 
ATOM      3  N   UNL     1       3.875   6.250  18.866  0.00  0.00    +0.000 N 
ATOM      4  C   UNL     1       2.615   6.537  19.368  0.00  0.00    +0.000 C 
ATOM      5  O   UNL     1       1.888   5.712  19.911  0.00  0.00    +0.000 OA
ATOM      6  H   UNL     1       4.394   6.996  18.429  0.00  0.00    +0.000 HD
ENDROOT
BRANCH   4   7
ATOM      7  C   UNL     1       2.105   7.925  19.200  0.00  0.00    +0.000 A 
ATOM      8  C   UNL     1       2.259   8.580  17.973  0.00  0.00    +0.000 A 
ATOM      9  F   UNL     1       2.988   8.026  16.992  0.00  0.00    +0.000 F 
ATOM     10  C   UNL     1       1.662   9.816  17.720  0.00  0.00    +0.000 A 
ATOM     11  C   UNL     1       0.895  10.426  18.709  0.00  0.00    +0.000 A 
ATOM     12  C   UNL     1       0.760   9.811  19.952  0.00  0.00    +0.000 A 
ATOM     13  C   UNL     1       1.365   8.572  20.206  0.00  0.00    +0.000 A 
ATOM     14 CL   UNL     1       1.188   7.967  21.817  0.00  0.00    +0.000 Cl
ENDBRANCH   4   7
BRANCH   2  15
ATOM     15  C   UNL     1       5.834   4.913  18.446  0.00  0.00    +0.000 A 
ATOM     16  S   UNL     1       7.176   5.316  19.439  0.00  0.00    +0.000 S 
ATOM     17  N   UNL     1       8.300   4.863  18.299  0.00  0.00    +0.000 NA
ATOM     18  N   UNL     1       7.748   4.461  17.169  0.00  0.00    +0.000 NA
ATOM     19  C   UNL     1       6.359   4.510  17.222  0.00  0.00    +0.000 A 
BRANCH  19  20
ATOM     20  C   UNL     1       5.526   4.088  16.004  0.00  0.00    +0.000 C 
ATOM     21  C   UNL     1       5.405   5.034  14.821  0.00  0.00    +0.000 C 
ATOM     22  C   UNL     1       6.267   3.824  14.708  0.00  0.00    +0.000 C 
ENDBRANCH  19  20
ENDBRANCH   2  15
TORSDOF 3
ENDMDL
MODEL 4
REMARK VINA RESULT:      -7.0      3.670      6.146
REMARK  Name = 
REMARK  3 active torsions:
REMARK  status: ('A' for Active; 'I' for Inactive)
REMARK    1  A    between atoms: C_2  and  C_14
REMARK    2  A    between atoms: C_4  and  C_6
REMARK    3  A    between atoms: C_18  and  C_19
REMARK                            x       y       z     vdW  Elec       q    Type
REMARK                         _______ _______ _______ _____ _____    ______ ____
ROOT
ATOM      1  O   UNL     1       3.995   7.464  16.593  0.00  0.00    +0.000 OA
ATOM      2  C   UNL     1       4.422   6.329  16.778  0.00  0.00    +0.000 C 
ATOM      3  N   UNL     1       3.750   5.385  17.551  0.00  0.00    +0.000 N 
ATOM      4  C   UNL     1       2.495   5.587  18.104  0.00  0.00    +0.000 C 
ATOM      5  O   UNL     1       1.841   6.615  17.965  0.00  0.00    +0.000 OA
ATOM      6  H   UNL     1       4.213   4.507  17.728  0.00  0.00    +0.000 HD
ENDROOT
BRANCH   4   7
ATOM      7  C   UNL     1       1.928   4.498  18.946  0.00  0.00    +0.000 A 
ATOM      8  C   UNL     1       1.818   3.203  18.427  0.00  0.00    +0.000 A 
ATOM      9  F   UNL     1       2.082   2.962  17.133  0.00  0.00    +0.000 F 
ATOM     10  C   UNL     1       1.440   2.122  19.225  0.00  0.00    +0.000 A 
ATOM     11  C   UNL     1       1.160   2.325  20.573  0.00  0.00    +0.000 A 
ATOM     12  C   UNL     1       1.226   3.612  21.103  0.00  0.00    +0.000 A 
ATOM     13  C   UNL     1       1.599   4.698  20.298  0.00  0.00    +0.000 A 
ATOM     14 CL   UNL     1       1.554   6.250  21.063  0.00  0.00    +0.000 Cl
ENDBRANCH   4   7
BRANCH   2  15
ATOM     15  C   UNL     1       5.671   5.890  16.188  0.00  0.00    +0.000 A 
ATOM     16  S   UNL     1       5.771   5.250  14.597  0.00  0.00    +0.000 S 
ATOM     17  N   UNL     1       7.430   5.132  14.628  0.00  0.00    +0.000 NA
ATOM     18  N   UNL     1       7.947   5.497  15.786  0.00  0.00    +0.000 NA
ATOM     19  C   UNL     1       6.969   5.901  16.689  0.00  0.00    +0.000 A 
BRANCH  19  20
ATOM     20  C   UNL     1       7.363   6.359  18.100  0.00  0.00    +0.000 C 
ATOM     21  C   UNL     1       6.801   5.626  19.306  0.00  0.00    +0.000 C 
ATOM     22  C   UNL     1       8.226   5.424  18.923  0.00  0.00    +0.000 C 
ENDBRANCH  19  20
ENDBRANCH   2  15
TORSDOF 3
ENDMDL
MODEL 5
REMARK VINA RESULT:      -7.0      3.127      6.417
REMARK  Name = 
REMARK  3 active torsions:
REMARK  status: ('A' for Active; 'I' for Inactive)
REMARK    1  A    between atoms: C_2  and  C_14
REMARK    2  A    between atoms: C_4  and  C_6
REMARK    3  A    between atoms: C_18  and  C_19
REMARK                            x       y       z     vdW  Elec       q    Type
REMARK                         _______ _______ _______ _____ _____    ______ ____
ROOT
ATOM      1  O   UNL     1       4.091   3.144  16.780  0.00  0.00    +0.000 OA
ATOM      2  C   UNL     1       4.505   4.292  16.896  0.00  0.00    +0.000 C 
ATOM      3  N   UNL     1       3.875   5.247  17.691  0.00  0.00    +0.000 N 
ATOM      4  C   UNL     1       2.785   4.981  18.506  0.00  0.00    +0.000 C 
ATOM      5  O   UNL     1       2.265   3.875  18.618  0.00  0.00    +0.000 OA
ATOM      6  H   UNL     1       4.227   6.191  17.661  0.00  0.00    +0.000 HD
ENDROOT
BRANCH   4   7
ATOM      7  C   UNL     1       2.193   6.119  19.261  0.00  0.00    +0.000 A 
ATOM      8  C   UNL     1       1.612   5.895  20.514  0.00  0.00    +0.000 A 
ATOM      9  F   UNL     1       1.453   4.646  20.979  0.00  0.00    +0.000 F 
ATOM     10  C   UNL     1       1.185   6.949  21.324  0.00  0.00    +0.000 A 
ATOM     11  C   UNL     1       1.333   8.261  20.883  0.00  0.00    +0.000 A 
ATOM     12  C   UNL     1       1.873   8.506  19.622  0.00  0.00    +0.000 A 
ATOM     13  C   UNL     1       2.295   7.446  18.807  0.00  0.00    +0.000 A 
ATOM     14 CL   UNL     1       2.865   7.889  17.234  0.00  0.00    +0.000 Cl
ENDBRANCH   4   7
BRANCH   2  15
ATOM     15  C   UNL     1       5.701   4.734  16.208  0.00  0.00    +0.000 A 
ATOM     16  S   UNL     1       6.133   4.172  14.643  0.00  0.00    +0.000 S 
ATOM     17  N   UNL     1       7.448   5.182  14.519  0.00  0.00    +0.000 NA
ATOM     18  N   UNL     1       7.640   5.907  15.606  0.00  0.00    +0.000 NA
ATOM     19  C   UNL     1       6.682   5.647  16.581  0.00  0.00    +0.000 A 
BRANCH  19  20
ATOM     20  C   UNL     1       6.732   6.384  17.926  0.00  0.00    +0.000 C 
ATOM     21  C   UNL     1       7.720   5.931  18.988  0.00  0.00    +0.000 C 
ATOM     22  C   UNL     1       7.978   7.190  18.236  0.00  0.00    +0.000 C 
ENDBRANCH  19  20
ENDBRANCH   2  15
TORSDOF 3
ENDMDL
MODEL 6
REMARK VINA RESULT:      -6.9      3.685      6.491
REMARK  Name = 
REMARK  3 active torsions:
REMARK  status: ('A' for Active; 'I' for Inactive)
REMARK    1  A    between atoms: C_2  and  C_14
REMARK    2  A    between atoms: C_4  and  C_6
REMARK    3  A    between atoms: C_18  and  C_19
REMARK                            x       y       z     vdW  Elec       q    Type
REMARK                         _______ _______ _______ _____ _____    ______ ____
ROOT
ATOM      1  O   UNL     1       3.627   7.825  17.237  0.00  0.00    +0.000 OA
ATOM      2  C   UNL     1       4.325   6.840  17.449  0.00  0.00    +0.000 C 
ATOM      3  N   UNL     1       3.882   5.744  18.185  0.00  0.00    +0.000 N 
ATOM      4  C   UNL     1       2.589   5.603  18.666  0.00  0.00    +0.000 C 
ATOM      5  O   UNL     1       1.697   6.426  18.487  0.00  0.00    +0.000 OA
ATOM      6  H   UNL     1       4.547   5.015  18.390  0.00  0.00    +0.000 HD
ENDROOT
BRANCH   4   7
ATOM      7  C   UNL     1       2.281   4.394  19.477  0.00  0.00    +0.000 A 
ATOM      8  C   UNL     1       2.047   4.519  20.851  0.00  0.00    +0.000 A 
ATOM      9  F   UNL     1       2.238   5.694  21.471  0.00  0.00    +0.000 F 
ATOM     10  C   UNL     1       1.604   3.443  21.622  0.00  0.00    +0.000 A 
ATOM     11  C   UNL     1       1.390   2.206  21.019  0.00  0.00    +0.000 A 
ATOM     12  C   UNL     1       1.654   2.048  19.661  0.00  0.00    +0.000 A 
ATOM     13  C   UNL     1       2.105   3.128  18.890  0.00  0.00    +0.000 A 
ATOM     14 CL   UNL     1       2.476   2.769  17.238  0.00  0.00    +0.000 Cl
ENDBRANCH   4   7
BRANCH   2  15
ATOM     15  C   UNL     1       5.675   6.749  16.932  0.00  0.00    +0.000 A 
ATOM     16  S   UNL     1       6.959   7.734  17.510  0.00  0.00    +0.000 S 
ATOM     17  N   UNL     1       8.111   6.974  16.581  0.00  0.00    +0.000 NA
ATOM     18  N   UNL     1       7.603   6.037  15.803  0.00  0.00    +0.000 NA
ATOM     19  C   UNL     1       6.227   5.915  15.965  0.00  0.00    +0.000 A 
BRANCH  19  20
ATOM     20  C   UNL     1       5.442   4.882  15.144  0.00  0.00    +0.000 C 
ATOM     21  C   UNL     1       6.186   3.982  14.172  0.00  0.00    +0.000 C 
ATOM     22  C   UNL     1       5.679   3.417  15.453  0.00  0.00    +0.000 C 
ENDBRANCH  19  20
ENDBRANCH   2  15
TORSDOF 3
ENDMDL
MODEL 7
REMARK VINA RESULT:      -6.8      2.964      7.125
REMARK  Name = 
REMARK  3 active torsions:
REMARK  status: ('A' for Active; 'I' for Inactive)
REMARK    1  A    between atoms: C_2  and  C_14
REMARK    2  A    between atoms: C_4  and  C_6
REMARK    3  A    between atoms: C_18  and  C_19
REMARK                            x       y       z     vdW  Elec       q    Type
REMARK                         _______ _______ _______ _____ _____    ______ ____
ROOT
ATOM      1  O   UNL     1       3.704   4.033  16.738  0.00  0.00    +0.000 OA
ATOM      2  C   UNL     1       4.381   4.833  17.374  0.00  0.00    +0.000 C 
ATOM      3  N   UNL     1       3.827   5.886  18.096  0.00  0.00    +0.000 N 
ATOM      4  C   UNL     1       2.464   6.085  18.257  0.00  0.00    +0.000 C 
ATOM      5  O   UNL     1       1.603   5.349  17.785  0.00  0.00    +0.000 OA
ATOM      6  H   UNL     1       4.457   6.551  18.517  0.00  0.00    +0.000 HD
ENDROOT
BRANCH   4   7
ATOM      7  C   UNL     1       2.026   7.286  19.019  0.00  0.00    +0.000 A 
ATOM      8  C   UNL     1       1.924   8.522  18.371  0.00  0.00    +0.000 A 
ATOM      9  F   UNL     1       2.355   8.667  17.108  0.00  0.00    +0.000 F 
ATOM     10  C   UNL     1       1.372   9.638  19.001  0.00  0.00    +0.000 A 
ATOM     11  C   UNL     1       0.910   9.532  20.310  0.00  0.00    +0.000 A 
ATOM     12  C   UNL     1       1.036   8.321  20.989  0.00  0.00    +0.000 A 
ATOM     13  C   UNL     1       1.598   7.203  20.356  0.00  0.00    +0.000 A 
ATOM     14 CL   UNL     1       1.773   5.792  21.342  0.00  0.00    +0.000 Cl
ENDBRANCH   4   7
BRANCH   2  15
ATOM     15  C   UNL     1       5.826   4.725  17.421  0.00  0.00    +0.000 A 
ATOM     16  S   UNL     1       6.736   5.074  18.835  0.00  0.00    +0.000 S 
ATOM     17  N   UNL     1       8.182   4.607  18.156  0.00  0.00    +0.000 NA
ATOM     18  N   UNL     1       8.058   4.239  16.894  0.00  0.00    +0.000 NA
ATOM     19  C   UNL     1       6.742   4.327  16.453  0.00  0.00    +0.000 A 
BRANCH  19  20
ATOM     20  C   UNL     1       6.386   3.950  15.008  0.00  0.00    +0.000 C 
ATOM     21  C   UNL     1       5.687   4.968  14.123  0.00  0.00    +0.000 C 
ATOM     22  C   UNL     1       7.128   4.666  13.896  0.00  0.00    +0.000 C 
ENDBRANCH  19  20
ENDBRANCH   2  15
TORSDOF 3
ENDMDL
MODEL 8
REMARK VINA RESULT:      -6.8      3.056      3.825
REMARK  Name = 
REMARK  3 active torsions:
REMARK  status: ('A' for Active; 'I' for Inactive)
REMARK    1  A    between atoms: C_2  and  C_14
REMARK    2  A    between atoms: C_4  and  C_6
REMARK    3  A    between atoms: C_18  and  C_19
REMARK                            x       y       z     vdW  Elec       q    Type
REMARK                         _______ _______ _______ _____ _____    ______ ____
ROOT
ATOM      1  O   UNL     1       2.367   9.305  17.640  0.00  0.00    +0.000 OA
ATOM      2  C   UNL     1       1.966   8.641  18.589  0.00  0.00    +0.000 C 
ATOM      3  N   UNL     1       2.362   7.325  18.812  0.00  0.00    +0.000 N 
ATOM      4  C   UNL     1       3.316   6.663  18.054  0.00  0.00    +0.000 C 
ATOM      5  O   UNL     1       3.917   7.169  17.112  0.00  0.00    +0.000 OA
ATOM      6  H   UNL     1       1.917   6.820  19.563  0.00  0.00    +0.000 HD
ENDROOT
BRANCH   4   7
ATOM      7  C   UNL     1       3.597   5.239  18.387  0.00  0.00    +0.000 A 
ATOM      8  C   UNL     1       4.813   4.892  18.986  0.00  0.00    +0.000 A 
ATOM      9  F   UNL     1       5.787   5.805  19.131  0.00  0.00    +0.000 F 
ATOM     10  C   UNL     1       5.057   3.601  19.457  0.00  0.00    +0.000 A 
ATOM     11  C   UNL     1       4.074   2.623  19.329  0.00  0.00    +0.000 A 
ATOM     12  C   UNL     1       2.871   2.936  18.700  0.00  0.00    +0.000 A 
ATOM     13  C   UNL     1       2.630   4.232  18.222  0.00  0.00    +0.000 A 
ATOM     14 CL   UNL     1       1.131   4.458  17.388  0.00  0.00    +0.000 Cl
ENDBRANCH   4   7
BRANCH   2  15
ATOM     15  C   UNL     1       1.046   9.197  19.561  0.00  0.00    +0.000 A 
ATOM     16  S   UNL     1       1.182   8.895  21.246  0.00  0.00    +0.000 S 
ATOM     17  N   UNL     1      -0.063   9.924  21.645  0.00  0.00    +0.000 NA
ATOM     18  N   UNL     1      -0.636  10.467  20.588  0.00  0.00    +0.000 NA
ATOM     19  C   UNL     1      -0.044  10.047  19.401  0.00  0.00    +0.000 A 
BRANCH  19  20
ATOM     20  C   UNL     1      -0.569  10.560  18.053  0.00  0.00    +0.000 C 
ATOM     21  C   UNL     1      -1.826   9.946  17.461  0.00  0.00    +0.000 C 
ATOM     22  C   UNL     1      -1.886  11.310  18.056  0.00  0.00    +0.000 C 
ENDBRANCH  19  20
ENDBRANCH   2  15
TORSDOF 3
ENDMDL
MODEL 9
REMARK VINA RESULT:      -6.7      5.037      6.724
REMARK  Name = 
REMARK  3 active torsions:
REMARK  status: ('A' for Active; 'I' for Inactive)
REMARK    1  A    between atoms: C_2  and  C_14
REMARK    2  A    between atoms: C_4  and  C_6
REMARK    3  A    between atoms: C_18  and  C_19
REMARK                            x       y       z     vdW  Elec       q    Type
REMARK                         _______ _______ _______ _____ _____    ______ ____
ROOT
ATOM      1  O   UNL     1      -0.540  12.883  18.318  0.00  0.00    +0.000 OA
ATOM      2  C   UNL     1      -1.168  11.833  18.397  0.00  0.00    +0.000 C 
ATOM      3  N   UNL     1      -0.565  10.610  18.680  0.00  0.00    +0.000 N 
ATOM      4  C   UNL     1       0.777  10.462  18.998  0.00  0.00    +0.000 C 
ATOM      5  O   UNL     1       1.572  11.393  19.071  0.00  0.00    +0.000 OA
ATOM      6  H   UNL     1      -1.138   9.781  18.638  0.00  0.00    +0.000 HD
ENDROOT
BRANCH   4   7
ATOM      7  C   UNL     1       1.284   9.082  19.229  0.00  0.00    +0.000 A 
ATOM      8  C   UNL     1       2.034   8.441  18.237  0.00  0.00    +0.000 A 
ATOM      9  F   UNL     1       2.180   9.000  17.025  0.00  0.00    +0.000 F 
ATOM     10  C   UNL     1       2.660   7.215  18.466  0.00  0.00    +0.000 A 
ATOM     11  C   UNL     1       2.537   6.601  19.710  0.00  0.00    +0.000 A 
ATOM     12  C   UNL     1       1.763   7.201  20.700  0.00  0.00    +0.000 A 
ATOM     13  C   UNL     1       1.130   8.430  20.466  0.00  0.00    +0.000 A 
ATOM     14 CL   UNL     1       0.130   9.017  21.751  0.00  0.00    +0.000 Cl
ENDBRANCH   4   7
BRANCH   2  15
ATOM     15  C   UNL     1      -2.604  11.799  18.206  0.00  0.00    +0.000 A 
ATOM     16  S   UNL     1      -3.716  12.217  19.446  0.00  0.00    +0.000 S 
ATOM     17  N   UNL     1      -5.047  12.069  18.459  0.00  0.00    +0.000 NA
ATOM     18  N   UNL     1      -4.737  11.671  17.240  0.00  0.00    +0.000 NA
ATOM     19  C   UNL     1      -3.367  11.486  17.085  0.00  0.00    +0.000 A 
BRANCH  19  20
ATOM     20  C   UNL     1      -2.800  11.017  15.738  0.00  0.00    +0.000 C 
ATOM     21  C   UNL     1      -2.629   9.530  15.479  0.00  0.00    +0.000 C 
ATOM     22  C   UNL     1      -3.735  10.269  14.808  0.00  0.00    +0.000 C 
ENDBRANCH  19  20
ENDBRANCH   2  15
TORSDOF 3
ENDMDL
