MODEL 1
REMARK VINA RESULT:      -6.8      0.000      0.000
REMARK  Name = 
REMARK  3 active torsions:
REMARK  status: ('A' for Active; 'I' for Inactive)
REMARK    1  A    between atoms: C_2  and  C_3
REMARK    2  A    between atoms: C_3  and  S_4
REMARK    3  A    between atoms: N_5  and  C_6
REMARK                            x       y       z     vdW  Elec       q    Type
REMARK                         _______ _______ _______ _____ _____    ______ ____
ROOT
ATOM      1  C   UNL     1       4.257   4.504  18.949  0.00  0.00    +0.000 C 
ATOM      2  C   UNL     1       4.468   3.072  19.527  0.00  0.00    +0.000 C 
ATOM      3  C   UNL     1       3.209   2.211  19.337  0.00  0.00    +0.000 C 
ATOM      4  C   UNL     1       2.024   2.871  20.071  0.00  0.00    +0.000 C 
ATOM      5  C   UNL     1       1.776   4.275  19.481  0.00  0.00    +0.000 C 
ATOM      6  C   UNL     1       1.452   4.145  17.974  0.00  0.00    +0.000 C 
ATOM      7  C   UNL     1       2.649   3.496  17.245  0.00  0.00    +0.000 C 
ATOM      8  C   UNL     1       2.899   2.090  17.831  0.00  0.00    +0.000 C 
ATOM      9  C   UNL     1       3.912   4.373  17.437  0.00  0.00    +0.000 C 
ATOM     10  C   UNL     1       3.039   5.150  19.668  0.00  0.00    +0.000 C 
ENDROOT
BRANCH   1  13
ATOM     11  N   UNL     1       7.092   4.155  17.913  0.00  0.00    +0.000 NA
ATOM     12  C   UNL     1       6.763   5.203  18.584  0.00  0.00    +0.000 C 
ATOM     13  N   UNL     1       5.427   5.387  19.098  0.00  0.00    +0.000 N 
ATOM     14  H   UNL     1       8.040   4.021  17.533  0.00  0.00    +0.000 HD
ATOM     15  H   UNL     1       5.262   6.258  19.626  0.00  0.00    +0.000 HD
BRANCH  12  16
ATOM     16  C   UNL     1       7.804   6.271  18.804  0.00  0.00    +0.000 C 
BRANCH  16  17
ATOM     17  S   UNL     1       7.603   7.645  17.625  0.00  0.00    +0.000 S 
ATOM     18  H   UNL     1       8.577   7.146  16.744  0.00  0.00    +0.000 HD
ENDBRANCH  16  17
ENDBRANCH  12  16
ENDBRANCH   1  13
TORSDOF 3
ENDMDL
MODEL 2
REMARK VINA RESULT:      -6.8      0.104      1.935
REMARK  Name = 
REMARK  3 active torsions:
REMARK  status: ('A' for Active; 'I' for Inactive)
REMARK    1  A    between atoms: C_2  and  C_3
REMARK    2  A    between atoms: C_3  and  S_4
REMARK    3  A    between atoms: N_5  and  C_6
REMARK                            x       y       z     vdW  Elec       q    Type
REMARK                         _______ _______ _______ _____ _____    ______ ____
ROOT
ATOM      1  C   UNL     1       4.185   4.491  18.881  0.00  0.00    +0.000 C 
ATOM      2  C   UNL     1       3.820   4.267  17.383  0.00  0.00    +0.000 C 
ATOM      3  C   UNL     1       2.575   3.375  17.246  0.00  0.00    +0.000 C 
ATOM      4  C   UNL     1       2.856   2.005  17.898  0.00  0.00    +0.000 C 
ATOM      5  C   UNL     1       3.178   2.207  19.392  0.00  0.00    +0.000 C 
ATOM      6  C   UNL     1       1.973   2.879  20.089  0.00  0.00    +0.000 C 
ATOM      7  C   UNL     1       1.708   4.256  19.440  0.00  0.00    +0.000 C 
ATOM      8  C   UNL     1       1.382   4.058  17.944  0.00  0.00    +0.000 C 
ATOM      9  C   UNL     1       2.964   5.151  19.587  0.00  0.00    +0.000 C 
ATOM     10  C   UNL     1       4.431   3.104  19.539  0.00  0.00    +0.000 C 
ENDROOT
BRANCH   1  13
ATOM     11  N   UNL     1       7.000   4.183  17.783  0.00  0.00    +0.000 NA
ATOM     12  C   UNL     1       6.697   5.177  18.542  0.00  0.00    +0.000 C 
ATOM     13  N   UNL     1       5.371   5.339  19.087  0.00  0.00    +0.000 N 
ATOM     14  H   UNL     1       7.941   4.064  17.380  0.00  0.00    +0.000 HD
ATOM     15  H   UNL     1       5.228   6.166  19.688  0.00  0.00    +0.000 HD
BRANCH  12  16
ATOM     16  C   UNL     1       7.760   6.205  18.836  0.00  0.00    +0.000 C 
BRANCH  16  17
ATOM     17  S   UNL     1       7.677   7.597  17.663  0.00  0.00    +0.000 S 
ATOM     18  H   UNL     1       6.496   8.111  18.224  0.00  0.00    +0.000 HD
ENDBRANCH  16  17
ENDBRANCH  12  16
ENDBRANCH   1  13
TORSDOF 3
ENDMDL
MODEL 3
REMARK VINA RESULT:      -6.8      2.864      4.793
REMARK  Name = 
REMARK  3 active torsions:
REMARK  status: ('A' for Active; 'I' for Inactive)
REMARK    1  A    between atoms: C_2  and  C_3
REMARK    2  A    between atoms: C_3  and  S_4
REMARK    3  A    between atoms: N_5  and  C_6
REMARK                            x       y       z     vdW  Elec       q    Type
REMARK                         _______ _______ _______ _____ _____    ______ ____
ROOT
ATOM      1  C   UNL     1       4.767   4.824  18.226  0.00  0.00    +0.000 C 
ATOM      2  C   UNL     1       6.193   5.018  18.824  0.00  0.00    +0.000 C 
ATOM      3  C   UNL     1       7.161   5.576  17.769  0.00  0.00    +0.000 C 
ATOM      4  C   UNL     1       7.251   4.589  16.587  0.00  0.00    +0.000 C 
ATOM      5  C   UNL     1       5.854   4.418  15.957  0.00  0.00    +0.000 C 
ATOM      6  C   UNL     1       5.349   5.791  15.456  0.00  0.00    +0.000 C 
ATOM      7  C   UNL     1       5.248   6.768  16.648  0.00  0.00    +0.000 C 
ATOM      8  C   UNL     1       6.646   6.944  17.279  0.00  0.00    +0.000 C 
ATOM      9  C   UNL     1       4.266   6.202  17.703  0.00  0.00    +0.000 C 
ATOM     10  C   UNL     1       4.871   3.856  17.013  0.00  0.00    +0.000 C 
ENDROOT
BRANCH   1  13
ATOM     11  N   UNL     1       4.825   2.241  19.824  0.00  0.00    +0.000 NA
ATOM     12  C   UNL     1       3.842   3.063  19.941  0.00  0.00    +0.000 C 
ATOM     13  N   UNL     1       3.784   4.290  19.184  0.00  0.00    +0.000 N 
ATOM     14  H   UNL     1       4.880   1.368  20.368  0.00  0.00    +0.000 HD
ATOM     15  H   UNL     1       2.953   4.881  19.345  0.00  0.00    +0.000 HD
BRANCH  12  16
ATOM     16  C   UNL     1       2.745   2.734  20.922  0.00  0.00    +0.000 C 
BRANCH  16  17
ATOM     17  S   UNL     1       1.181   3.550  20.464  0.00  0.00    +0.000 S 
ATOM     18  H   UNL     1       1.161   4.349  21.620  0.00  0.00    +0.000 HD
ENDBRANCH  16  17
ENDBRANCH  12  16
ENDBRANCH   1  13
TORSDOF 3
ENDMDL
MODEL 4
REMARK VINA RESULT:      -6.8      2.898      4.770
REMARK  Name = 
REMARK  3 active torsions:
REMARK  status: ('A' for Active; 'I' for Inactive)
REMARK    1  A    between atoms: C_2  and  C_3
REMARK    2  A    between atoms: C_3  and  S_4
REMARK    3  A    between atoms: N_5  and  C_6
REMARK                            x       y       z     vdW  Elec       q    Type
REMARK                         _______ _______ _______ _____ _____    ______ ____
ROOT
ATOM      1  C   UNL     1       4.734   4.769  18.159  0.00  0.00    +0.000 C 
ATOM      2  C   UNL     1       4.906   3.822  16.934  0.00  0.00    +0.000 C 
ATOM      3  C   UNL     1       5.896   4.411  15.917  0.00  0.00    +0.000 C 
ATOM      4  C   UNL     1       5.367   5.773  15.420  0.00  0.00    +0.000 C 
ATOM      5  C   UNL     1       5.231   6.736  16.617  0.00  0.00    +0.000 C 
ATOM      6  C   UNL     1       6.614   6.923  17.281  0.00  0.00    +0.000 C 
ATOM      7  C   UNL     1       7.131   5.558  17.788  0.00  0.00    +0.000 C 
ATOM      8  C   UNL     1       7.271   4.592  16.592  0.00  0.00    +0.000 C 
ATOM      9  C   UNL     1       6.130   4.974  18.816  0.00  0.00    +0.000 C 
ATOM     10  C   UNL     1       4.234   6.150  17.647  0.00  0.00    +0.000 C 
ENDROOT
BRANCH   1  13
ATOM     11  N   UNL     1       4.799   2.176  19.741  0.00  0.00    +0.000 NA
ATOM     12  C   UNL     1       3.857   3.033  19.924  0.00  0.00    +0.000 C 
ATOM     13  N   UNL     1       3.796   4.265  19.177  0.00  0.00    +0.000 N 
ATOM     14  H   UNL     1       4.857   1.298  20.277  0.00  0.00    +0.000 HD
ATOM     15  H   UNL     1       2.999   4.886  19.393  0.00  0.00    +0.000 HD
BRANCH  12  16
ATOM     16  C   UNL     1       2.813   2.738  20.972  0.00  0.00    +0.000 C 
BRANCH  16  17
ATOM     17  S   UNL     1       1.166   3.314  20.447  0.00  0.00    +0.000 S 
ATOM     18  H   UNL     1       1.677   4.073  19.380  0.00  0.00    +0.000 HD
ENDBRANCH  16  17
ENDBRANCH  12  16
ENDBRANCH   1  13
TORSDOF 3
ENDMDL
MODEL 5
REMARK VINA RESULT:      -6.7      2.860      4.841
REMARK  Name = 
REMARK  3 active torsions:
REMARK  status: ('A' for Active; 'I' for Inactive)
REMARK    1  A    between atoms: C_2  and  C_3
REMARK    2  A    between atoms: C_3  and  S_4
REMARK    3  A    between atoms: N_5  and  C_6
REMARK                            x       y       z     vdW  Elec       q    Type
REMARK                         _______ _______ _______ _____ _____    ______ ____
ROOT
ATOM      1  C   UNL     1       4.715   4.872  18.173  0.00  0.00    +0.000 C 
ATOM      2  C   UNL     1       4.301   6.262  17.602  0.00  0.00    +0.000 C 
ATOM      3  C   UNL     1       5.335   6.769  16.584  0.00  0.00    +0.000 C 
ATOM      4  C   UNL     1       6.707   6.907  17.277  0.00  0.00    +0.000 C 
ATOM      5  C   UNL     1       7.150   5.530  17.812  0.00  0.00    +0.000 C 
ATOM      6  C   UNL     1       7.257   4.535  16.633  0.00  0.00    +0.000 C 
ATOM      7  C   UNL     1       5.877   4.392  15.954  0.00  0.00    +0.000 C 
ATOM      8  C   UNL     1       5.431   5.768  15.415  0.00  0.00    +0.000 C 
ATOM      9  C   UNL     1       4.842   3.875  16.985  0.00  0.00    +0.000 C 
ATOM     10  C   UNL     1       6.114   5.011  18.838  0.00  0.00    +0.000 C 
ENDROOT
BRANCH   1  13
ATOM     11  N   UNL     1       4.852   2.289  19.766  0.00  0.00    +0.000 NA
ATOM     12  C   UNL     1       3.862   3.097  19.912  0.00  0.00    +0.000 C 
ATOM     13  N   UNL     1       3.766   4.324  19.158  0.00  0.00    +0.000 N 
ATOM     14  H   UNL     1       4.934   1.416  20.308  0.00  0.00    +0.000 HD
ATOM     15  H   UNL     1       2.932   4.904  19.342  0.00  0.00    +0.000 HD
BRANCH  12  16
ATOM     16  C   UNL     1       2.797   2.753  20.922  0.00  0.00    +0.000 C 
BRANCH  16  17
ATOM     17  S   UNL     1       1.194   3.495  20.473  0.00  0.00    +0.000 S 
ATOM     18  H   UNL     1       1.273   3.068  19.137  0.00  0.00    +0.000 HD
ENDBRANCH  16  17
ENDBRANCH  12  16
ENDBRANCH   1  13
TORSDOF 3
ENDMDL
MODEL 6
REMARK VINA RESULT:      -6.7      2.922      4.958
REMARK  Name = 
REMARK  3 active torsions:
REMARK  status: ('A' for Active; 'I' for Inactive)
REMARK    1  A    between atoms: C_2  and  C_3
REMARK    2  A    between atoms: C_3  and  S_4
REMARK    3  A    between atoms: N_5  and  C_6
REMARK                            x       y       z     vdW  Elec       q    Type
REMARK                         _______ _______ _______ _____ _____    ______ ____
ROOT
ATOM      1  C   UNL     1       4.404   4.806  18.118  0.00  0.00    +0.000 C 
ATOM      2  C   UNL     1       4.694   3.792  16.971  0.00  0.00    +0.000 C 
ATOM      3  C   UNL     1       5.824   4.298  16.061  0.00  0.00    +0.000 C 
ATOM      4  C   UNL     1       5.410   5.646  15.436  0.00  0.00    +0.000 C 
ATOM      5  C   UNL     1       5.160   6.674  16.559  0.00  0.00    +0.000 C 
ATOM      6  C   UNL     1       6.455   6.855  17.383  0.00  0.00    +0.000 C 
ATOM      7  C   UNL     1       6.855   5.504  18.016  0.00  0.00    +0.000 C 
ATOM      8  C   UNL     1       7.109   4.474  16.895  0.00  0.00    +0.000 C 
ATOM      9  C   UNL     1       5.714   5.004  18.936  0.00  0.00    +0.000 C 
ATOM     10  C   UNL     1       4.022   6.172  17.481  0.00  0.00    +0.000 C 
ENDROOT
BRANCH   1  13
ATOM     11  N   UNL     1       1.548   3.980  17.497  0.00  0.00    +0.000 NA
ATOM     12  C   UNL     1       1.981   3.984  18.709  0.00  0.00    +0.000 C 
ATOM     13  N   UNL     1       3.329   4.384  19.032  0.00  0.00    +0.000 N 
ATOM     14  H   UNL     1       0.590   3.685  17.256  0.00  0.00    +0.000 HD
ATOM     15  H   UNL     1       3.581   4.357  20.033  0.00  0.00    +0.000 HD
BRANCH  12  16
ATOM     16  C   UNL     1       1.051   3.527  19.805  0.00  0.00    +0.000 C 
BRANCH  16  17
ATOM     17  S   UNL     1       1.961   3.186  21.346  0.00  0.00    +0.000 S 
ATOM     18  H   UNL     1       2.792   4.311  21.205  0.00  0.00    +0.000 HD
ENDBRANCH  16  17
ENDBRANCH  12  16
ENDBRANCH   1  13
TORSDOF 3
ENDMDL
MODEL 7
REMARK VINA RESULT:      -6.6      2.917      5.022
REMARK  Name = 
REMARK  3 active torsions:
REMARK  status: ('A' for Active; 'I' for Inactive)
REMARK    1  A    between atoms: C_2  and  C_3
REMARK    2  A    between atoms: C_3  and  S_4
REMARK    3  A    between atoms: N_5  and  C_6
REMARK                            x       y       z     vdW  Elec       q    Type
REMARK                         _______ _______ _______ _____ _____    ______ ____
ROOT
ATOM      1  C   UNL     1       4.397   4.853  18.127  0.00  0.00    +0.000 C 
ATOM      2  C   UNL     1       4.023   6.193  17.425  0.00  0.00    +0.000 C 
ATOM      3  C   UNL     1       5.163   6.674  16.514  0.00  0.00    +0.000 C 
ATOM      4  C   UNL     1       6.433   6.897  17.361  0.00  0.00    +0.000 C 
ATOM      5  C   UNL     1       6.840   5.569  18.030  0.00  0.00    +0.000 C 
ATOM      6  C   UNL     1       7.120   4.511  16.938  0.00  0.00    +0.000 C 
ATOM      7  C   UNL     1       5.840   4.284  16.103  0.00  0.00    +0.000 C 
ATOM      8  C   UNL     1       5.431   5.611  15.429  0.00  0.00    +0.000 C 
ATOM      9  C   UNL     1       4.697   3.793  17.027  0.00  0.00    +0.000 C 
ATOM     10  C   UNL     1       5.697   5.076  18.951  0.00  0.00    +0.000 C 
ENDROOT
BRANCH   1  13
ATOM     11  N   UNL     1       1.519   4.109  17.502  0.00  0.00    +0.000 NA
ATOM     12  C   UNL     1       1.987   3.974  18.693  0.00  0.00    +0.000 C 
ATOM     13  N   UNL     1       3.346   4.332  19.018  0.00  0.00    +0.000 N 
ATOM     14  H   UNL     1       0.553   3.846  17.258  0.00  0.00    +0.000 HD
ATOM     15  H   UNL     1       3.628   4.191  20.002  0.00  0.00    +0.000 HD
BRANCH  12  16
ATOM     16  C   UNL     1       1.088   3.397  19.757  0.00  0.00    +0.000 C 
BRANCH  16  17
ATOM     17  S   UNL     1       1.946   3.286  21.361  0.00  0.00    +0.000 S 
ATOM     18  H   UNL     1       2.935   4.215  20.993  0.00  0.00    +0.000 HD
ENDBRANCH  16  17
ENDBRANCH  12  16
ENDBRANCH   1  13
TORSDOF 3
ENDMDL
MODEL 8
REMARK VINA RESULT:      -6.6      1.766      2.396
REMARK  Name = 
REMARK  3 active torsions:
REMARK  status: ('A' for Active; 'I' for Inactive)
REMARK    1  A    between atoms: C_2  and  C_3
REMARK    2  A    between atoms: C_3  and  S_4
REMARK    3  A    between atoms: N_5  and  C_6
REMARK                            x       y       z     vdW  Elec       q    Type
REMARK                         _______ _______ _______ _____ _____    ______ ____
ROOT
ATOM      1  C   UNL     1       3.498   4.147  18.263  0.00  0.00    +0.000 C 
ATOM      2  C   UNL     1       3.594   4.840  19.656  0.00  0.00    +0.000 C 
ATOM      3  C   UNL     1       2.574   4.244  20.639  0.00  0.00    +0.000 C 
ATOM      4  C   UNL     1       1.150   4.448  20.083  0.00  0.00    +0.000 C 
ATOM      5  C   UNL     1       1.026   3.732  18.722  0.00  0.00    +0.000 C 
ATOM      6  C   UNL     1       1.302   2.223  18.913  0.00  0.00    +0.000 C 
ATOM      7  C   UNL     1       2.734   2.027  19.457  0.00  0.00    +0.000 C 
ATOM      8  C   UNL     1       2.862   2.740  20.820  0.00  0.00    +0.000 C 
ATOM      9  C   UNL     1       3.756   2.625  18.458  0.00  0.00    +0.000 C 
ATOM     10  C   UNL     1       2.050   4.326  17.725  0.00  0.00    +0.000 C 
ENDROOT
BRANCH   1  13
ATOM     11  N   UNL     1       6.535   4.169  18.311  0.00  0.00    +0.000 NA
ATOM     12  C   UNL     1       5.892   4.657  17.310  0.00  0.00    +0.000 C 
ATOM     13  N   UNL     1       4.449   4.670  17.268  0.00  0.00    +0.000 N 
ATOM     14  H   UNL     1       7.565   4.146  18.345  0.00  0.00    +0.000 HD
ATOM     15  H   UNL     1       4.025   5.087  16.424  0.00  0.00    +0.000 HD
BRANCH  12  16
ATOM     16  C   UNL     1       6.680   5.198  16.144  0.00  0.00    +0.000 C 
BRANCH  16  17
ATOM     17  S   UNL     1       6.359   4.243  14.626  0.00  0.00    +0.000 S 
ATOM     18  H   UNL     1       6.994   3.089  15.115  0.00  0.00    +0.000 HD
ENDBRANCH  16  17
ENDBRANCH  12  16
ENDBRANCH   1  13
TORSDOF 3
ENDMDL
MODEL 9
REMARK VINA RESULT:      -6.6      1.682      1.950
REMARK  Name = 
REMARK  3 active torsions:
REMARK  status: ('A' for Active; 'I' for Inactive)
REMARK    1  A    between atoms: C_2  and  C_3
REMARK    2  A    between atoms: C_3  and  S_4
REMARK    3  A    between atoms: N_5  and  C_6
REMARK                            x       y       z     vdW  Elec       q    Type
REMARK                         _______ _______ _______ _____ _____    ______ ____
ROOT
ATOM      1  C   UNL     1       3.533   4.141  18.277  0.00  0.00    +0.000 C 
ATOM      2  C   UNL     1       3.779   2.617  18.497  0.00  0.00    +0.000 C 
ATOM      3  C   UNL     1       2.744   2.027  19.468  0.00  0.00    +0.000 C 
ATOM      4  C   UNL     1       2.853   2.747  20.829  0.00  0.00    +0.000 C 
ATOM      5  C   UNL     1       2.572   4.251  20.635  0.00  0.00    +0.000 C 
ATOM      6  C   UNL     1       1.149   4.434  20.060  0.00  0.00    +0.000 C 
ATOM      7  C   UNL     1       1.052   3.723  18.692  0.00  0.00    +0.000 C 
ATOM      8  C   UNL     1       1.330   2.216  18.882  0.00  0.00    +0.000 C 
ATOM      9  C   UNL     1       2.093   4.327  17.717  0.00  0.00    +0.000 C 
ATOM     10  C   UNL     1       3.610   4.854  19.657  0.00  0.00    +0.000 C 
ENDROOT
BRANCH   1  13
ATOM     11  N   UNL     1       6.569   4.176  18.362  0.00  0.00    +0.000 NA
ATOM     12  C   UNL     1       5.933   4.765  17.411  0.00  0.00    +0.000 C 
ATOM     13  N   UNL     1       4.491   4.773  17.355  0.00  0.00    +0.000 N 
ATOM     14  H   UNL     1       7.599   4.155  18.405  0.00  0.00    +0.000 HD
ATOM     15  H   UNL     1       4.073   5.275  16.556  0.00  0.00    +0.000 HD
BRANCH  12  16
ATOM     16  C   UNL     1       6.730   5.432  16.320  0.00  0.00    +0.000 C 
BRANCH  16  17
ATOM     17  S   UNL     1       6.584   4.528  14.744  0.00  0.00    +0.000 S 
ATOM     18  H   UNL     1       7.944   4.175  14.722  0.00  0.00    +0.000 HD
ENDBRANCH  16  17
ENDBRANCH  12  16
ENDBRANCH   1  13
TORSDOF 3
ENDMDL
