MODEL 1
REMARK VINA RESULT:      -7.2      0.000      0.000
REMARK  Name = 
REMARK  6 active torsions:
REMARK  status: ('A' for Active; 'I' for Inactive)
REMARK    1  A    between atoms: C_1  and  O_2
REMARK    2  A    between atoms: O_2  and  C_3
REMARK    3  A    between atoms: C_6  and  C_7
REMARK    4  A    between atoms: C_8  and  C_9
REMARK    5  A    between atoms: N_18  and  N_19
REMARK    6  A    between atoms: N_19  and  C_20
REMARK                            x       y       z     vdW  Elec       q    Type
REMARK                         _______ _______ _______ _____ _____    ______ ____
ROOT
ATOM      1  C   UNL     1       1.882   6.652  19.900  0.00  0.00    +0.000 A 
ATOM      2  C   UNL     1       2.087   5.334  20.229  0.00  0.00    +0.000 A 
ATOM      3  C   UNL     1       2.276   4.745  21.617  0.00  0.00    +0.000 C 
ATOM      4  C   UNL     1       2.288   4.280  19.212  0.00  0.00    +0.000 A 
ATOM      5  C   UNL     1       2.052   2.909  19.419  0.00  0.00    +0.000 A 
ATOM      6  C   UNL     1       2.485   1.954  18.492  0.00  0.00    +0.000 A 
ATOM      7  C   UNL     1       3.157   2.360  17.343  0.00  0.00    +0.000 A 
ATOM      8  C   UNL     1       3.290   3.720  17.076  0.00  0.00    +0.000 A 
ATOM      9  C   UNL     1       2.800   4.646  17.994  0.00  0.00    +0.000 A 
ATOM     10  O   UNL     1       2.779   5.992  17.645  0.00  0.00    +0.000 OA
ATOM     11  C   UNL     1       2.294   7.056  18.426  0.00  0.00    +0.000 A 
ATOM     12  N   UNL     1       2.409   8.139  17.719  0.00  0.00    +0.000 NA
ENDROOT
BRANCH   1  16
ATOM     13  C   UNL     1       0.049   9.560  22.779  0.00  0.00    +0.000 A 
ATOM     14  C   UNL     1      -0.735   8.745  21.985  0.00  0.00    +0.000 A 
ATOM     15  C   UNL     1      -0.151   7.816  21.092  0.00  0.00    +0.000 A 
ATOM     16  C   UNL     1       1.239   7.617  20.936  0.00  0.00    +0.000 A 
ATOM     17  C   UNL     1       1.961   8.522  21.715  0.00  0.00    +0.000 A 
ATOM     18  C   UNL     1       1.414   9.435  22.648  0.00  0.00    +0.000 A 
BRANCH  13  20
ATOM     19  C   UNL     1      -1.427  11.413  22.876  0.00  0.00    +0.000 C 
ATOM     20  O   UNL     1      -0.615  10.462  23.556  0.00  0.00    +0.000 OA
ENDBRANCH  13  20
ENDBRANCH   1  16
BRANCH  12  21
ATOM     21  N   UNL     1       2.418   9.361  18.248  0.00  0.00    +0.000 N 
ATOM     22  H   UNL     1       3.186   9.971  17.970  0.00  0.00    +0.000 HD
BRANCH  21  23
ATOM     23  C   UNL     1       1.211  10.083  18.420  0.00  0.00    +0.000 A 
ATOM     24  C   UNL     1      -0.029   9.666  17.927  0.00  0.00    +0.000 A 
ATOM     25  C   UNL     1      -1.204  10.363  18.245  0.00  0.00    +0.000 A 
ATOM     26  C   UNL     1      -1.158  11.471  19.089  0.00  0.00    +0.000 A 
ATOM     27  C   UNL     1       0.057  11.869  19.636  0.00  0.00    +0.000 A 
ATOM     28  C   UNL     1       1.227  11.179  19.308  0.00  0.00    +0.000 A 
ENDBRANCH  21  23
ENDBRANCH  12  21
TORSDOF 4
ENDMDL
MODEL 2
REMARK VINA RESULT:      -6.9      2.308      7.728
REMARK  Name = 
REMARK  6 active torsions:
REMARK  status: ('A' for Active; 'I' for Inactive)
REMARK    1  A    between atoms: C_1  and  O_2
REMARK    2  A    between atoms: O_2  and  C_3
REMARK    3  A    between atoms: C_6  and  C_7
REMARK    4  A    between atoms: C_8  and  C_9
REMARK    5  A    between atoms: N_18  and  N_19
REMARK    6  A    between atoms: N_19  and  C_20
REMARK                            x       y       z     vdW  Elec       q    Type
REMARK                         _______ _______ _______ _____ _____    ______ ____
ROOT
ATOM      1  C   UNL     1       2.526   6.931  19.061  0.00  0.00    +0.000 A 
ATOM      2  C   UNL     1       2.289   8.197  18.580  0.00  0.00    +0.000 A 
ATOM      3  C   UNL     1       3.157   9.004  17.628  0.00  0.00    +0.000 C 
ATOM      4  C   UNL     1       1.164   9.031  19.052  0.00  0.00    +0.000 A 
ATOM      5  C   UNL     1       0.593  10.094  18.329  0.00  0.00    +0.000 A 
ATOM      6  C   UNL     1      -0.306  10.979  18.934  0.00  0.00    +0.000 A 
ATOM      7  C   UNL     1      -0.647  10.810  20.273  0.00  0.00    +0.000 A 
ATOM      8  C   UNL     1      -0.177   9.694  20.961  0.00  0.00    +0.000 A 
ATOM      9  C   UNL     1       0.673   8.802  20.312  0.00  0.00    +0.000 A 
ATOM     10  O   UNL     1       0.999   7.606  20.941  0.00  0.00    +0.000 OA
ATOM     11  C   UNL     1       1.812   6.579  20.428  0.00  0.00    +0.000 A 
ATOM     12  N   UNL     1       1.821   5.620  21.302  0.00  0.00    +0.000 NA
ENDROOT
BRANCH   1  16
ATOM     13  C   UNL     1       5.041   4.185  16.564  0.00  0.00    +0.000 A 
ATOM     14  C   UNL     1       5.616   5.110  17.414  0.00  0.00    +0.000 A 
ATOM     15  C   UNL     1       4.817   5.960  18.214  0.00  0.00    +0.000 A 
ATOM     16  C   UNL     1       3.405   5.945  18.241  0.00  0.00    +0.000 A 
ATOM     17  C   UNL     1       2.900   5.039  17.307  0.00  0.00    +0.000 A 
ATOM     18  C   UNL     1       3.666   4.145  16.522  0.00  0.00    +0.000 A 
BRANCH  13  20
ATOM     19  C   UNL     1       6.276   4.034  14.545  0.00  0.00    +0.000 C 
ATOM     20  O   UNL     1       5.901   3.460  15.793  0.00  0.00    +0.000 OA
ENDBRANCH  13  20
ENDBRANCH   1  16
BRANCH  12  21
ATOM     21  N   UNL     1       2.762   4.677  21.345  0.00  0.00    +0.000 N 
ATOM     22  H   UNL     1       3.140   4.454  22.265  0.00  0.00    +0.000 HD
BRANCH  21  23
ATOM     23  C   UNL     1       2.671   3.528  20.522  0.00  0.00    +0.000 A 
ATOM     24  C   UNL     1       1.492   3.093  19.910  0.00  0.00    +0.000 A 
ATOM     25  C   UNL     1       1.500   2.022  19.004  0.00  0.00    +0.000 A 
ATOM     26  C   UNL     1       2.697   1.392  18.673  0.00  0.00    +0.000 A 
ATOM     27  C   UNL     1       3.891   1.845  19.226  0.00  0.00    +0.000 A 
ATOM     28  C   UNL     1       3.876   2.904  20.136  0.00  0.00    +0.000 A 
ENDBRANCH  21  23
ENDBRANCH  12  21
TORSDOF 4
ENDMDL
MODEL 3
REMARK VINA RESULT:      -6.8      6.309      8.592
REMARK  Name = 
REMARK  6 active torsions:
REMARK  status: ('A' for Active; 'I' for Inactive)
REMARK    1  A    between atoms: C_1  and  O_2
REMARK    2  A    between atoms: O_2  and  C_3
REMARK    3  A    between atoms: C_6  and  C_7
REMARK    4  A    between atoms: C_8  and  C_9
REMARK    5  A    between atoms: N_18  and  N_19
REMARK    6  A    between atoms: N_19  and  C_20
REMARK                            x       y       z     vdW  Elec       q    Type
REMARK                         _______ _______ _______ _____ _____    ______ ____
ROOT
ATOM      1  C   UNL     1      -3.819  12.795  20.173  0.00  0.00    +0.000 A 
ATOM      2  C   UNL     1      -2.734  12.227  19.549  0.00  0.00    +0.000 A 
ATOM      3  C   UNL     1      -1.263  12.490  19.828  0.00  0.00    +0.000 C 
ATOM      4  C   UNL     1      -2.864  11.335  18.378  0.00  0.00    +0.000 A 
ATOM      5  C   UNL     1      -1.905  10.386  17.980  0.00  0.00    +0.000 A 
ATOM      6  C   UNL     1      -1.992   9.749  16.738  0.00  0.00    +0.000 A 
ATOM      7  C   UNL     1      -3.043  10.051  15.877  0.00  0.00    +0.000 A 
ATOM      8  C   UNL     1      -4.058  10.900  16.312  0.00  0.00    +0.000 A 
ATOM      9  C   UNL     1      -3.968  11.477  17.577  0.00  0.00    +0.000 A 
ATOM     10  O   UNL     1      -5.059  12.181  18.073  0.00  0.00    +0.000 OA
ATOM     11  C   UNL     1      -5.159  12.799  19.333  0.00  0.00    +0.000 A 
ATOM     12  N   UNL     1      -6.353  13.302  19.423  0.00  0.00    +0.000 NA
ENDROOT
BRANCH   1  16
ATOM     13  C   UNL     1      -3.274  14.274  24.370  0.00  0.00    +0.000 A 
ATOM     14  C   UNL     1      -3.046  15.097  23.284  0.00  0.00    +0.000 A 
ATOM     15  C   UNL     1      -3.238  14.631  21.963  0.00  0.00    +0.000 A 
ATOM     16  C   UNL     1      -3.682  13.333  21.626  0.00  0.00    +0.000 A 
ATOM     17  C   UNL     1      -3.820  12.542  22.768  0.00  0.00    +0.000 A 
ATOM     18  C   UNL     1      -3.677  12.985  24.104  0.00  0.00    +0.000 A 
BRANCH  13  20
ATOM     19  C   UNL     1      -2.220  15.997  25.614  0.00  0.00    +0.000 C 
ATOM     20  O   UNL     1      -2.997  14.804  25.596  0.00  0.00    +0.000 OA
ENDBRANCH  13  20
ENDBRANCH   1  16
BRANCH  12  21
ATOM     21  N   UNL     1      -6.677  14.267  20.281  0.00  0.00    +0.000 N 
ATOM     22  H   UNL     1      -7.201  15.055  19.902  0.00  0.00    +0.000 HD
BRANCH  21  23
ATOM     23  C   UNL     1      -7.084  13.954  21.602  0.00  0.00    +0.000 A 
ATOM     24  C   UNL     1      -7.479  12.679  22.019  0.00  0.00    +0.000 A 
ATOM     25  C   UNL     1      -7.745  12.412  23.370  0.00  0.00    +0.000 A 
ATOM     26  C   UNL     1      -7.586  13.410  24.328  0.00  0.00    +0.000 A 
ATOM     27  C   UNL     1      -7.140  14.670  23.943  0.00  0.00    +0.000 A 
ATOM     28  C   UNL     1      -6.887  14.935  22.595  0.00  0.00    +0.000 A 
ENDBRANCH  21  23
ENDBRANCH  12  21
TORSDOF 4
ENDMDL
MODEL 4
REMARK VINA RESULT:      -6.7      0.254      1.312
REMARK  Name = 
REMARK  6 active torsions:
REMARK  status: ('A' for Active; 'I' for Inactive)
REMARK    1  A    between atoms: C_1  and  O_2
REMARK    2  A    between atoms: O_2  and  C_3
REMARK    3  A    between atoms: C_6  and  C_7
REMARK    4  A    between atoms: C_8  and  C_9
REMARK    5  A    between atoms: N_18  and  N_19
REMARK    6  A    between atoms: N_19  and  C_20
REMARK                            x       y       z     vdW  Elec       q    Type
REMARK                         _______ _______ _______ _____ _____    ______ ____
ROOT
ATOM      1  C   UNL     1       1.983   6.668  19.788  0.00  0.00    +0.000 A 
ATOM      2  C   UNL     1       2.181   5.366  20.181  0.00  0.00    +0.000 A 
ATOM      3  C   UNL     1       2.295   4.834  21.600  0.00  0.00    +0.000 C 
ATOM      4  C   UNL     1       2.449   4.275  19.220  0.00  0.00    +0.000 A 
ATOM      5  C   UNL     1       2.215   2.910  19.468  0.00  0.00    +0.000 A 
ATOM      6  C   UNL     1       2.709   1.925  18.607  0.00  0.00    +0.000 A 
ATOM      7  C   UNL     1       3.443   2.293  17.483  0.00  0.00    +0.000 A 
ATOM      8  C   UNL     1       3.578   3.643  17.169  0.00  0.00    +0.000 A 
ATOM      9  C   UNL     1       3.027   4.599  18.020  0.00  0.00    +0.000 A 
ATOM     10  O   UNL     1       3.014   5.929  17.617  0.00  0.00    +0.000 OA
ATOM     11  C   UNL     1       2.476   7.018  18.325  0.00  0.00    +0.000 A 
ATOM     12  N   UNL     1       2.620   8.073  17.583  0.00  0.00    +0.000 NA
ENDROOT
BRANCH   1  16
ATOM     13  C   UNL     1      -0.091   9.419  22.657  0.00  0.00    +0.000 A 
ATOM     14  C   UNL     1       1.288   9.371  22.578  0.00  0.00    +0.000 A 
ATOM     15  C   UNL     1       1.936   8.515  21.658  0.00  0.00    +0.000 A 
ATOM     16  C   UNL     1       1.272   7.665  20.746  0.00  0.00    +0.000 A 
ATOM     17  C   UNL     1      -0.110   7.717  20.935  0.00  0.00    +0.000 A 
ATOM     18  C   UNL     1      -0.794   8.588  21.815  0.00  0.00    +0.000 A 
BRANCH  13  20
ATOM     19  C   UNL     1      -1.416  11.316  23.174  0.00  0.00    +0.000 C 
ATOM     20  O   UNL     1      -0.610  10.231  23.622  0.00  0.00    +0.000 OA
ENDBRANCH  13  20
ENDBRANCH   1  16
BRANCH  12  21
ATOM     21  N   UNL     1       2.587   9.315  18.062  0.00  0.00    +0.000 N 
ATOM     22  H   UNL     1       3.240   9.979  17.647  0.00  0.00    +0.000 HD
BRANCH  21  23
ATOM     23  C   UNL     1       1.355   9.929  18.395  0.00  0.00    +0.000 A 
ATOM     24  C   UNL     1       1.238  11.070  19.195  0.00  0.00    +0.000 A 
ATOM     25  C   UNL     1      -0.002  11.700  19.378  0.00  0.00    +0.000 A 
ATOM     26  C   UNL     1      -1.138  11.216  18.733  0.00  0.00    +0.000 A 
ATOM     27  C   UNL     1      -1.034  10.116  17.888  0.00  0.00    +0.000 A 
ATOM     28  C   UNL     1       0.200   9.485  17.718  0.00  0.00    +0.000 A 
ENDBRANCH  21  23
ENDBRANCH  12  21
TORSDOF 4
ENDMDL
MODEL 5
REMARK VINA RESULT:      -6.6      2.257      7.665
REMARK  Name = 
REMARK  6 active torsions:
REMARK  status: ('A' for Active; 'I' for Inactive)
REMARK    1  A    between atoms: C_1  and  O_2
REMARK    2  A    between atoms: O_2  and  C_3
REMARK    3  A    between atoms: C_6  and  C_7
REMARK    4  A    between atoms: C_8  and  C_9
REMARK    5  A    between atoms: N_18  and  N_19
REMARK    6  A    between atoms: N_19  and  C_20
REMARK                            x       y       z     vdW  Elec       q    Type
REMARK                         _______ _______ _______ _____ _____    ______ ____
ROOT
ATOM      1  C   UNL     1       2.442   7.187  19.059  0.00  0.00    +0.000 A 
ATOM      2  C   UNL     1       2.155   8.466  18.645  0.00  0.00    +0.000 A 
ATOM      3  C   UNL     1       2.975   9.343  17.713  0.00  0.00    +0.000 C 
ATOM      4  C   UNL     1       1.017   9.241  19.182  0.00  0.00    +0.000 A 
ATOM      5  C   UNL     1       0.397  10.319  18.523  0.00  0.00    +0.000 A 
ATOM      6  C   UNL     1      -0.513  11.145  19.191  0.00  0.00    +0.000 A 
ATOM      7  C   UNL     1      -0.816  10.904  20.528  0.00  0.00    +0.000 A 
ATOM      8  C   UNL     1      -0.296   9.772  21.150  0.00  0.00    +0.000 A 
ATOM      9  C   UNL     1       0.566   8.938  20.441  0.00  0.00    +0.000 A 
ATOM     10  O   UNL     1       0.943   7.725  21.005  0.00  0.00    +0.000 OA
ATOM     11  C   UNL     1       1.773   6.749  20.425  0.00  0.00    +0.000 A 
ATOM     12  N   UNL     1       1.833   5.751  21.252  0.00  0.00    +0.000 NA
ENDROOT
BRANCH   1  16
ATOM     13  C   UNL     1       5.028   4.439  16.637  0.00  0.00    +0.000 A 
ATOM     14  C   UNL     1       3.650   4.362  16.582  0.00  0.00    +0.000 A 
ATOM     15  C   UNL     1       2.839   5.245  17.333  0.00  0.00    +0.000 A 
ATOM     16  C   UNL     1       3.331   6.268  18.173  0.00  0.00    +0.000 A 
ATOM     17  C   UNL     1       4.725   6.236  18.233  0.00  0.00    +0.000 A 
ATOM     18  C   UNL     1       5.568   5.398  17.466  0.00  0.00    +0.000 A 
BRANCH  13  20
ATOM     19  C   UNL     1       6.202   3.903  14.648  0.00  0.00    +0.000 C 
ATOM     20  O   UNL     1       5.713   3.501  15.923  0.00  0.00    +0.000 OA
ENDBRANCH  13  20
ENDBRANCH   1  16
BRANCH  12  21
ATOM     21  N   UNL     1       2.802   4.838  21.228  0.00  0.00    +0.000 N 
ATOM     22  H   UNL     1       3.173   4.545  22.131  0.00  0.00    +0.000 HD
BRANCH  21  23
ATOM     23  C   UNL     1       2.761   3.764  20.304  0.00  0.00    +0.000 A 
ATOM     24  C   UNL     1       3.871   2.991  19.952  0.00  0.00    +0.000 A 
ATOM     25  C   UNL     1       3.733   1.862  19.130  0.00  0.00    +0.000 A 
ATOM     26  C   UNL     1       2.475   1.471  18.678  0.00  0.00    +0.000 A 
ATOM     27  C   UNL     1       1.350   2.193  19.064  0.00  0.00    +0.000 A 
ATOM     28  C   UNL     1       1.493   3.323  19.872  0.00  0.00    +0.000 A 
ENDBRANCH  21  23
ENDBRANCH  12  21
TORSDOF 4
ENDMDL
MODEL 6
REMARK VINA RESULT:      -6.3      6.011      8.829
REMARK  Name = 
REMARK  6 active torsions:
REMARK  status: ('A' for Active; 'I' for Inactive)
REMARK    1  A    between atoms: C_1  and  O_2
REMARK    2  A    between atoms: O_2  and  C_3
REMARK    3  A    between atoms: C_6  and  C_7
REMARK    4  A    between atoms: C_8  and  C_9
REMARK    5  A    between atoms: N_18  and  N_19
REMARK    6  A    between atoms: N_19  and  C_20
REMARK                            x       y       z     vdW  Elec       q    Type
REMARK                         _______ _______ _______ _____ _____    ______ ____
ROOT
ATOM      1  C   UNL     1      -3.725  13.160  20.391  0.00  0.00    +0.000 A 
ATOM      2  C   UNL     1      -2.513  12.768  19.875  0.00  0.00    +0.000 A 
ATOM      3  C   UNL     1      -1.171  13.466  20.030  0.00  0.00    +0.000 C 
ATOM      4  C   UNL     1      -2.373  11.625  18.948  0.00  0.00    +0.000 A 
ATOM      5  C   UNL     1      -1.187  10.897  18.744  0.00  0.00    +0.000 A 
ATOM      6  C   UNL     1      -1.072   9.988  17.687  0.00  0.00    +0.000 A 
ATOM      7  C   UNL     1      -2.143   9.794  16.820  0.00  0.00    +0.000 A 
ATOM      8  C   UNL     1      -3.357  10.424  17.086  0.00  0.00    +0.000 A 
ATOM      9  C   UNL     1      -3.454  11.282  18.179  0.00  0.00    +0.000 A 
ATOM     10  O   UNL     1      -4.705  11.770  18.539  0.00  0.00    +0.000 OA
ATOM     11  C   UNL     1      -4.998  12.615  19.624  0.00  0.00    +0.000 A 
ATOM     12  N   UNL     1      -6.283  12.793  19.641  0.00  0.00    +0.000 NA
ENDROOT
BRANCH   1  16
ATOM     13  C   UNL     1      -4.026  15.705  24.070  0.00  0.00    +0.000 A 
ATOM     14  C   UNL     1      -3.942  14.329  24.155  0.00  0.00    +0.000 A 
ATOM     15  C   UNL     1      -3.828  13.532  22.991  0.00  0.00    +0.000 A 
ATOM     16  C   UNL     1      -3.772  14.038  21.674  0.00  0.00    +0.000 A 
ATOM     17  C   UNL     1      -3.934  15.424  21.666  0.00  0.00    +0.000 A 
ATOM     18  C   UNL     1      -4.009  16.256  22.808  0.00  0.00    +0.000 A 
BRANCH  13  20
ATOM     19  C   UNL     1      -4.531  17.752  25.155  0.00  0.00    +0.000 C 
ATOM     20  O   UNL     1      -4.196  16.372  25.247  0.00  0.00    +0.000 OA
ENDBRANCH  13  20
ENDBRANCH   1  16
BRANCH  12  21
ATOM     21  N   UNL     1      -6.873  13.812  20.264  0.00  0.00    +0.000 N 
ATOM     22  H   UNL     1      -7.557  14.341  19.724  0.00  0.00    +0.000 HD
BRANCH  21  23
ATOM     23  C   UNL     1      -7.250  13.706  21.626  0.00  0.00    +0.000 A 
ATOM     24  C   UNL     1      -7.249  12.509  22.348  0.00  0.00    +0.000 A 
ATOM     25  C   UNL     1      -7.509  12.497  23.727  0.00  0.00    +0.000 A 
ATOM     26  C   UNL     1      -7.741  13.690  24.408  0.00  0.00    +0.000 A 
ATOM     27  C   UNL     1      -7.690  14.898  23.720  0.00  0.00    +0.000 A 
ATOM     28  C   UNL     1      -7.442  14.903  22.345  0.00  0.00    +0.000 A 
ENDBRANCH  21  23
ENDBRANCH  12  21
TORSDOF 4
ENDMDL
MODEL 7
REMARK VINA RESULT:      -6.2      4.784      6.464
REMARK  Name = 
REMARK  6 active torsions:
REMARK  status: ('A' for Active; 'I' for Inactive)
REMARK    1  A    between atoms: C_1  and  O_2
REMARK    2  A    between atoms: O_2  and  C_3
REMARK    3  A    between atoms: C_6  and  C_7
REMARK    4  A    between atoms: C_8  and  C_9
REMARK    5  A    between atoms: N_18  and  N_19
REMARK    6  A    between atoms: N_19  and  C_20
REMARK                            x       y       z     vdW  Elec       q    Type
REMARK                         _______ _______ _______ _____ _____    ______ ____
ROOT
ATOM      1  C   UNL     1       5.427   5.640  16.502  0.00  0.00    +0.000 A 
ATOM      2  C   UNL     1       5.059   4.591  15.695  0.00  0.00    +0.000 A 
ATOM      3  C   UNL     1       4.112   3.450  16.033  0.00  0.00    +0.000 C 
ATOM      4  C   UNL     1       5.667   4.354  14.368  0.00  0.00    +0.000 A 
ATOM      5  C   UNL     1       5.064   3.624  13.328  0.00  0.00    +0.000 A 
ATOM      6  C   UNL     1       5.793   3.246  12.195  0.00  0.00    +0.000 A 
ATOM      7  C   UNL     1       7.136   3.597  12.087  0.00  0.00    +0.000 A 
ATOM      8  C   UNL     1       7.705   4.418  13.057  0.00  0.00    +0.000 A 
ATOM      9  C   UNL     1       6.936   4.821  14.147  0.00  0.00    +0.000 A 
ATOM     10  O   UNL     1       7.452   5.775  15.017  0.00  0.00    +0.000 OA
ATOM     11  C   UNL     1       6.810   6.320  16.143  0.00  0.00    +0.000 A 
ATOM     12  N   UNL     1       7.608   7.209  16.650  0.00  0.00    +0.000 NA
ENDROOT
BRANCH   1  16
ATOM     13  C   UNL     1       2.566   6.920  19.708  0.00  0.00    +0.000 A 
ATOM     14  C   UNL     1       3.371   5.809  19.866  0.00  0.00    +0.000 A 
ATOM     15  C   UNL     1       4.285   5.421  18.860  0.00  0.00    +0.000 A 
ATOM     16  C   UNL     1       4.479   6.109  17.642  0.00  0.00    +0.000 A 
ATOM     17  C   UNL     1       3.583   7.174  17.525  0.00  0.00    +0.000 A 
ATOM     18  C   UNL     1       2.685   7.615  18.525  0.00  0.00    +0.000 A 
BRANCH  13  20
ATOM     19  C   UNL     1       1.440   8.535  21.030  0.00  0.00    +0.000 C 
ATOM     20  O   UNL     1       1.676   7.168  20.711  0.00  0.00    +0.000 OA
ENDBRANCH  13  20
ENDBRANCH   1  16
BRANCH  12  21
ATOM     21  N   UNL     1       7.517   7.644  17.906  0.00  0.00    +0.000 N 
ATOM     22  H   UNL     1       7.637   6.945  18.638  0.00  0.00    +0.000 HD
BRANCH  21  23
ATOM     23  C   UNL     1       8.066   8.895  18.280  0.00  0.00    +0.000 A 
ATOM     24  C   UNL     1       9.016   9.063  19.292  0.00  0.00    +0.000 A 
ATOM     25  C   UNL     1       9.613  10.311  19.522  0.00  0.00    +0.000 A 
ATOM     26  C   UNL     1       9.291  11.403  18.719  0.00  0.00    +0.000 A 
ATOM     27  C   UNL     1       8.390  11.245  17.671  0.00  0.00    +0.000 A 
ATOM     28  C   UNL     1       7.790  10.003  17.452  0.00  0.00    +0.000 A 
ENDBRANCH  21  23
ENDBRANCH  12  21
TORSDOF 4
ENDMDL
MODEL 8
REMARK VINA RESULT:      -6.1      5.263      9.245
REMARK  Name = 
REMARK  6 active torsions:
REMARK  status: ('A' for Active; 'I' for Inactive)
REMARK    1  A    between atoms: C_1  and  O_2
REMARK    2  A    between atoms: O_2  and  C_3
REMARK    3  A    between atoms: C_6  and  C_7
REMARK    4  A    between atoms: C_8  and  C_9
REMARK    5  A    between atoms: N_18  and  N_19
REMARK    6  A    between atoms: N_19  and  C_20
REMARK                            x       y       z     vdW  Elec       q    Type
REMARK                         _______ _______ _______ _____ _____    ______ ____
ROOT
ATOM      1  C   UNL     1      -4.560  11.841  19.017  0.00  0.00    +0.000 A 
ATOM      2  C   UNL     1      -5.867  11.704  19.416  0.00  0.00    +0.000 A 
ATOM      3  C   UNL     1      -7.089  11.506  18.534  0.00  0.00    +0.000 C 
ATOM      4  C   UNL     1      -6.292  11.867  20.823  0.00  0.00    +0.000 A 
ATOM      5  C   UNL     1      -7.464  11.319  21.377  0.00  0.00    +0.000 A 
ATOM      6  C   UNL     1      -7.914  11.709  22.642  0.00  0.00    +0.000 A 
ATOM      7  C   UNL     1      -7.197  12.652  23.372  0.00  0.00    +0.000 A 
ATOM      8  C   UNL     1      -5.977  13.110  22.880  0.00  0.00    +0.000 A 
ATOM      9  C   UNL     1      -5.530  12.661  21.640  0.00  0.00    +0.000 A 
ATOM     10  O   UNL     1      -4.240  12.984  21.233  0.00  0.00    +0.000 OA
ATOM     11  C   UNL     1      -3.613  12.593  20.037  0.00  0.00    +0.000 A 
ATOM     12  N   UNL     1      -2.401  13.058  20.066  0.00  0.00    +0.000 NA
ENDROOT
BRANCH   1  16
ATOM     13  C   UNL     1      -3.120  10.208  15.097  0.00  0.00    +0.000 A 
ATOM     14  C   UNL     1      -2.634   9.725  16.297  0.00  0.00    +0.000 A 
ATOM     15  C   UNL     1      -3.107  10.231  17.531  0.00  0.00    +0.000 A 
ATOM     16  C   UNL     1      -4.096  11.230  17.663  0.00  0.00    +0.000 A 
ATOM     17  C   UNL     1      -4.483  11.715  16.414  0.00  0.00    +0.000 A 
ATOM     18  C   UNL     1      -4.065  11.207  15.161  0.00  0.00    +0.000 A 
BRANCH  13  20
ATOM     19  C   UNL     1      -3.376   9.641  12.808  0.00  0.00    +0.000 C 
ATOM     20  O   UNL     1      -2.551   9.696  13.968  0.00  0.00    +0.000 OA
ENDBRANCH  13  20
ENDBRANCH   1  16
BRANCH  12  21
ATOM     21  N   UNL     1      -1.653  13.221  18.976  0.00  0.00    +0.000 N 
ATOM     22  H   UNL     1      -1.688  14.139  18.534  0.00  0.00    +0.000 HD
BRANCH  21  23
ATOM     23  C   UNL     1      -0.360  12.648  18.894  0.00  0.00    +0.000 A 
ATOM     24  C   UNL     1      -0.106  11.275  18.955  0.00  0.00    +0.000 A 
ATOM     25  C   UNL     1       1.184  10.769  18.737  0.00  0.00    +0.000 A 
ATOM     26  C   UNL     1       2.232  11.630  18.421  0.00  0.00    +0.000 A 
ATOM     27  C   UNL     1       1.991  12.994  18.300  0.00  0.00    +0.000 A 
ATOM     28  C   UNL     1       0.707  13.495  18.528  0.00  0.00    +0.000 A 
ENDBRANCH  21  23
ENDBRANCH  12  21
TORSDOF 4
ENDMDL
MODEL 9
REMARK VINA RESULT:      -6.0      5.788      7.890
REMARK  Name = 
REMARK  6 active torsions:
REMARK  status: ('A' for Active; 'I' for Inactive)
REMARK    1  A    between atoms: C_1  and  O_2
REMARK    2  A    between atoms: O_2  and  C_3
REMARK    3  A    between atoms: C_6  and  C_7
REMARK    4  A    between atoms: C_8  and  C_9
REMARK    5  A    between atoms: N_18  and  N_19
REMARK    6  A    between atoms: N_19  and  C_20
REMARK                            x       y       z     vdW  Elec       q    Type
REMARK                         _______ _______ _______ _____ _____    ______ ____
ROOT
ATOM      1  C   UNL     1      -3.341  12.440  20.146  0.00  0.00    +0.000 A 
ATOM      2  C   UNL     1      -4.166  12.023  19.129  0.00  0.00    +0.000 A 
ATOM      3  C   UNL     1      -5.684  11.940  19.143  0.00  0.00    +0.000 C 
ATOM      4  C   UNL     1      -3.650  11.448  17.869  0.00  0.00    +0.000 A 
ATOM      5  C   UNL     1      -4.352  11.425  16.650  0.00  0.00    +0.000 A 
ATOM      6  C   UNL     1      -3.897  10.662  15.569  0.00  0.00    +0.000 A 
ATOM      7  C   UNL     1      -2.731   9.913  15.694  0.00  0.00    +0.000 A 
ATOM      8  C   UNL     1      -1.970  10.023  16.855  0.00  0.00    +0.000 A 
ATOM      9  C   UNL     1      -2.424  10.835  17.892  0.00  0.00    +0.000 A 
ATOM     10  O   UNL     1      -1.584  11.077  18.973  0.00  0.00    +0.000 OA
ATOM     11  C   UNL     1      -1.858  11.890  20.087  0.00  0.00    +0.000 A 
ATOM     12  N   UNL     1      -0.799  11.890  20.837  0.00  0.00    +0.000 NA
ENDROOT
BRANCH   1  16
ATOM     13  C   UNL     1      -5.025  15.305  23.156  0.00  0.00    +0.000 A 
ATOM     14  C   UNL     1      -5.105  13.939  23.342  0.00  0.00    +0.000 A 
ATOM     15  C   UNL     1      -4.555  13.040  22.399  0.00  0.00    +0.000 A 
ATOM     16  C   UNL     1      -3.878  13.427  21.222  0.00  0.00    +0.000 A 
ATOM     17  C   UNL     1      -3.900  14.814  21.068  0.00  0.00    +0.000 A 
ATOM     18  C   UNL     1      -4.404  15.744  22.008  0.00  0.00    +0.000 A 
BRANCH  13  20
ATOM     19  C   UNL     1      -4.802  16.905  24.892  0.00  0.00    +0.000 C 
ATOM     20  O   UNL     1      -5.643  16.079  24.093  0.00  0.00    +0.000 OA
ENDBRANCH  13  20
ENDBRANCH   1  16
BRANCH  12  21
ATOM     21  N   UNL     1      -0.815  12.219  22.127  0.00  0.00    +0.000 N 
ATOM     22  H   UNL     1      -0.334  11.584  22.764  0.00  0.00    +0.000 HD
BRANCH  21  23
ATOM     23  C   UNL     1      -0.679  13.570  22.531  0.00  0.00    +0.000 A 
ATOM     24  C   UNL     1      -0.148  14.579  21.723  0.00  0.00    +0.000 A 
ATOM     25  C   UNL     1      -0.162  15.919  22.138  0.00  0.00    +0.000 A 
ATOM     26  C   UNL     1      -0.740  16.272  23.356  0.00  0.00    +0.000 A 
ATOM     27  C   UNL     1      -1.325  15.291  24.150  0.00  0.00    +0.000 A 
ATOM     28  C   UNL     1      -1.299  13.956  23.738  0.00  0.00    +0.000 A 
ENDBRANCH  21  23
ENDBRANCH  12  21
TORSDOF 4
ENDMDL
