MODEL 1
REMARK VINA RESULT:      -8.4      0.000      0.000
REMARK  Name = 
REMARK  7 active torsions:
REMARK  status: ('A' for Active; 'I' for Inactive)
REMARK    1  A    between atoms: C_2  and  C_5
REMARK    2  A    between atoms: N_11  and  C_12
REMARK    3  A    between atoms: C_12  and  C_13
REMARK    4  A    between atoms: C_13  and  C_14
REMARK    5  A    between atoms: C_14  and  C_15
REMARK    6  A    between atoms: C_15  and  N_16
REMARK    7  A    between atoms: C_19  and  N_20
REMARK                            x       y       z     vdW  Elec       q    Type
REMARK                         _______ _______ _______ _____ _____    ______ ____
ROOT
ATOM      1  C   UNL     1       6.435   6.594  17.407  0.00  0.00    +0.000 A 
ATOM      2  C   UNL     1       6.423   5.629  16.395  0.00  0.00    +0.000 A 
ATOM      3  C   UNL     1       5.370   4.716  16.303  0.00  0.00    +0.000 A 
ATOM      4  C   UNL     1       4.317   4.748  17.226  0.00  0.00    +0.000 A 
ATOM      5  C   UNL     1       4.285   5.734  18.231  0.00  0.00    +0.000 A 
ATOM      6  C   UNL     1       5.357   6.640  18.307  0.00  0.00    +0.000 A 
ATOM      7  N   UNL     1       3.255   5.778  19.201  0.00  0.00    +0.000 N 
ATOM      8  C   UNL     1       2.508   4.640  19.584  0.00  0.00    +0.000 A 
ATOM      9  C   UNL     1       1.985   4.553  20.887  0.00  0.00    +0.000 A 
ATOM     10  C   UNL     1       1.361   3.389  21.342  0.00  0.00    +0.000 A 
ATOM     11  C   UNL     1       1.237   2.292  20.496  0.00  0.00    +0.000 A 
ATOM     12  C   UNL     1       1.736   2.360  19.195  0.00  0.00    +0.000 A 
ATOM     13  C   UNL     1       2.383   3.518  18.741  0.00  0.00    +0.000 A 
ATOM     14  S   UNL     1       3.027   3.522  17.073  0.00  0.00    +0.000 S 
ENDROOT
BRANCH   1  16
ATOM     15  F   UNL     1       7.195   8.844  17.765  0.00  0.00    +0.000 F 
ATOM     16  C   UNL     1       7.585   7.553  17.574  0.00  0.00    +0.000 C 
ATOM     17  F   UNL     1       8.410   7.572  16.490  0.00  0.00    +0.000 F 
ATOM     18  F   UNL     1       8.378   7.247  18.638  0.00  0.00    +0.000 F 
ENDBRANCH   1  16
BRANCH   7  19
ATOM     19  C   UNL     1       2.559   7.080  19.320  0.00  0.00    +0.000 C 
BRANCH  19  20
ATOM     20  C   UNL     1       1.978   7.562  17.981  0.00  0.00    +0.000 C 
BRANCH  20  21
ATOM     21  C   UNL     1       1.985   9.089  17.858  0.00  0.00    +0.000 C 
BRANCH  21  22
ATOM     22  C   UNL     1       0.617   9.758  18.068  0.00  0.00    +0.000 C 
BRANCH  22  23
ATOM     23  N   UNL     1       0.655  10.999  18.868  0.00  0.00    +0.000 NA
ATOM     24  C   UNL     1      -0.540  11.824  18.610  0.00  0.00    +0.000 C 
ATOM     25  C   UNL     1      -0.635  13.053  19.520  0.00  0.00    +0.000 C 
ATOM     26  C   UNL     1      -0.621  12.689  21.020  0.00  0.00    +0.000 C 
ATOM     27  C   UNL     1       0.681  11.876  21.213  0.00  0.00    +0.000 C 
ATOM     28  C   UNL     1       0.758  10.654  20.296  0.00  0.00    +0.000 C 
BRANCH  26  29
ATOM     29  N   UNL     1      -1.852  11.981  21.464  0.00  0.00    +0.000 NA
ATOM     30  C   UNL     1      -3.098  12.728  21.201  0.00  0.00    +0.000 C 
ATOM     31  C   UNL     1      -3.375  13.526  22.458  0.00  0.00    +0.000 C 
ATOM     32  C   UNL     1      -2.947  12.583  23.558  0.00  0.00    +0.000 C 
ATOM     33  C   UNL     1      -1.889  11.695  22.915  0.00  0.00    +0.000 C 
ENDBRANCH  26  29
ENDBRANCH  22  23
ENDBRANCH  21  22
ENDBRANCH  20  21
ENDBRANCH  19  20
ENDBRANCH   7  19
TORSDOF 7
ENDMDL
MODEL 2
REMARK VINA RESULT:      -8.3      0.712      1.076
REMARK  Name = 
REMARK  7 active torsions:
REMARK  status: ('A' for Active; 'I' for Inactive)
REMARK    1  A    between atoms: C_2  and  C_5
REMARK    2  A    between atoms: N_11  and  C_12
REMARK    3  A    between atoms: C_12  and  C_13
REMARK    4  A    between atoms: C_13  and  C_14
REMARK    5  A    between atoms: C_14  and  C_15
REMARK    6  A    between atoms: C_15  and  N_16
REMARK    7  A    between atoms: C_19  and  N_20
REMARK                            x       y       z     vdW  Elec       q    Type
REMARK                         _______ _______ _______ _____ _____    ______ ____
ROOT
ATOM      1  C   UNL     1       6.424   6.590  17.394  0.00  0.00    +0.000 A 
ATOM      2  C   UNL     1       6.389   5.638  16.370  0.00  0.00    +0.000 A 
ATOM      3  C   UNL     1       5.332   4.730  16.287  0.00  0.00    +0.000 A 
ATOM      4  C   UNL     1       4.297   4.753  17.231  0.00  0.00    +0.000 A 
ATOM      5  C   UNL     1       4.288   5.725  18.249  0.00  0.00    +0.000 A 
ATOM      6  C   UNL     1       5.363   6.628  18.315  0.00  0.00    +0.000 A 
ATOM      7  N   UNL     1       3.277   5.760  19.239  0.00  0.00    +0.000 N 
ATOM      8  C   UNL     1       2.534   4.619  19.622  0.00  0.00    +0.000 A 
ATOM      9  C   UNL     1       2.037   4.518  20.934  0.00  0.00    +0.000 A 
ATOM     10  C   UNL     1       1.418   3.349  21.386  0.00  0.00    +0.000 A 
ATOM     11  C   UNL     1       1.274   2.264  20.529  0.00  0.00    +0.000 A 
ATOM     12  C   UNL     1       1.747   2.347  19.219  0.00  0.00    +0.000 A 
ATOM     13  C   UNL     1       2.389   3.509  18.767  0.00  0.00    +0.000 A 
ATOM     14  S   UNL     1       3.001   3.533  17.088  0.00  0.00    +0.000 S 
ENDROOT
BRANCH   1  16
ATOM     15  F   UNL     1       8.406   7.234  18.588  0.00  0.00    +0.000 F 
ATOM     16  C   UNL     1       7.580   7.544  17.550  0.00  0.00    +0.000 C 
ATOM     17  F   UNL     1       7.173   8.826  17.770  0.00  0.00    +0.000 F 
ATOM     18  F   UNL     1       8.377   7.592  16.447  0.00  0.00    +0.000 F 
ENDBRANCH   1  16
BRANCH   7  19
ATOM     19  C   UNL     1       2.588   7.063  19.389  0.00  0.00    +0.000 C 
BRANCH  19  20
ATOM     20  C   UNL     1       1.938   7.539  18.079  0.00  0.00    +0.000 C 
BRANCH  20  21
ATOM     21  C   UNL     1       2.065   9.053  17.882  0.00  0.00    +0.000 C 
BRANCH  21  22
ATOM     22  C   UNL     1       0.835   9.865  18.318  0.00  0.00    +0.000 C 
BRANCH  22  23
ATOM     23  N   UNL     1       0.959  10.508  19.642  0.00  0.00    +0.000 NA
ATOM     24  C   UNL     1       0.906  11.976  19.517  0.00  0.00    +0.000 C 
ATOM     25  C   UNL     1       0.879  12.698  20.867  0.00  0.00    +0.000 C 
ATOM     26  C   UNL     1      -0.298  12.252  21.761  0.00  0.00    +0.000 C 
ATOM     27  C   UNL     1      -0.137  10.718  21.883  0.00  0.00    +0.000 C 
ATOM     28  C   UNL     1      -0.112  10.015  20.524  0.00  0.00    +0.000 C 
BRANCH  26  29
ATOM     29  N   UNL     1      -1.624  12.686  21.244  0.00  0.00    +0.000 NA
ATOM     30  C   UNL     1      -1.723  14.137  20.996  0.00  0.00    +0.000 C 
ATOM     31  C   UNL     1      -2.276  14.738  22.273  0.00  0.00    +0.000 C 
ATOM     32  C   UNL     1      -3.269  13.697  22.732  0.00  0.00    +0.000 C 
ATOM     33  C   UNL     1      -2.750  12.386  22.156  0.00  0.00    +0.000 C 
ENDBRANCH  26  29
ENDBRANCH  22  23
ENDBRANCH  21  22
ENDBRANCH  20  21
ENDBRANCH  19  20
ENDBRANCH   7  19
TORSDOF 7
ENDMDL
MODEL 3
REMARK VINA RESULT:      -8.2      1.203      2.149
REMARK  Name = 
REMARK  7 active torsions:
REMARK  status: ('A' for Active; 'I' for Inactive)
REMARK    1  A    between atoms: C_2  and  C_5
REMARK    2  A    between atoms: N_11  and  C_12
REMARK    3  A    between atoms: C_12  and  C_13
REMARK    4  A    between atoms: C_13  and  C_14
REMARK    5  A    between atoms: C_14  and  C_15
REMARK    6  A    between atoms: C_15  and  N_16
REMARK    7  A    between atoms: C_19  and  N_20
REMARK                            x       y       z     vdW  Elec       q    Type
REMARK                         _______ _______ _______ _____ _____    ______ ____
ROOT
ATOM      1  C   UNL     1       6.345   6.541  17.336  0.00  0.00    +0.000 A 
ATOM      2  C   UNL     1       6.268   5.615  16.291  0.00  0.00    +0.000 A 
ATOM      3  C   UNL     1       5.188   4.734  16.208  0.00  0.00    +0.000 A 
ATOM      4  C   UNL     1       4.173   4.758  17.173  0.00  0.00    +0.000 A 
ATOM      5  C   UNL     1       4.206   5.706  18.213  0.00  0.00    +0.000 A 
ATOM      6  C   UNL     1       5.304   6.582  18.279  0.00  0.00    +0.000 A 
ATOM      7  N   UNL     1       3.217   5.740  19.225  0.00  0.00    +0.000 N 
ATOM      8  C   UNL     1       2.455   4.608  19.596  0.00  0.00    +0.000 A 
ATOM      9  C   UNL     1       1.981   4.487  20.915  0.00  0.00    +0.000 A 
ATOM     10  C   UNL     1       1.344   3.323  21.352  0.00  0.00    +0.000 A 
ATOM     11  C   UNL     1       1.157   2.262  20.472  0.00  0.00    +0.000 A 
ATOM     12  C   UNL     1       1.607   2.365  19.156  0.00  0.00    +0.000 A 
ATOM     13  C   UNL     1       2.267   3.523  18.718  0.00  0.00    +0.000 A 
ATOM     14  S   UNL     1       2.845   3.572  17.027  0.00  0.00    +0.000 S 
ENDROOT
BRANCH   1  16
ATOM     15  F   UNL     1       8.308   7.173  18.567  0.00  0.00    +0.000 F 
ATOM     16  C   UNL     1       7.526   7.464  17.491  0.00  0.00    +0.000 C 
ATOM     17  F   UNL     1       7.155   8.766  17.644  0.00  0.00    +0.000 F 
ATOM     18  F   UNL     1       8.359   7.441  16.413  0.00  0.00    +0.000 F 
ENDBRANCH   1  16
BRANCH   7  19
ATOM     19  C   UNL     1       2.562   7.055  19.419  0.00  0.00    +0.000 C 
BRANCH  19  20
ATOM     20  C   UNL     1       2.228   7.749  18.087  0.00  0.00    +0.000 C 
BRANCH  20  21
ATOM     21  C   UNL     1       1.581   9.122  18.292  0.00  0.00    +0.000 C 
BRANCH  21  22
ATOM     22  C   UNL     1       1.014   9.363  19.701  0.00  0.00    +0.000 C 
BRANCH  22  23
ATOM     23  N   UNL     1      -0.208  10.191  19.739  0.00  0.00    +0.000 NA
ATOM     24  C   UNL     1      -0.282  10.956  20.998  0.00  0.00    +0.000 C 
ATOM     25  C   UNL     1      -1.449  11.948  21.036  0.00  0.00    +0.000 C 
ATOM     26  C   UNL     1      -1.416  12.955  19.866  0.00  0.00    +0.000 C 
ATOM     27  C   UNL     1      -1.394  12.075  18.594  0.00  0.00    +0.000 C 
ATOM     28  C   UNL     1      -0.222  11.091  18.574  0.00  0.00    +0.000 C 
BRANCH  26  29
ATOM     29  N   UNL     1      -0.291  13.924  19.957  0.00  0.00    +0.000 NA
ATOM     30  C   UNL     1      -0.418  14.885  21.069  0.00  0.00    +0.000 C 
ATOM     31  C   UNL     1      -1.118  16.097  20.491  0.00  0.00    +0.000 C 
ATOM     32  C   UNL     1      -0.532  16.195  19.102  0.00  0.00    +0.000 C 
ATOM     33  C   UNL     1      -0.128  14.768  18.752  0.00  0.00    +0.000 C 
ENDBRANCH  26  29
ENDBRANCH  22  23
ENDBRANCH  21  22
ENDBRANCH  20  21
ENDBRANCH  19  20
ENDBRANCH   7  19
TORSDOF 7
ENDMDL
MODEL 4
REMARK VINA RESULT:      -8.1      1.381      2.398
REMARK  Name = 
REMARK  7 active torsions:
REMARK  status: ('A' for Active; 'I' for Inactive)
REMARK    1  A    between atoms: C_2  and  C_5
REMARK    2  A    between atoms: N_11  and  C_12
REMARK    3  A    between atoms: C_12  and  C_13
REMARK    4  A    between atoms: C_13  and  C_14
REMARK    5  A    between atoms: C_14  and  C_15
REMARK    6  A    between atoms: C_15  and  N_16
REMARK    7  A    between atoms: C_19  and  N_20
REMARK                            x       y       z     vdW  Elec       q    Type
REMARK                         _______ _______ _______ _____ _____    ______ ____
ROOT
ATOM      1  C   UNL     1       6.414   6.653  17.371  0.00  0.00    +0.000 A 
ATOM      2  C   UNL     1       6.389   5.731  16.320  0.00  0.00    +0.000 A 
ATOM      3  C   UNL     1       5.327   4.833  16.196  0.00  0.00    +0.000 A 
ATOM      4  C   UNL     1       4.277   4.838  17.124  0.00  0.00    +0.000 A 
ATOM      5  C   UNL     1       4.259   5.781  18.169  0.00  0.00    +0.000 A 
ATOM      6  C   UNL     1       5.340   6.673  18.277  0.00  0.00    +0.000 A 
ATOM      7  N   UNL     1       3.234   5.796  19.144  0.00  0.00    +0.000 N 
ATOM      8  C   UNL     1       2.477   4.650  19.484  0.00  0.00    +0.000 A 
ATOM      9  C   UNL     1       1.959   4.515  20.784  0.00  0.00    +0.000 A 
ATOM     10  C   UNL     1       1.325   3.340  21.193  0.00  0.00    +0.000 A 
ATOM     11  C   UNL     1       1.186   2.280  20.304  0.00  0.00    +0.000 A 
ATOM     12  C   UNL     1       1.680   2.396  19.005  0.00  0.00    +0.000 A 
ATOM     13  C   UNL     1       2.337   3.566  18.595  0.00  0.00    +0.000 A 
ATOM     14  S   UNL     1       2.974   3.632  16.926  0.00  0.00    +0.000 S 
ENDROOT
BRANCH   1  16
ATOM     15  F   UNL     1       8.422   7.649  16.506  0.00  0.00    +0.000 F 
ATOM     16  C   UNL     1       7.575   7.593  17.572  0.00  0.00    +0.000 C 
ATOM     17  F   UNL     1       8.346   7.250  18.641  0.00  0.00    +0.000 F 
ATOM     18  F   UNL     1       7.181   8.878  17.796  0.00  0.00    +0.000 F 
ENDBRANCH   1  16
BRANCH   7  19
ATOM     19  C   UNL     1       2.552   7.099  19.320  0.00  0.00    +0.000 C 
BRANCH  19  20
ATOM     20  C   UNL     1       2.091   7.707  17.985  0.00  0.00    +0.000 C 
BRANCH  20  21
ATOM     21  C   UNL     1       1.882   9.222  18.076  0.00  0.00    +0.000 C 
BRANCH  21  22
ATOM     22  C   UNL     1       0.420   9.679  17.943  0.00  0.00    +0.000 C 
BRANCH  22  23
ATOM     23  N   UNL     1      -0.063  10.527  19.052  0.00  0.00    +0.000 NA
ATOM     24  C   UNL     1       1.069  11.088  19.812  0.00  0.00    +0.000 C 
ATOM     25  C   UNL     1       0.639  12.096  20.883  0.00  0.00    +0.000 C 
ATOM     26  C   UNL     1      -0.178  13.271  20.304  0.00  0.00    +0.000 C 
ATOM     27  C   UNL     1      -1.366  12.600  19.574  0.00  0.00    +0.000 C 
ATOM     28  C   UNL     1      -0.916  11.598  18.509  0.00  0.00    +0.000 C 
BRANCH  26  29
ATOM     29  N   UNL     1       0.629  14.181  19.447  0.00  0.00    +0.000 NA
ATOM     30  C   UNL     1       1.723  14.864  20.164  0.00  0.00    +0.000 C 
ATOM     31  C   UNL     1       1.148  16.185  20.634  0.00  0.00    +0.000 C 
ATOM     32  C   UNL     1       0.252  16.589  19.488  0.00  0.00    +0.000 C 
ATOM     33  C   UNL     1      -0.154  15.276  18.831  0.00  0.00    +0.000 C 
ENDBRANCH  26  29
ENDBRANCH  22  23
ENDBRANCH  21  22
ENDBRANCH  20  21
ENDBRANCH  19  20
ENDBRANCH   7  19
TORSDOF 7
ENDMDL
MODEL 5
REMARK VINA RESULT:      -8.1      0.867      1.420
REMARK  Name = 
REMARK  7 active torsions:
REMARK  status: ('A' for Active; 'I' for Inactive)
REMARK    1  A    between atoms: C_2  and  C_5
REMARK    2  A    between atoms: N_11  and  C_12
REMARK    3  A    between atoms: C_12  and  C_13
REMARK    4  A    between atoms: C_13  and  C_14
REMARK    5  A    between atoms: C_14  and  C_15
REMARK    6  A    between atoms: C_15  and  N_16
REMARK    7  A    between atoms: C_19  and  N_20
REMARK                            x       y       z     vdW  Elec       q    Type
REMARK                         _______ _______ _______ _____ _____    ______ ____
ROOT
ATOM      1  C   UNL     1       6.435   6.550  17.427  0.00  0.00    +0.000 A 
ATOM      2  C   UNL     1       6.399   5.592  16.409  0.00  0.00    +0.000 A 
ATOM      3  C   UNL     1       5.345   4.680  16.336  0.00  0.00    +0.000 A 
ATOM      4  C   UNL     1       4.314   4.704  17.285  0.00  0.00    +0.000 A 
ATOM      5  C   UNL     1       4.306   5.683  18.297  0.00  0.00    +0.000 A 
ATOM      6  C   UNL     1       5.379   6.590  18.353  0.00  0.00    +0.000 A 
ATOM      7  N   UNL     1       3.300   5.719  19.292  0.00  0.00    +0.000 N 
ATOM      8  C   UNL     1       2.563   4.578  19.685  0.00  0.00    +0.000 A 
ATOM      9  C   UNL     1       2.072   4.482  21.000  0.00  0.00    +0.000 A 
ATOM     10  C   UNL     1       1.460   3.314  21.461  0.00  0.00    +0.000 A 
ATOM     11  C   UNL     1       1.316   2.223  20.611  0.00  0.00    +0.000 A 
ATOM     12  C   UNL     1       1.783   2.300  19.299  0.00  0.00    +0.000 A 
ATOM     13  C   UNL     1       2.419   3.462  18.837  0.00  0.00    +0.000 A 
ATOM     14  S   UNL     1       3.022   3.479  17.154  0.00  0.00    +0.000 S 
ENDROOT
BRANCH   1  16
ATOM     15  F   UNL     1       8.431   7.198  18.596  0.00  0.00    +0.000 F 
ATOM     16  C   UNL     1       7.588   7.509  17.572  0.00  0.00    +0.000 C 
ATOM     17  F   UNL     1       7.178   8.788  17.806  0.00  0.00    +0.000 F 
ATOM     18  F   UNL     1       8.368   7.569  16.458  0.00  0.00    +0.000 F 
ENDBRANCH   1  16
BRANCH   7  19
ATOM     19  C   UNL     1       2.607   7.021  19.437  0.00  0.00    +0.000 C 
BRANCH  19  20
ATOM     20  C   UNL     1       1.756   7.375  18.206  0.00  0.00    +0.000 C 
BRANCH  20  21
ATOM     21  C   UNL     1       2.215   8.674  17.535  0.00  0.00    +0.000 C 
BRANCH  21  22
ATOM     22  C   UNL     1       2.249   9.900  18.461  0.00  0.00    +0.000 C 
BRANCH  22  23
ATOM     23  N   UNL     1       0.969  10.631  18.561  0.00  0.00    +0.000 NA
ATOM     24  C   UNL     1       0.103  10.030  19.592  0.00  0.00    +0.000 C 
ATOM     25  C   UNL     1      -1.177  10.831  19.850  0.00  0.00    +0.000 C 
ATOM     26  C   UNL     1      -0.895  12.294  20.255  0.00  0.00    +0.000 C 
ATOM     27  C   UNL     1      -0.032  12.860  19.103  0.00  0.00    +0.000 C 
ATOM     28  C   UNL     1       1.240  12.047  18.861  0.00  0.00    +0.000 C 
BRANCH  26  29
ATOM     29  N   UNL     1      -0.273  12.420  21.601  0.00  0.00    +0.000 NA
ATOM     30  C   UNL     1      -1.035  11.756  22.676  0.00  0.00    +0.000 C 
ATOM     31  C   UNL     1      -1.952  12.817  23.250  0.00  0.00    +0.000 C 
ATOM     32  C   UNL     1      -1.098  14.061  23.205  0.00  0.00    +0.000 C 
ATOM     33  C   UNL     1      -0.119  13.818  22.062  0.00  0.00    +0.000 C 
ENDBRANCH  26  29
ENDBRANCH  22  23
ENDBRANCH  21  22
ENDBRANCH  20  21
ENDBRANCH  19  20
ENDBRANCH   7  19
TORSDOF 7
ENDMDL
MODEL 6
REMARK VINA RESULT:      -8.1      1.523      2.654
REMARK  Name = 
REMARK  7 active torsions:
REMARK  status: ('A' for Active; 'I' for Inactive)
REMARK    1  A    between atoms: C_2  and  C_5
REMARK    2  A    between atoms: N_11  and  C_12
REMARK    3  A    between atoms: C_12  and  C_13
REMARK    4  A    between atoms: C_13  and  C_14
REMARK    5  A    between atoms: C_14  and  C_15
REMARK    6  A    between atoms: C_15  and  N_16
REMARK    7  A    between atoms: C_19  and  N_20
REMARK                            x       y       z     vdW  Elec       q    Type
REMARK                         _______ _______ _______ _____ _____    ______ ____
ROOT
ATOM      1  C   UNL     1       6.351   6.588  17.384  0.00  0.00    +0.000 A 
ATOM      2  C   UNL     1       6.361   5.637  16.359  0.00  0.00    +0.000 A 
ATOM      3  C   UNL     1       5.315   4.721  16.237  0.00  0.00    +0.000 A 
ATOM      4  C   UNL     1       4.246   4.735  17.143  0.00  0.00    +0.000 A 
ATOM      5  C   UNL     1       4.192   5.706  18.161  0.00  0.00    +0.000 A 
ATOM      6  C   UNL     1       5.258   6.617  18.267  0.00  0.00    +0.000 A 
ATOM      7  N   UNL     1       3.147   5.731  19.114  0.00  0.00    +0.000 N 
ATOM      8  C   UNL     1       2.399   4.584  19.469  0.00  0.00    +0.000 A 
ATOM      9  C   UNL     1       1.856   4.477  20.762  0.00  0.00    +0.000 A 
ATOM     10  C   UNL     1       1.231   3.303  21.190  0.00  0.00    +0.000 A 
ATOM     11  C   UNL     1       1.126   2.218  20.327  0.00  0.00    +0.000 A 
ATOM     12  C   UNL     1       1.646   2.306  19.036  0.00  0.00    +0.000 A 
ATOM     13  C   UNL     1       2.294   3.474  18.608  0.00  0.00    +0.000 A 
ATOM     14  S   UNL     1       2.965   3.504  16.952  0.00  0.00    +0.000 S 
ENDROOT
BRANCH   1  16
ATOM     15  F   UNL     1       8.282   7.249  18.651  0.00  0.00    +0.000 F 
ATOM     16  C   UNL     1       7.493   7.551  17.583  0.00  0.00    +0.000 C 
ATOM     17  F   UNL     1       7.068   8.830  17.786  0.00  0.00    +0.000 F 
ATOM     18  F   UNL     1       8.330   7.605  16.510  0.00  0.00    +0.000 F 
ENDBRANCH   1  16
BRANCH   7  19
ATOM     19  C   UNL     1       2.442   7.028  19.240  0.00  0.00    +0.000 C 
BRANCH  19  20
ATOM     20  C   UNL     1       2.163   7.408  20.703  0.00  0.00    +0.000 C 
BRANCH  20  21
ATOM     21  C   UNL     1       0.849   8.179  20.865  0.00  0.00    +0.000 C 
BRANCH  21  22
ATOM     22  C   UNL     1       0.980   9.529  21.588  0.00  0.00    +0.000 C 
BRANCH  22  23
ATOM     23  N   UNL     1       0.581  10.701  20.781  0.00  0.00    +0.000 NA
ATOM     24  C   UNL     1       0.687  10.403  19.341  0.00  0.00    +0.000 C 
ATOM     25  C   UNL     1       0.146  11.525  18.449  0.00  0.00    +0.000 C 
ATOM     26  C   UNL     1      -1.325  11.877  18.757  0.00  0.00    +0.000 C 
ATOM     27  C   UNL     1      -1.337  12.224  20.265  0.00  0.00    +0.000 C 
ATOM     28  C   UNL     1      -0.793  11.092  21.138  0.00  0.00    +0.000 C 
BRANCH  26  29
ATOM     29  N   UNL     1      -2.279  10.801  18.373  0.00  0.00    +0.000 NA
ATOM     30  C   UNL     1      -1.948  10.138  17.097  0.00  0.00    +0.000 C 
ATOM     31  C   UNL     1      -2.717  10.889  16.029  0.00  0.00    +0.000 C 
ATOM     32  C   UNL     1      -4.021  11.214  16.719  0.00  0.00    +0.000 C 
ATOM     33  C   UNL     1      -3.672  11.268  18.201  0.00  0.00    +0.000 C 
ENDBRANCH  26  29
ENDBRANCH  22  23
ENDBRANCH  21  22
ENDBRANCH  20  21
ENDBRANCH  19  20
ENDBRANCH   7  19
TORSDOF 7
ENDMDL
MODEL 7
REMARK VINA RESULT:      -8.1      1.917      3.077
REMARK  Name = 
REMARK  7 active torsions:
REMARK  status: ('A' for Active; 'I' for Inactive)
REMARK    1  A    between atoms: C_2  and  C_5
REMARK    2  A    between atoms: N_11  and  C_12
REMARK    3  A    between atoms: C_12  and  C_13
REMARK    4  A    between atoms: C_13  and  C_14
REMARK    5  A    between atoms: C_14  and  C_15
REMARK    6  A    between atoms: C_15  and  N_16
REMARK    7  A    between atoms: C_19  and  N_20
REMARK                            x       y       z     vdW  Elec       q    Type
REMARK                         _______ _______ _______ _____ _____    ______ ____
ROOT
ATOM      1  C   UNL     1       6.407   6.607  17.374  0.00  0.00    +0.000 A 
ATOM      2  C   UNL     1       6.390   5.646  16.359  0.00  0.00    +0.000 A 
ATOM      3  C   UNL     1       5.333   4.738  16.265  0.00  0.00    +0.000 A 
ATOM      4  C   UNL     1       4.281   4.771  17.190  0.00  0.00    +0.000 A 
ATOM      5  C   UNL     1       4.254   5.752  18.198  0.00  0.00    +0.000 A 
ATOM      6  C   UNL     1       5.330   6.654  18.276  0.00  0.00    +0.000 A 
ATOM      7  N   UNL     1       3.227   5.797  19.170  0.00  0.00    +0.000 N 
ATOM      8  C   UNL     1       2.475   4.660  19.550  0.00  0.00    +0.000 A 
ATOM      9  C   UNL     1       1.954   4.571  20.853  0.00  0.00    +0.000 A 
ATOM     10  C   UNL     1       1.326   3.407  21.304  0.00  0.00    +0.000 A 
ATOM     11  C   UNL     1       1.196   2.315  20.454  0.00  0.00    +0.000 A 
ATOM     12  C   UNL     1       1.693   2.385  19.153  0.00  0.00    +0.000 A 
ATOM     13  C   UNL     1       2.344   3.543  18.702  0.00  0.00    +0.000 A 
ATOM     14  S   UNL     1       2.986   3.551  17.033  0.00  0.00    +0.000 S 
ENDROOT
BRANCH   1  16
ATOM     15  F   UNL     1       8.384   7.243  18.581  0.00  0.00    +0.000 F 
ATOM     16  C   UNL     1       7.561   7.561  17.543  0.00  0.00    +0.000 C 
ATOM     17  F   UNL     1       7.151   8.840  17.773  0.00  0.00    +0.000 F 
ATOM     18  F   UNL     1       8.361   7.621  16.443  0.00  0.00    +0.000 F 
ENDBRANCH   1  16
BRANCH   7  19
ATOM     19  C   UNL     1       2.536   7.102  19.295  0.00  0.00    +0.000 C 
BRANCH  19  20
ATOM     20  C   UNL     1       2.218   7.733  17.929  0.00  0.00    +0.000 C 
BRANCH  20  21
ATOM     21  C   UNL     1       1.754   9.188  18.054  0.00  0.00    +0.000 C 
BRANCH  21  22
ATOM     22  C   UNL     1       1.028   9.522  19.367  0.00  0.00    +0.000 C 
BRANCH  22  23
ATOM     23  N   UNL     1       0.645  10.941  19.516  0.00  0.00    +0.000 NA
ATOM     24  C   UNL     1       1.020  11.447  20.848  0.00  0.00    +0.000 C 
ATOM     25  C   UNL     1       0.786  12.952  21.012  0.00  0.00    +0.000 C 
ATOM     26  C   UNL     1       1.532  13.792  19.953  0.00  0.00    +0.000 C 
ATOM     27  C   UNL     1       1.043  13.235  18.596  0.00  0.00    +0.000 C 
ATOM     28  C   UNL     1       1.286  11.731  18.451  0.00  0.00    +0.000 C 
BRANCH  26  29
ATOM     29  N   UNL     1       3.010  13.773  20.123  0.00  0.00    +0.000 NA
ATOM     30  C   UNL     1       3.468  14.287  21.429  0.00  0.00    +0.000 C 
ATOM     31  C   UNL     1       3.738  15.763  21.221  0.00  0.00    +0.000 C 
ATOM     32  C   UNL     1       4.324  15.805  19.829  0.00  0.00    +0.000 C 
ATOM     33  C   UNL     1       3.739  14.587  19.126  0.00  0.00    +0.000 C 
ENDBRANCH  26  29
ENDBRANCH  22  23
ENDBRANCH  21  22
ENDBRANCH  20  21
ENDBRANCH  19  20
ENDBRANCH   7  19
TORSDOF 7
ENDMDL
MODEL 8
REMARK VINA RESULT:      -8.0      0.993      1.634
REMARK  Name = 
REMARK  7 active torsions:
REMARK  status: ('A' for Active; 'I' for Inactive)
REMARK    1  A    between atoms: C_2  and  C_5
REMARK    2  A    between atoms: N_11  and  C_12
REMARK    3  A    between atoms: C_12  and  C_13
REMARK    4  A    between atoms: C_13  and  C_14
REMARK    5  A    between atoms: C_14  and  C_15
REMARK    6  A    between atoms: C_15  and  N_16
REMARK    7  A    between atoms: C_19  and  N_20
REMARK                            x       y       z     vdW  Elec       q    Type
REMARK                         _______ _______ _______ _____ _____    ______ ____
ROOT
ATOM      1  C   UNL     1       6.314   6.501  17.384  0.00  0.00    +0.000 A 
ATOM      2  C   UNL     1       6.216   5.594  16.323  0.00  0.00    +0.000 A 
ATOM      3  C   UNL     1       5.137   4.711  16.248  0.00  0.00    +0.000 A 
ATOM      4  C   UNL     1       4.143   4.715  17.235  0.00  0.00    +0.000 A 
ATOM      5  C   UNL     1       4.197   5.644  18.292  0.00  0.00    +0.000 A 
ATOM      6  C   UNL     1       5.294   6.521  18.350  0.00  0.00    +0.000 A 
ATOM      7  N   UNL     1       3.230   5.657  19.325  0.00  0.00    +0.000 N 
ATOM      8  C   UNL     1       2.478   4.516  19.691  0.00  0.00    +0.000 A 
ATOM      9  C   UNL     1       2.034   4.369  21.018  0.00  0.00    +0.000 A 
ATOM     10  C   UNL     1       1.409   3.195  21.446  0.00  0.00    +0.000 A 
ATOM     11  C   UNL     1       1.206   2.150  20.552  0.00  0.00    +0.000 A 
ATOM     12  C   UNL     1       1.626   2.279  19.228  0.00  0.00    +0.000 A 
ATOM     13  C   UNL     1       2.274   3.446  18.798  0.00  0.00    +0.000 A 
ATOM     14  S   UNL     1       2.815   3.529  17.096  0.00  0.00    +0.000 S 
ENDROOT
BRANCH   1  16
ATOM     15  F   UNL     1       8.317   7.099  18.567  0.00  0.00    +0.000 F 
ATOM     16  C   UNL     1       7.496   7.424  17.530  0.00  0.00    +0.000 C 
ATOM     17  F   UNL     1       7.125   8.718  17.743  0.00  0.00    +0.000 F 
ATOM     18  F   UNL     1       8.290   7.444  16.424  0.00  0.00    +0.000 F 
ENDBRANCH   1  16
BRANCH   7  19
ATOM     19  C   UNL     1       2.576   6.966  19.557  0.00  0.00    +0.000 C 
BRANCH  19  20
ATOM     20  C   UNL     1       1.928   7.535  18.283  0.00  0.00    +0.000 C 
BRANCH  20  21
ATOM     21  C   UNL     1       2.573   8.853  17.841  0.00  0.00    +0.000 C 
BRANCH  21  22
ATOM     22  C   UNL     1       1.621  10.059  17.817  0.00  0.00    +0.000 C 
BRANCH  22  23
ATOM     23  N   UNL     1       0.562  10.027  18.847  0.00  0.00    +0.000 NA
ATOM     24  C   UNL     1       1.083  10.486  20.148  0.00  0.00    +0.000 C 
ATOM     25  C   UNL     1      -0.000  10.619  21.222  0.00  0.00    +0.000 C 
ATOM     26  C   UNL     1      -1.144  11.568  20.803  0.00  0.00    +0.000 C 
ATOM     27  C   UNL     1      -1.665  10.988  19.467  0.00  0.00    +0.000 C 
ATOM     28  C   UNL     1      -0.568  10.863  18.408  0.00  0.00    +0.000 C 
BRANCH  26  29
ATOM     29  N   UNL     1      -0.724  12.994  20.726  0.00  0.00    +0.000 NA
ATOM     30  C   UNL     1      -0.018  13.475  21.930  0.00  0.00    +0.000 C 
ATOM     31  C   UNL     1      -1.085  14.072  22.824  0.00  0.00    +0.000 C 
ATOM     32  C   UNL     1      -2.018  14.734  21.839  0.00  0.00    +0.000 C 
ATOM     33  C   UNL     1      -1.847  13.941  20.550  0.00  0.00    +0.000 C 
ENDBRANCH  26  29
ENDBRANCH  22  23
ENDBRANCH  21  22
ENDBRANCH  20  21
ENDBRANCH  19  20
ENDBRANCH   7  19
TORSDOF 7
ENDMDL
MODEL 9
REMARK VINA RESULT:      -7.9      1.100      1.400
REMARK  Name = 
REMARK  7 active torsions:
REMARK  status: ('A' for Active; 'I' for Inactive)
REMARK    1  A    between atoms: C_2  and  C_5
REMARK    2  A    between atoms: N_11  and  C_12
REMARK    3  A    between atoms: C_12  and  C_13
REMARK    4  A    between atoms: C_13  and  C_14
REMARK    5  A    between atoms: C_14  and  C_15
REMARK    6  A    between atoms: C_15  and  N_16
REMARK    7  A    between atoms: C_19  and  N_20
REMARK                            x       y       z     vdW  Elec       q    Type
REMARK                         _______ _______ _______ _____ _____    ______ ____
ROOT
ATOM      1  C   UNL     1       6.781   6.582  17.500  0.00  0.00    +0.000 A 
ATOM      2  C   UNL     1       7.234   5.349  17.020  0.00  0.00    +0.000 A 
ATOM      3  C   UNL     1       6.376   4.248  16.985  0.00  0.00    +0.000 A 
ATOM      4  C   UNL     1       5.055   4.359  17.437  0.00  0.00    +0.000 A 
ATOM      5  C   UNL     1       4.562   5.598  17.889  0.00  0.00    +0.000 A 
ATOM      6  C   UNL     1       5.444   6.693  17.919  0.00  0.00    +0.000 A 
ATOM      7  N   UNL     1       3.244   5.742  18.384  0.00  0.00    +0.000 N 
ATOM      8  C   UNL     1       2.510   4.671  18.943  0.00  0.00    +0.000 A 
ATOM      9  C   UNL     1       1.546   4.927  19.935  0.00  0.00    +0.000 A 
ATOM     10  C   UNL     1       0.901   3.885  20.605  0.00  0.00    +0.000 A 
ATOM     11  C   UNL     1       1.198   2.565  20.285  0.00  0.00    +0.000 A 
ATOM     12  C   UNL     1       2.141   2.286  19.296  0.00  0.00    +0.000 A 
ATOM     13  C   UNL     1       2.809   3.329  18.636  0.00  0.00    +0.000 A 
ATOM     14  S   UNL     1       4.028   2.898  17.402  0.00  0.00    +0.000 S 
ENDROOT
BRANCH   1  16
ATOM     15  F   UNL     1       7.036   8.963  17.697  0.00  0.00    +0.000 F 
ATOM     16  C   UNL     1       7.696   7.774  17.611  0.00  0.00    +0.000 C 
ATOM     17  F   UNL     1       8.532   7.891  16.541  0.00  0.00    +0.000 F 
ATOM     18  F   UNL     1       8.502   7.721  18.707  0.00  0.00    +0.000 F 
ENDBRANCH   1  16
BRANCH   7  19
ATOM     19  C   UNL     1       2.444   6.810  17.740  0.00  0.00    +0.000 C 
BRANCH  19  20
ATOM     20  C   UNL     1       2.348   8.077  18.605  0.00  0.00    +0.000 C 
BRANCH  20  21
ATOM     21  C   UNL     1       1.496   9.168  17.948  0.00  0.00    +0.000 C 
BRANCH  21  22
ATOM     22  C   UNL     1       1.811  10.599  18.414  0.00  0.00    +0.000 C 
BRANCH  22  23
ATOM     23  N   UNL     1       0.626  11.462  18.598  0.00  0.00    +0.000 NA
ATOM     24  C   UNL     1      -0.295  10.880  19.591  0.00  0.00    +0.000 C 
ATOM     25  C   UNL     1      -1.471  11.799  19.937  0.00  0.00    +0.000 C 
ATOM     26  C   UNL     1      -1.017  13.180  20.457  0.00  0.00    +0.000 C 
ATOM     27  C   UNL     1      -0.104  13.738  19.340  0.00  0.00    +0.000 C 
ATOM     28  C   UNL     1       1.063  12.807  19.008  0.00  0.00    +0.000 C 
BRANCH  26  29
ATOM     29  N   UNL     1      -0.373  13.120  21.797  0.00  0.00    +0.000 NA
ATOM     30  C   UNL     1      -1.048  12.213  22.745  0.00  0.00    +0.000 C 
ATOM     31  C   UNL     1      -2.036  13.072  23.508  0.00  0.00    +0.000 C 
ATOM     32  C   UNL     1      -1.290  14.374  23.676  0.00  0.00    +0.000 C 
ATOM     33  C   UNL     1      -0.325  14.422  22.498  0.00  0.00    +0.000 C 
ENDBRANCH  26  29
ENDBRANCH  22  23
ENDBRANCH  21  22
ENDBRANCH  20  21
ENDBRANCH  19  20
ENDBRANCH   7  19
TORSDOF 7
ENDMDL
