MODEL 1
REMARK VINA RESULT:      -8.4      0.000      0.000
REMARK  Name = 
REMARK  7 active torsions:
REMARK  status: ('A' for Active; 'I' for Inactive)
REMARK    1  A    between atoms: C_2  and  C_3
REMARK    2  A    between atoms: C_3  and  C_4
REMARK    3  A    between atoms: C_4  and  N_5
REMARK    4  A    between atoms: C_6  and  C_8
REMARK    5  A    between atoms: C_11  and  C_12
REMARK    6  A    between atoms: C_15  and  O_16
REMARK    7  A    between atoms: C_17  and  O_18
REMARK                            x       y       z     vdW  Elec       q    Type
REMARK                         _______ _______ _______ _____ _____    ______ ____
ROOT
ATOM      1  C   UNL     1       6.536   4.534  16.000  0.00  0.00    +0.000 A 
ATOM      2  C   UNL     1       7.266   4.866  17.124  0.00  0.00    +0.000 A 
ATOM      3  C   UNL     1       6.417   4.665  18.236  0.00  0.00    +0.000 A 
ATOM      4  C   UNL     1       5.203   4.229  17.742  0.00  0.00    +0.000 A 
ATOM      5  O   UNL     1       5.275   4.140  16.374  0.00  0.00    +0.000 OA
ENDROOT
BRANCH   4   6
ATOM      6  C   UNL     1       3.919   3.896  18.360  0.00  0.00    +0.000 A 
ATOM      7  C   UNL     1       2.700   4.127  17.695  0.00  0.00    +0.000 A 
ATOM      8  C   UNL     1       1.471   3.857  18.313  0.00  0.00    +0.000 A 
ATOM      9  C   UNL     1       1.461   3.353  19.605  0.00  0.00    +0.000 A 
ATOM     10  C   UNL     1       2.657   3.100  20.265  0.00  0.00    +0.000 A 
ATOM     11  C   UNL     1       3.879   3.361  19.657  0.00  0.00    +0.000 A 
BRANCH   9  12
ATOM     12  O   UNL     1       0.297   3.095  20.275  0.00  0.00    +0.000 OA
ATOM     13  H   UNL     1       0.444   2.328  20.855  0.00  0.00    +0.000 HD
ENDBRANCH   9  12
BRANCH  10  14
ATOM     14  O   UNL     1       2.642   2.604  21.538  0.00  0.00    +0.000 OA
ATOM     15  H   UNL     1       2.821   3.379  22.107  0.00  0.00    +0.000 HD
ENDBRANCH  10  14
ENDBRANCH   4   6
BRANCH   1  17
ATOM     16  N   UNL     1       6.289   3.601  13.824  0.00  0.00    +0.000 N 
ATOM     17  C   UNL     1       6.907   4.559  14.599  0.00  0.00    +0.000 C 
ATOM     18  O   UNL     1       7.706   5.365  14.127  0.00  0.00    +0.000 OA
ATOM     19  H   UNL     1       5.614   2.997  14.280  0.00  0.00    +0.000 HD
BRANCH  16  20
ATOM     20  C   UNL     1       6.536   3.507  12.400  0.00  0.00    +0.000 C 
BRANCH  20  21
ATOM     21  C   UNL     1       5.472   2.680  11.679  0.00  0.00    +0.000 C 
BRANCH  21  23
ATOM     22  C   UNL     1       3.283   3.119  10.527  0.00  0.00    +0.000 C 
ATOM     23  C   UNL     1       4.222   3.472  11.414  0.00  0.00    +0.000 C 
ENDBRANCH  21  23
ENDBRANCH  20  21
ENDBRANCH  16  20
ENDBRANCH   1  17
TORSDOF 7
ENDMDL
MODEL 2
REMARK VINA RESULT:      -8.4      0.869      1.150
REMARK  Name = 
REMARK  7 active torsions:
REMARK  status: ('A' for Active; 'I' for Inactive)
REMARK    1  A    between atoms: C_2  and  C_3
REMARK    2  A    between atoms: C_3  and  C_4
REMARK    3  A    between atoms: C_4  and  N_5
REMARK    4  A    between atoms: C_6  and  C_8
REMARK    5  A    between atoms: C_11  and  C_12
REMARK    6  A    between atoms: C_15  and  O_16
REMARK    7  A    between atoms: C_17  and  O_18
REMARK                            x       y       z     vdW  Elec       q    Type
REMARK                         _______ _______ _______ _____ _____    ______ ____
ROOT
ATOM      1  C   UNL     1       6.581   4.601  16.044  0.00  0.00    +0.000 A 
ATOM      2  C   UNL     1       7.352   4.859  17.160  0.00  0.00    +0.000 A 
ATOM      3  C   UNL     1       6.508   4.705  18.284  0.00  0.00    +0.000 A 
ATOM      4  C   UNL     1       5.258   4.368  17.804  0.00  0.00    +0.000 A 
ATOM      5  O   UNL     1       5.301   4.296  16.434  0.00  0.00    +0.000 OA
ENDROOT
BRANCH   4   6
ATOM      6  C   UNL     1       3.963   4.123  18.439  0.00  0.00    +0.000 A 
ATOM      7  C   UNL     1       3.424   5.018  19.383  0.00  0.00    +0.000 A 
ATOM      8  C   UNL     1       2.209   4.750  20.030  0.00  0.00    +0.000 A 
ATOM      9  C   UNL     1       1.527   3.580  19.730  0.00  0.00    +0.000 A 
ATOM     10  C   UNL     1       2.036   2.699  18.784  0.00  0.00    +0.000 A 
ATOM     11  C   UNL     1       3.238   2.960  18.136  0.00  0.00    +0.000 A 
BRANCH   9  12
ATOM     12  O   UNL     1       0.352   3.246  20.344  0.00  0.00    +0.000 OA
ATOM     13  H   UNL     1      -0.341   3.188  19.664  0.00  0.00    +0.000 HD
ENDBRANCH   9  12
BRANCH  10  14
ATOM     14  O   UNL     1       1.361   1.547  18.493  0.00  0.00    +0.000 OA
ATOM     15  H   UNL     1       1.161   1.151  19.364  0.00  0.00    +0.000 HD
ENDBRANCH  10  14
ENDBRANCH   4   6
BRANCH   1  17
ATOM     16  N   UNL     1       6.288   3.670  13.873  0.00  0.00    +0.000 N 
ATOM     17  C   UNL     1       6.930   4.621  14.638  0.00  0.00    +0.000 C 
ATOM     18  O   UNL     1       7.732   5.416  14.153  0.00  0.00    +0.000 OA
ATOM     19  H   UNL     1       5.613   3.076  14.340  0.00  0.00    +0.000 HD
BRANCH  16  20
ATOM     20  C   UNL     1       6.511   3.572  12.445  0.00  0.00    +0.000 C 
BRANCH  20  21
ATOM     21  C   UNL     1       5.481   2.678  11.756  0.00  0.00    +0.000 C 
BRANCH  21  23
ATOM     22  C   UNL     1       3.372   3.197  10.492  0.00  0.00    +0.000 C 
ATOM     23  C   UNL     1       4.166   3.379  11.555  0.00  0.00    +0.000 C 
ENDBRANCH  21  23
ENDBRANCH  20  21
ENDBRANCH  16  20
ENDBRANCH   1  17
TORSDOF 7
ENDMDL
MODEL 3
REMARK VINA RESULT:      -8.1      1.383      1.660
REMARK  Name = 
REMARK  7 active torsions:
REMARK  status: ('A' for Active; 'I' for Inactive)
REMARK    1  A    between atoms: C_2  and  C_3
REMARK    2  A    between atoms: C_3  and  C_4
REMARK    3  A    between atoms: C_4  and  N_5
REMARK    4  A    between atoms: C_6  and  C_8
REMARK    5  A    between atoms: C_11  and  C_12
REMARK    6  A    between atoms: C_15  and  O_16
REMARK    7  A    between atoms: C_17  and  O_18
REMARK                            x       y       z     vdW  Elec       q    Type
REMARK                         _______ _______ _______ _____ _____    ______ ____
ROOT
ATOM      1  C   UNL     1       5.548   5.548  15.713  0.00  0.00    +0.000 A 
ATOM      2  C   UNL     1       5.416   6.852  16.149  0.00  0.00    +0.000 A 
ATOM      3  C   UNL     1       4.477   6.835  17.205  0.00  0.00    +0.000 A 
ATOM      4  C   UNL     1       4.070   5.525  17.362  0.00  0.00    +0.000 A 
ATOM      5  O   UNL     1       4.730   4.734  16.456  0.00  0.00    +0.000 OA
ENDROOT
BRANCH   4   6
ATOM      6  C   UNL     1       3.101   4.864  18.236  0.00  0.00    +0.000 A 
ATOM      7  C   UNL     1       2.581   5.504  19.377  0.00  0.00    +0.000 A 
ATOM      8  C   UNL     1       1.695   4.847  20.241  0.00  0.00    +0.000 A 
ATOM      9  C   UNL     1       1.325   3.539  19.963  0.00  0.00    +0.000 A 
ATOM     10  C   UNL     1       1.813   2.902  18.829  0.00  0.00    +0.000 A 
ATOM     11  C   UNL     1       2.689   3.550  17.965  0.00  0.00    +0.000 A 
BRANCH   9  12
ATOM     12  O   UNL     1       0.487   2.832  20.779  0.00  0.00    +0.000 OA
ATOM     13  H   UNL     1       0.072   2.127  20.252  0.00  0.00    +0.000 HD
ENDBRANCH   9  12
BRANCH  10  14
ATOM     14  O   UNL     1       1.447   1.614  18.559  0.00  0.00    +0.000 OA
ATOM     15  H   UNL     1       0.544   1.532  18.927  0.00  0.00    +0.000 HD
ENDBRANCH  10  14
ENDBRANCH   4   6
BRANCH   1  17
ATOM     16  N   UNL     1       5.716   4.096  13.835  0.00  0.00    +0.000 N 
ATOM     17  C   UNL     1       6.368   4.992  14.655  0.00  0.00    +0.000 C 
ATOM     18  O   UNL     1       7.549   5.287  14.491  0.00  0.00    +0.000 OA
ATOM     19  H   UNL     1       4.731   3.933  14.013  0.00  0.00    +0.000 HD
BRANCH  16  20
ATOM     20  C   UNL     1       6.389   3.467  12.717  0.00  0.00    +0.000 C 
BRANCH  20  21
ATOM     21  C   UNL     1       5.424   2.698  11.815  0.00  0.00    +0.000 C 
BRANCH  21  23
ATOM     22  C   UNL     1       3.327   3.172  10.514  0.00  0.00    +0.000 C 
ATOM     23  C   UNL     1       4.207   3.510  11.466  0.00  0.00    +0.000 C 
ENDBRANCH  21  23
ENDBRANCH  20  21
ENDBRANCH  16  20
ENDBRANCH   1  17
TORSDOF 7
ENDMDL
MODEL 4
REMARK VINA RESULT:      -7.9      1.249      1.346
REMARK  Name = 
REMARK  7 active torsions:
REMARK  status: ('A' for Active; 'I' for Inactive)
REMARK    1  A    between atoms: C_2  and  C_3
REMARK    2  A    between atoms: C_3  and  C_4
REMARK    3  A    between atoms: C_4  and  N_5
REMARK    4  A    between atoms: C_6  and  C_8
REMARK    5  A    between atoms: C_11  and  C_12
REMARK    6  A    between atoms: C_15  and  O_16
REMARK    7  A    between atoms: C_17  and  O_18
REMARK                            x       y       z     vdW  Elec       q    Type
REMARK                         _______ _______ _______ _____ _____    ______ ____
ROOT
ATOM      1  C   UNL     1       5.569   5.510  15.546  0.00  0.00    +0.000 A 
ATOM      2  C   UNL     1       5.369   6.814  15.955  0.00  0.00    +0.000 A 
ATOM      3  C   UNL     1       4.447   6.768  17.026  0.00  0.00    +0.000 A 
ATOM      4  C   UNL     1       4.118   5.440  17.217  0.00  0.00    +0.000 A 
ATOM      5  O   UNL     1       4.809   4.667  16.318  0.00  0.00    +0.000 OA
ENDROOT
BRANCH   4   6
ATOM      6  C   UNL     1       3.200   4.745  18.119  0.00  0.00    +0.000 A 
ATOM      7  C   UNL     1       2.217   3.862  17.633  0.00  0.00    +0.000 A 
ATOM      8  C   UNL     1       1.304   3.241  18.497  0.00  0.00    +0.000 A 
ATOM      9  C   UNL     1       1.375   3.503  19.857  0.00  0.00    +0.000 A 
ATOM     10  C   UNL     1       2.354   4.355  20.353  0.00  0.00    +0.000 A 
ATOM     11  C   UNL     1       3.265   4.971  19.503  0.00  0.00    +0.000 A 
BRANCH   9  12
ATOM     12  O   UNL     1       0.499   2.952  20.750  0.00  0.00    +0.000 OA
ATOM     13  H   UNL     1       0.717   3.287  21.637  0.00  0.00    +0.000 HD
ENDBRANCH   9  12
BRANCH  10  14
ATOM     14  O   UNL     1       2.420   4.611  21.694  0.00  0.00    +0.000 OA
ATOM     15  H   UNL     1       1.931   3.873  22.110  0.00  0.00    +0.000 HD
ENDBRANCH  10  14
ENDBRANCH   4   6
BRANCH   1  17
ATOM     16  N   UNL     1       5.807   3.999  13.722  0.00  0.00    +0.000 N 
ATOM     17  C   UNL     1       6.405   4.977  14.488  0.00  0.00    +0.000 C 
ATOM     18  O   UNL     1       7.554   5.359  14.279  0.00  0.00    +0.000 OA
ATOM     19  H   UNL     1       4.844   3.766  13.934  0.00  0.00    +0.000 HD
BRANCH  16  20
ATOM     20  C   UNL     1       6.501   3.380  12.612  0.00  0.00    +0.000 C 
BRANCH  20  21
ATOM     21  C   UNL     1       5.542   2.710  11.628  0.00  0.00    +0.000 C 
BRANCH  21  23
ATOM     22  C   UNL     1       3.314   3.216  10.584  0.00  0.00    +0.000 C 
ATOM     23  C   UNL     1       4.225   3.430  11.542  0.00  0.00    +0.000 C 
ENDBRANCH  21  23
ENDBRANCH  20  21
ENDBRANCH  16  20
ENDBRANCH   1  17
TORSDOF 7
ENDMDL
MODEL 5
REMARK VINA RESULT:      -7.9      1.101      1.548
REMARK  Name = 
REMARK  7 active torsions:
REMARK  status: ('A' for Active; 'I' for Inactive)
REMARK    1  A    between atoms: C_2  and  C_3
REMARK    2  A    between atoms: C_3  and  C_4
REMARK    3  A    between atoms: C_4  and  N_5
REMARK    4  A    between atoms: C_6  and  C_8
REMARK    5  A    between atoms: C_11  and  C_12
REMARK    6  A    between atoms: C_15  and  O_16
REMARK    7  A    between atoms: C_17  and  O_18
REMARK                            x       y       z     vdW  Elec       q    Type
REMARK                         _______ _______ _______ _____ _____    ______ ____
ROOT
ATOM      1  C   UNL     1       6.620   4.792  16.384  0.00  0.00    +0.000 A 
ATOM      2  C   UNL     1       7.343   5.206  17.486  0.00  0.00    +0.000 A 
ATOM      3  C   UNL     1       6.507   5.030  18.612  0.00  0.00    +0.000 A 
ATOM      4  C   UNL     1       5.307   4.526  18.147  0.00  0.00    +0.000 A 
ATOM      5  O   UNL     1       5.377   4.372  16.785  0.00  0.00    +0.000 OA
ENDROOT
BRANCH   4   6
ATOM      6  C   UNL     1       4.040   4.178  18.789  0.00  0.00    +0.000 A 
ATOM      7  C   UNL     1       3.491   4.972  19.814  0.00  0.00    +0.000 A 
ATOM      8  C   UNL     1       2.304   4.605  20.464  0.00  0.00    +0.000 A 
ATOM      9  C   UNL     1       1.660   3.436  20.085  0.00  0.00    +0.000 A 
ATOM     10  C   UNL     1       2.179   2.654  19.060  0.00  0.00    +0.000 A 
ATOM     11  C   UNL     1       3.353   3.014  18.409  0.00  0.00    +0.000 A 
BRANCH   9  12
ATOM     12  O   UNL     1       0.515   3.006  20.696  0.00  0.00    +0.000 OA
ATOM     13  H   UNL     1       0.141   3.750  21.199  0.00  0.00    +0.000 HD
ENDBRANCH   9  12
BRANCH  10  14
ATOM     14  O   UNL     1       1.542   1.503  18.691  0.00  0.00    +0.000 OA
ATOM     15  H   UNL     1       1.731   0.873  19.416  0.00  0.00    +0.000 HD
ENDBRANCH  10  14
ENDBRANCH   4   6
BRANCH   1  17
ATOM     16  N   UNL     1       6.363   3.772  14.249  0.00  0.00    +0.000 N 
ATOM     17  C   UNL     1       6.984   4.761  14.982  0.00  0.00    +0.000 C 
ATOM     18  O   UNL     1       7.780   5.548  14.474  0.00  0.00    +0.000 OA
ATOM     19  H   UNL     1       5.691   3.187  14.733  0.00  0.00    +0.000 HD
BRANCH  16  20
ATOM     20  C   UNL     1       6.603   3.621  12.828  0.00  0.00    +0.000 C 
BRANCH  20  21
ATOM     21  C   UNL     1       5.334   3.250  12.061  0.00  0.00    +0.000 C 
BRANCH  21  23
ATOM     22  C   UNL     1       6.644   1.362  11.045  0.00  0.00    +0.000 C 
ATOM     23  C   UNL     1       5.471   1.937  11.341  0.00  0.00    +0.000 C 
ENDBRANCH  21  23
ENDBRANCH  20  21
ENDBRANCH  16  20
ENDBRANCH   1  17
TORSDOF 7
ENDMDL
MODEL 6
REMARK VINA RESULT:      -7.8      1.508      2.169
REMARK  Name = 
REMARK  7 active torsions:
REMARK  status: ('A' for Active; 'I' for Inactive)
REMARK    1  A    between atoms: C_2  and  C_3
REMARK    2  A    between atoms: C_3  and  C_4
REMARK    3  A    between atoms: C_4  and  N_5
REMARK    4  A    between atoms: C_6  and  C_8
REMARK    5  A    between atoms: C_11  and  C_12
REMARK    6  A    between atoms: C_15  and  O_16
REMARK    7  A    between atoms: C_17  and  O_18
REMARK                            x       y       z     vdW  Elec       q    Type
REMARK                         _______ _______ _______ _____ _____    ______ ____
ROOT
ATOM      1  C   UNL     1       5.342   5.623  15.937  0.00  0.00    +0.000 A 
ATOM      2  C   UNL     1       5.055   6.937  16.249  0.00  0.00    +0.000 A 
ATOM      3  C   UNL     1       4.130   6.910  17.317  0.00  0.00    +0.000 A 
ATOM      4  C   UNL     1       3.886   5.581  17.604  0.00  0.00    +0.000 A 
ATOM      5  O   UNL     1       4.632   4.791  16.766  0.00  0.00    +0.000 OA
ENDROOT
BRANCH   4   6
ATOM      6  C   UNL     1       3.008   4.895  18.553  0.00  0.00    +0.000 A 
ATOM      7  C   UNL     1       3.106   5.118  19.939  0.00  0.00    +0.000 A 
ATOM      8  C   UNL     1       2.299   4.417  20.848  0.00  0.00    +0.000 A 
ATOM      9  C   UNL     1       1.388   3.489  20.367  0.00  0.00    +0.000 A 
ATOM     10  C   UNL     1       1.265   3.276  18.999  0.00  0.00    +0.000 A 
ATOM     11  C   UNL     1       2.058   3.970  18.093  0.00  0.00    +0.000 A 
BRANCH   9  12
ATOM     12  O   UNL     1       0.592   2.753  21.199  0.00  0.00    +0.000 OA
ATOM     13  H   UNL     1      -0.215   2.510  20.713  0.00  0.00    +0.000 HD
ENDBRANCH   9  12
BRANCH  10  14
ATOM     14  O   UNL     1       0.366   2.360  18.529  0.00  0.00    +0.000 OA
ATOM     15  H   UNL     1       0.211   2.622  17.600  0.00  0.00    +0.000 HD
ENDBRANCH  10  14
ENDBRANCH   4   6
BRANCH   1  17
ATOM     16  N   UNL     1       5.592   4.246  14.011  0.00  0.00    +0.000 N 
ATOM     17  C   UNL     1       6.218   5.069  14.923  0.00  0.00    +0.000 C 
ATOM     18  O   UNL     1       7.422   5.308  14.869  0.00  0.00    +0.000 OA
ATOM     19  H   UNL     1       4.589   4.128  14.102  0.00  0.00    +0.000 HD
BRANCH  16  20
ATOM     20  C   UNL     1       6.324   3.630  12.923  0.00  0.00    +0.000 C 
BRANCH  20  21
ATOM     21  C   UNL     1       5.401   3.131  11.812  0.00  0.00    +0.000 C 
BRANCH  21  23
ATOM     22  C   UNL     1       6.890   1.313  10.923  0.00  0.00    +0.000 C 
ATOM     23  C   UNL     1       5.710   1.714  11.413  0.00  0.00    +0.000 C 
ENDBRANCH  21  23
ENDBRANCH  20  21
ENDBRANCH  16  20
ENDBRANCH   1  17
TORSDOF 7
ENDMDL
MODEL 7
REMARK VINA RESULT:      -7.8      0.682      1.082
REMARK  Name = 
REMARK  7 active torsions:
REMARK  status: ('A' for Active; 'I' for Inactive)
REMARK    1  A    between atoms: C_2  and  C_3
REMARK    2  A    between atoms: C_3  and  C_4
REMARK    3  A    between atoms: C_4  and  N_5
REMARK    4  A    between atoms: C_6  and  C_8
REMARK    5  A    between atoms: C_11  and  C_12
REMARK    6  A    between atoms: C_15  and  O_16
REMARK    7  A    between atoms: C_17  and  O_18
REMARK                            x       y       z     vdW  Elec       q    Type
REMARK                         _______ _______ _______ _____ _____    ______ ____
ROOT
ATOM      1  C   UNL     1       6.608   4.791  16.163  0.00  0.00    +0.000 A 
ATOM      2  C   UNL     1       7.291   5.191  17.295  0.00  0.00    +0.000 A 
ATOM      3  C   UNL     1       6.425   4.973  18.391  0.00  0.00    +0.000 A 
ATOM      4  C   UNL     1       5.249   4.460  17.879  0.00  0.00    +0.000 A 
ATOM      5  O   UNL     1       5.361   4.340  16.517  0.00  0.00    +0.000 OA
ENDROOT
BRANCH   4   6
ATOM      6  C   UNL     1       3.969   4.075  18.475  0.00  0.00    +0.000 A 
ATOM      7  C   UNL     1       2.751   4.286  17.802  0.00  0.00    +0.000 A 
ATOM      8  C   UNL     1       1.524   3.966  18.399  0.00  0.00    +0.000 A 
ATOM      9  C   UNL     1       1.514   3.430  19.679  0.00  0.00    +0.000 A 
ATOM     10  C   UNL     1       2.710   3.197  20.346  0.00  0.00    +0.000 A 
ATOM     11  C   UNL     1       3.931   3.507  19.758  0.00  0.00    +0.000 A 
BRANCH   9  12
ATOM     12  O   UNL     1       0.352   3.122  20.329  0.00  0.00    +0.000 OA
ATOM     13  H   UNL     1       0.549   3.028  21.277  0.00  0.00    +0.000 HD
ENDBRANCH   9  12
BRANCH  10  14
ATOM     14  O   UNL     1       2.696   2.670  21.607  0.00  0.00    +0.000 OA
ATOM     15  H   UNL     1       3.464   3.080  22.054  0.00  0.00    +0.000 HD
ENDBRANCH  10  14
ENDBRANCH   4   6
BRANCH   1  17
ATOM     16  N   UNL     1       6.305   3.937  13.961  0.00  0.00    +0.000 N 
ATOM     17  C   UNL     1       7.014   4.799  14.771  0.00  0.00    +0.000 C 
ATOM     18  O   UNL     1       7.914   5.513  14.336  0.00  0.00    +0.000 OA
ATOM     19  H   UNL     1       5.553   3.410  14.389  0.00  0.00    +0.000 HD
BRANCH  16  20
ATOM     20  C   UNL     1       6.574   3.843  12.541  0.00  0.00    +0.000 C 
BRANCH  20  21
ATOM     21  C   UNL     1       5.432   3.172  11.778  0.00  0.00    +0.000 C 
BRANCH  21  23
ATOM     22  C   UNL     1       6.938   1.339  10.948  0.00  0.00    +0.000 C 
ATOM     23  C   UNL     1       5.751   1.748  11.418  0.00  0.00    +0.000 C 
ENDBRANCH  21  23
ENDBRANCH  20  21
ENDBRANCH  16  20
ENDBRANCH   1  17
TORSDOF 7
ENDMDL
MODEL 8
REMARK VINA RESULT:      -7.7      1.142      1.790
REMARK  Name = 
REMARK  7 active torsions:
REMARK  status: ('A' for Active; 'I' for Inactive)
REMARK    1  A    between atoms: C_2  and  C_3
REMARK    2  A    between atoms: C_3  and  C_4
REMARK    3  A    between atoms: C_4  and  N_5
REMARK    4  A    between atoms: C_6  and  C_8
REMARK    5  A    between atoms: C_11  and  C_12
REMARK    6  A    between atoms: C_15  and  O_16
REMARK    7  A    between atoms: C_17  and  O_18
REMARK                            x       y       z     vdW  Elec       q    Type
REMARK                         _______ _______ _______ _____ _____    ______ ____
ROOT
ATOM      1  C   UNL     1       5.520   5.372  15.776  0.00  0.00    +0.000 A 
ATOM      2  C   UNL     1       4.995   6.624  16.032  0.00  0.00    +0.000 A 
ATOM      3  C   UNL     1       4.233   6.511  17.218  0.00  0.00    +0.000 A 
ATOM      4  C   UNL     1       4.317   5.195  17.628  0.00  0.00    +0.000 A 
ATOM      5  O   UNL     1       5.111   4.497  16.752  0.00  0.00    +0.000 OA
ENDROOT
BRANCH   4   6
ATOM      6  C   UNL     1       3.728   4.440  18.733  0.00  0.00    +0.000 A 
ATOM      7  C   UNL     1       4.433   3.404  19.375  0.00  0.00    +0.000 A 
ATOM      8  C   UNL     1       3.844   2.647  20.398  0.00  0.00    +0.000 A 
ATOM      9  C   UNL     1       2.541   2.928  20.782  0.00  0.00    +0.000 A 
ATOM     10  C   UNL     1       1.842   3.963  20.173  0.00  0.00    +0.000 A 
ATOM     11  C   UNL     1       2.421   4.720  19.162  0.00  0.00    +0.000 A 
BRANCH   9  12
ATOM     12  O   UNL     1       1.899   2.211  21.753  0.00  0.00    +0.000 OA
ATOM     13  H   UNL     1       2.357   1.359  21.855  0.00  0.00    +0.000 HD
ENDBRANCH   9  12
BRANCH  10  14
ATOM     14  O   UNL     1       0.559   4.236  20.554  0.00  0.00    +0.000 OA
ATOM     15  H   UNL     1       0.389   3.628  21.301  0.00  0.00    +0.000 HD
ENDBRANCH  10  14
ENDBRANCH   4   6
BRANCH   1  17
ATOM     16  N   UNL     1       5.733   4.106  13.771  0.00  0.00    +0.000 N 
ATOM     17  C   UNL     1       6.366   4.913  14.693  0.00  0.00    +0.000 C 
ATOM     18  O   UNL     1       7.553   5.214  14.591  0.00  0.00    +0.000 OA
ATOM     19  H   UNL     1       4.743   3.935  13.905  0.00  0.00    +0.000 HD
BRANCH  16  20
ATOM     20  C   UNL     1       6.435   3.583  12.618  0.00  0.00    +0.000 C 
BRANCH  20  21
ATOM     21  C   UNL     1       5.526   2.755  11.711  0.00  0.00    +0.000 C 
BRANCH  21  23
ATOM     22  C   UNL     1       3.434   3.366  10.460  0.00  0.00    +0.000 C 
ATOM     23  C   UNL     1       4.150   3.351  11.591  0.00  0.00    +0.000 C 
ENDBRANCH  21  23
ENDBRANCH  20  21
ENDBRANCH  16  20
ENDBRANCH   1  17
TORSDOF 7
ENDMDL
MODEL 9
REMARK VINA RESULT:      -7.5      1.076      1.222
REMARK  Name = 
REMARK  7 active torsions:
REMARK  status: ('A' for Active; 'I' for Inactive)
REMARK    1  A    between atoms: C_2  and  C_3
REMARK    2  A    between atoms: C_3  and  C_4
REMARK    3  A    between atoms: C_4  and  N_5
REMARK    4  A    between atoms: C_6  and  C_8
REMARK    5  A    between atoms: C_11  and  C_12
REMARK    6  A    between atoms: C_15  and  O_16
REMARK    7  A    between atoms: C_17  and  O_18
REMARK                            x       y       z     vdW  Elec       q    Type
REMARK                         _______ _______ _______ _____ _____    ______ ____
ROOT
ATOM      1  C   UNL     1       6.752   4.899  16.297  0.00  0.00    +0.000 A 
ATOM      2  C   UNL     1       7.487   5.301  17.396  0.00  0.00    +0.000 A 
ATOM      3  C   UNL     1       6.653   5.138  18.525  0.00  0.00    +0.000 A 
ATOM      4  C   UNL     1       5.444   4.653  18.067  0.00  0.00    +0.000 A 
ATOM      5  O   UNL     1       5.504   4.499  16.704  0.00  0.00    +0.000 OA
ENDROOT
BRANCH   4   6
ATOM      6  C   UNL     1       4.174   4.326  18.715  0.00  0.00    +0.000 A 
ATOM      7  C   UNL     1       3.581   3.057  18.573  0.00  0.00    +0.000 A 
ATOM      8  C   UNL     1       2.337   2.766  19.151  0.00  0.00    +0.000 A 
ATOM      9  C   UNL     1       1.681   3.750  19.876  0.00  0.00    +0.000 A 
ATOM     10  C   UNL     1       2.265   5.000  20.042  0.00  0.00    +0.000 A 
ATOM     11  C   UNL     1       3.500   5.294  19.476  0.00  0.00    +0.000 A 
BRANCH   9  12
ATOM     12  O   UNL     1       0.455   3.540  20.441  0.00  0.00    +0.000 OA
ATOM     13  H   UNL     1       0.072   2.736  20.049  0.00  0.00    +0.000 HD
ENDBRANCH   9  12
BRANCH  10  14
ATOM     14  O   UNL     1       1.615   5.966  20.756  0.00  0.00    +0.000 OA
ATOM     15  H   UNL     1       1.273   5.501  21.546  0.00  0.00    +0.000 HD
ENDBRANCH  10  14
ENDBRANCH   4   6
BRANCH   1  17
ATOM     16  N   UNL     1       6.453   3.897  14.159  0.00  0.00    +0.000 N 
ATOM     17  C   UNL     1       7.109   4.863  14.893  0.00  0.00    +0.000 C 
ATOM     18  O   UNL     1       7.926   5.626  14.384  0.00  0.00    +0.000 OA
ATOM     19  H   UNL     1       5.766   3.331  14.643  0.00  0.00    +0.000 HD
BRANCH  16  20
ATOM     20  C   UNL     1       6.682   3.744  12.737  0.00  0.00    +0.000 C 
BRANCH  20  21
ATOM     21  C   UNL     1       5.658   2.819  12.080  0.00  0.00    +0.000 C 
BRANCH  21  23
ATOM     22  C   UNL     1       3.433   3.007  10.927  0.00  0.00    +0.000 C 
ATOM     23  C   UNL     1       4.511   3.582  11.476  0.00  0.00    +0.000 C 
ENDBRANCH  21  23
ENDBRANCH  20  21
ENDBRANCH  16  20
ENDBRANCH   1  17
TORSDOF 7
ENDMDL
