MODEL 1
REMARK VINA RESULT:      -7.6      0.000      0.000
REMARK  Name = 
REMARK  9 active torsions:
REMARK  status: ('A' for Active; 'I' for Inactive)
REMARK    1  A    between atoms: O_1  and  C_2
REMARK    2  A    between atoms: C_2  and  C_3
REMARK    3  A    between atoms: C_3  and  N_4
REMARK    4  A    between atoms: C_9  and  N_10
REMARK    5  A    between atoms: N_10  and  C_11
REMARK    6  A    between atoms: C_11  and  C_12
REMARK    7  A    between atoms: C_12  and  C_13
REMARK    8  A    between atoms: C_13  and  N_14
REMARK    9  A    between atoms: N_14  and  C_15
REMARK                            x       y       z     vdW  Elec       q    Type
REMARK                         _______ _______ _______ _____ _____    ______ ____
ROOT
ATOM      1  C   UNL     1       4.597   4.134  19.686  0.00  0.00    +0.000 C 
ENDROOT
BRANCH   1   2
ATOM      2  N   UNL     1       5.147   3.703  18.412  0.00  0.00    +0.000 N 
ATOM      3  H   UNL     1       5.664   2.825  18.433  0.00  0.00    +0.000 HD
BRANCH   2   9
ATOM      4  N   UNL     1       7.123   4.868  14.333  0.00  0.00    +0.000 N 
ATOM      5  C   UNL     1       6.893   5.128  15.676  0.00  0.00    +0.000 A 
ATOM      6  N   UNL     1       7.365   6.298  16.119  0.00  0.00    +0.000 NA
ATOM      7  C   UNL     1       7.104   6.606  17.397  0.00  0.00    +0.000 A 
ATOM      8  C   UNL     1       6.383   5.794  18.237  0.00  0.00    +0.000 A 
ATOM      9  C   UNL     1       5.943   4.603  17.706  0.00  0.00    +0.000 A 
ATOM     10  N   UNL     1       6.194   4.266  16.433  0.00  0.00    +0.000 NA
ATOM     11  H   UNL     1       7.284   5.777  13.903  0.00  0.00    +0.000 HD
BRANCH   4  12
ATOM     12  C   UNL     1       6.095   4.090  13.649  0.00  0.00    +0.000 C 
BRANCH  12  13
ATOM     13  C   UNL     1       6.557   3.580  12.278  0.00  0.00    +0.000 C 
BRANCH  13  14
ATOM     14  O   UNL     1       6.077   2.253  12.057  0.00  0.00    +0.000 OA
ATOM     15  H   UNL     1       6.856   1.671  12.068  0.00  0.00    +0.000 HD
ENDBRANCH  13  14
ENDBRANCH  12  13
ENDBRANCH   4  12
ENDBRANCH   2   9
ENDBRANCH   1   2
BRANCH   1  16
ATOM     16  C   UNL     1       3.179   3.587  19.870  0.00  0.00    +0.000 C 
BRANCH  16  17
ATOM     17  C   UNL     1       2.166   4.689  19.556  0.00  0.00    +0.000 C 
BRANCH  17  18
ATOM     18  N   UNL     1       2.457   5.906  20.316  0.00  0.00    +0.000 N 
ATOM     19  H   UNL     1       3.385   5.872  20.724  0.00  0.00    +0.000 HD
BRANCH  18  20
ATOM     20  C   UNL     1       2.221   7.149  19.672  0.00  0.00    +0.000 A 
ATOM     21  C   UNL     1       2.552   7.329  18.324  0.00  0.00    +0.000 A 
ATOM     22  C   UNL     1       2.270   8.532  17.707  0.00  0.00    +0.000 A 
ATOM     23  N   UNL     1       1.661   9.561  18.319  0.00  0.00    +0.000 NA
ATOM     24  C   UNL     1       1.279   9.396  19.590  0.00  0.00    +0.000 A 
ATOM     25  C   UNL     1       0.618  10.457  20.185  0.00  0.00    +0.000 A 
ATOM     26  C   UNL     1       0.169  10.385  21.498  0.00  0.00    +0.000 A 
ATOM     27 CL   UNL     1      -0.652  11.725  22.198  0.00  0.00    +0.000 Cl
ATOM     28  C   UNL     1       0.377   9.235  22.245  0.00  0.00    +0.000 A 
ATOM     29  C   UNL     1       1.042   8.153  21.663  0.00  0.00    +0.000 A 
ATOM     30  C   UNL     1       1.515   8.205  20.327  0.00  0.00    +0.000 A 
ENDBRANCH  18  20
ENDBRANCH  17  18
ENDBRANCH  16  17
ENDBRANCH   1  16
TORSDOF 9
ENDMDL
MODEL 2
REMARK VINA RESULT:      -7.2      1.157      1.352
REMARK  Name = 
REMARK  9 active torsions:
REMARK  status: ('A' for Active; 'I' for Inactive)
REMARK    1  A    between atoms: O_1  and  C_2
REMARK    2  A    between atoms: C_2  and  C_3
REMARK    3  A    between atoms: C_3  and  N_4
REMARK    4  A    between atoms: C_9  and  N_10
REMARK    5  A    between atoms: N_10  and  C_11
REMARK    6  A    between atoms: C_11  and  C_12
REMARK    7  A    between atoms: C_12  and  C_13
REMARK    8  A    between atoms: C_13  and  N_14
REMARK    9  A    between atoms: N_14  and  C_15
REMARK                            x       y       z     vdW  Elec       q    Type
REMARK                         _______ _______ _______ _____ _____    ______ ____
ROOT
ATOM      1  C   UNL     1       4.231   3.841  18.347  0.00  0.00    +0.000 C 
ENDROOT
BRANCH   1   2
ATOM      2  N   UNL     1       4.204   3.791  16.895  0.00  0.00    +0.000 N 
ATOM      3  H   UNL     1       3.989   2.880  16.493  0.00  0.00    +0.000 HD
BRANCH   2   9
ATOM      4  N   UNL     1       6.750   3.693  12.971  0.00  0.00    +0.000 N 
ATOM      5  C   UNL     1       6.533   4.178  14.252  0.00  0.00    +0.000 A 
ATOM      6  N   UNL     1       7.358   5.156  14.638  0.00  0.00    +0.000 NA
ATOM      7  C   UNL     1       7.133   5.690  15.847  0.00  0.00    +0.000 A 
ATOM      8  C   UNL     1       6.112   5.287  16.672  0.00  0.00    +0.000 A 
ATOM      9  C   UNL     1       5.316   4.267  16.204  0.00  0.00    +0.000 A 
ATOM     10  N   UNL     1       5.521   3.711  15.001  0.00  0.00    +0.000 NA
ATOM     11  H   UNL     1       7.255   4.429  12.482  0.00  0.00    +0.000 HD
BRANCH   4  12
ATOM     12  C   UNL     1       5.564   3.241  12.251  0.00  0.00    +0.000 C 
BRANCH  12  13
ATOM     13  C   UNL     1       5.799   1.925  11.496  0.00  0.00    +0.000 C 
BRANCH  13  14
ATOM     14  O   UNL     1       7.194   1.741  11.248  0.00  0.00    +0.000 OA
ATOM     15  H   UNL     1       7.317   0.798  11.042  0.00  0.00    +0.000 HD
ENDBRANCH  13  14
ENDBRANCH  12  13
ENDBRANCH   4  12
ENDBRANCH   2   9
ENDBRANCH   1   2
BRANCH   1  16
ATOM     16  C   UNL     1       3.025   4.618  18.881  0.00  0.00    +0.000 C 
BRANCH  16  17
ATOM     17  C   UNL     1       3.511   5.865  19.620  0.00  0.00    +0.000 C 
BRANCH  17  18
ATOM     18  N   UNL     1       2.402   6.545  20.293  0.00  0.00    +0.000 N 
ATOM     19  H   UNL     1       2.569   6.624  21.290  0.00  0.00    +0.000 HD
BRANCH  18  20
ATOM     20  C   UNL     1       1.964   7.779  19.743  0.00  0.00    +0.000 A 
ATOM     21  C   UNL     1       2.127   8.051  18.379  0.00  0.00    +0.000 A 
ATOM     22  C   UNL     1       1.651   9.238  17.859  0.00  0.00    +0.000 A 
ATOM     23  N   UNL     1       1.004  10.165  18.584  0.00  0.00    +0.000 NA
ATOM     24  C   UNL     1       0.780   9.905  19.877  0.00  0.00    +0.000 A 
ATOM     25  C   UNL     1       0.076  10.859  20.592  0.00  0.00    +0.000 A 
ATOM     26  C   UNL     1      -0.219  10.682  21.938  0.00  0.00    +0.000 A 
ATOM     27 CL   UNL     1      -1.101  11.890  22.788  0.00  0.00    +0.000 Cl
ATOM     28  C   UNL     1       0.192   9.534  22.598  0.00  0.00    +0.000 A 
ATOM     29  C   UNL     1       0.904   8.559  21.895  0.00  0.00    +0.000 A 
ATOM     30  C   UNL     1       1.222   8.719  20.521  0.00  0.00    +0.000 A 
ENDBRANCH  18  20
ENDBRANCH  17  18
ENDBRANCH  16  17
ENDBRANCH   1  16
TORSDOF 9
ENDMDL
MODEL 3
REMARK VINA RESULT:      -7.1      2.269      3.090
REMARK  Name = 
REMARK  9 active torsions:
REMARK  status: ('A' for Active; 'I' for Inactive)
REMARK    1  A    between atoms: O_1  and  C_2
REMARK    2  A    between atoms: C_2  and  C_3
REMARK    3  A    between atoms: C_3  and  N_4
REMARK    4  A    between atoms: C_9  and  N_10
REMARK    5  A    between atoms: N_10  and  C_11
REMARK    6  A    between atoms: C_11  and  C_12
REMARK    7  A    between atoms: C_12  and  C_13
REMARK    8  A    between atoms: C_13  and  N_14
REMARK    9  A    between atoms: N_14  and  C_15
REMARK                            x       y       z     vdW  Elec       q    Type
REMARK                         _______ _______ _______ _____ _____    ______ ____
ROOT
ATOM      1  C   UNL     1       2.883   4.019  17.774  0.00  0.00    +0.000 C 
ENDROOT
BRANCH   1   2
ATOM      2  N   UNL     1       4.301   3.878  18.063  0.00  0.00    +0.000 N 
ATOM      3  H   UNL     1       4.600   4.239  18.968  0.00  0.00    +0.000 HD
BRANCH   2   9
ATOM      4  N   UNL     1       7.739   6.907  17.121  0.00  0.00    +0.000 N 
ATOM      5  C   UNL     1       6.896   5.882  16.719  0.00  0.00    +0.000 A 
ATOM      6  N   UNL     1       7.140   5.388  15.501  0.00  0.00    +0.000 NA
ATOM      7  C   UNL     1       6.383   4.353  15.110  0.00  0.00    +0.000 A 
ATOM      8  C   UNL     1       5.405   3.794  15.895  0.00  0.00    +0.000 A 
ATOM      9  C   UNL     1       5.211   4.370  17.130  0.00  0.00    +0.000 A 
ATOM     10  N   UNL     1       5.949   5.409  17.545  0.00  0.00    +0.000 NA
ATOM     11  H   UNL     1       8.576   6.814  16.547  0.00  0.00    +0.000 HD
BRANCH   4  12
ATOM     12  C   UNL     1       8.033   6.970  18.549  0.00  0.00    +0.000 C 
BRANCH  12  13
ATOM     13  C   UNL     1       8.276   5.584  19.162  0.00  0.00    +0.000 C 
BRANCH  13  14
ATOM     14  O   UNL     1       7.960   5.598  20.555  0.00  0.00    +0.000 OA
ATOM     15  H   UNL     1       7.303   6.305  20.683  0.00  0.00    +0.000 HD
ENDBRANCH  13  14
ENDBRANCH  12  13
ENDBRANCH   4  12
ENDBRANCH   2   9
ENDBRANCH   1   2
BRANCH   1  16
ATOM     16  C   UNL     1       2.425   5.459  18.025  0.00  0.00    +0.000 C 
BRANCH  16  17
ATOM     17  C   UNL     1       2.104   5.637  19.509  0.00  0.00    +0.000 C 
BRANCH  17  18
ATOM     18  N   UNL     1       2.629   6.909  20.013  0.00  0.00    +0.000 N 
ATOM     19  H   UNL     1       3.629   6.982  19.858  0.00  0.00    +0.000 HD
BRANCH  18  20
ATOM     20  C   UNL     1       1.957   8.095  19.613  0.00  0.00    +0.000 A 
ATOM     21  C   UNL     1       1.991   8.521  18.280  0.00  0.00    +0.000 A 
ATOM     22  C   UNL     1       1.292   9.651  17.908  0.00  0.00    +0.000 A 
ATOM     23  N   UNL     1       0.538  10.376  18.751  0.00  0.00    +0.000 NA
ATOM     24  C   UNL     1       0.437   9.957  20.017  0.00  0.00    +0.000 A 
ATOM     25  C   UNL     1      -0.377  10.699  20.856  0.00  0.00    +0.000 A 
ATOM     26  C   UNL     1      -0.560  10.344  22.187  0.00  0.00    +0.000 A 
ATOM     27 CL   UNL     1      -1.584  11.291  23.194  0.00  0.00    +0.000 Cl
ATOM     28  C   UNL     1       0.078   9.227  22.705  0.00  0.00    +0.000 A 
ATOM     29  C   UNL     1       0.904   8.465  21.876  0.00  0.00    +0.000 A 
ATOM     30  C   UNL     1       1.111   8.810  20.515  0.00  0.00    +0.000 A 
ENDBRANCH  18  20
ENDBRANCH  17  18
ENDBRANCH  16  17
ENDBRANCH   1  16
TORSDOF 9
ENDMDL
MODEL 4
REMARK VINA RESULT:      -7.1      3.446      5.227
REMARK  Name = 
REMARK  9 active torsions:
REMARK  status: ('A' for Active; 'I' for Inactive)
REMARK    1  A    between atoms: O_1  and  C_2
REMARK    2  A    between atoms: C_2  and  C_3
REMARK    3  A    between atoms: C_3  and  N_4
REMARK    4  A    between atoms: C_9  and  N_10
REMARK    5  A    between atoms: N_10  and  C_11
REMARK    6  A    between atoms: C_11  and  C_12
REMARK    7  A    between atoms: C_12  and  C_13
REMARK    8  A    between atoms: C_13  and  N_14
REMARK    9  A    between atoms: N_14  and  C_15
REMARK                            x       y       z     vdW  Elec       q    Type
REMARK                         _______ _______ _______ _____ _____    ______ ____
ROOT
ATOM      1  C   UNL     1       2.139   7.074  18.738  0.00  0.00    +0.000 C 
ENDROOT
BRANCH   1   2
ATOM      2  N   UNL     1       2.248   5.802  18.043  0.00  0.00    +0.000 N 
ATOM      3  H   UNL     1       1.366   5.322  17.869  0.00  0.00    +0.000 HD
BRANCH   2   9
ATOM      4  N   UNL     1       6.632   4.200  18.366  0.00  0.00    +0.000 N 
ATOM      5  C   UNL     1       5.287   4.097  18.689  0.00  0.00    +0.000 A 
ATOM      6  N   UNL     1       4.986   3.148  19.581  0.00  0.00    +0.000 NA
ATOM      7  C   UNL     1       3.703   3.066  19.961  0.00  0.00    +0.000 A 
ATOM      8  C   UNL     1       2.721   3.902  19.490  0.00  0.00    +0.000 A 
ATOM      9  C   UNL     1       3.113   4.844  18.566  0.00  0.00    +0.000 A 
ATOM     10  N   UNL     1       4.388   4.945  18.164  0.00  0.00    +0.000 NA
ATOM     11  H   UNL     1       7.133   3.772  19.143  0.00  0.00    +0.000 HD
BRANCH   4  12
ATOM     12  C   UNL     1       7.112   5.542  18.051  0.00  0.00    +0.000 C 
BRANCH  12  13
ATOM     13  C   UNL     1       8.007   6.121  19.155  0.00  0.00    +0.000 C 
BRANCH  13  14
ATOM     14  O   UNL     1       7.890   5.341  20.346  0.00  0.00    +0.000 OA
ATOM     15  H   UNL     1       8.544   4.624  20.273  0.00  0.00    +0.000 HD
ENDBRANCH  13  14
ENDBRANCH  12  13
ENDBRANCH   4  12
ENDBRANCH   2   9
ENDBRANCH   1   2
BRANCH   1  16
ATOM     16  C   UNL     1       2.382   8.236  17.771  0.00  0.00    +0.000 C 
BRANCH  16  17
ATOM     17  C   UNL     1       1.874   9.534  18.400  0.00  0.00    +0.000 C 
BRANCH  17  18
ATOM     18  N   UNL     1       0.638   9.984  17.754  0.00  0.00    +0.000 N 
ATOM     19  H   UNL     1       0.110   9.201  17.384  0.00  0.00    +0.000 HD
BRANCH  18  20
ATOM     20  C   UNL     1      -0.195  10.869  18.488  0.00  0.00    +0.000 A 
ATOM     21  C   UNL     1       0.360  11.847  19.322  0.00  0.00    +0.000 A 
ATOM     22  C   UNL     1      -0.470  12.726  19.989  0.00  0.00    +0.000 A 
ATOM     23  N   UNL     1      -1.808  12.725  19.871  0.00  0.00    +0.000 NA
ATOM     24  C   UNL     1      -2.363  11.841  19.034  0.00  0.00    +0.000 A 
ATOM     25  C   UNL     1      -3.740  11.888  18.901  0.00  0.00    +0.000 A 
ATOM     26  C   UNL     1      -4.414  11.022  18.049  0.00  0.00    +0.000 A 
ATOM     27 CL   UNL     1      -6.126  11.116  17.909  0.00  0.00    +0.000 Cl
ATOM     28  C   UNL     1      -3.711  10.083  17.309  0.00  0.00    +0.000 A 
ATOM     29  C   UNL     1      -2.321  10.019  17.429  0.00  0.00    +0.000 A 
ATOM     30  C   UNL     1      -1.611  10.889  18.296  0.00  0.00    +0.000 A 
ENDBRANCH  18  20
ENDBRANCH  17  18
ENDBRANCH  16  17
ENDBRANCH   1  16
TORSDOF 9
ENDMDL
MODEL 5
REMARK VINA RESULT:      -7.0      3.208      4.789
REMARK  Name = 
REMARK  9 active torsions:
REMARK  status: ('A' for Active; 'I' for Inactive)
REMARK    1  A    between atoms: O_1  and  C_2
REMARK    2  A    between atoms: C_2  and  C_3
REMARK    3  A    between atoms: C_3  and  N_4
REMARK    4  A    between atoms: C_9  and  N_10
REMARK    5  A    between atoms: N_10  and  C_11
REMARK    6  A    between atoms: C_11  and  C_12
REMARK    7  A    between atoms: C_12  and  C_13
REMARK    8  A    between atoms: C_13  and  N_14
REMARK    9  A    between atoms: N_14  and  C_15
REMARK                            x       y       z     vdW  Elec       q    Type
REMARK                         _______ _______ _______ _____ _____    ______ ____
ROOT
ATOM      1  C   UNL     1       2.751   6.912  17.759  0.00  0.00    +0.000 C 
ENDROOT
BRANCH   1   2
ATOM      2  N   UNL     1       4.134   7.246  17.463  0.00  0.00    +0.000 N 
ATOM      3  H   UNL     1       4.319   7.530  16.501  0.00  0.00    +0.000 HD
BRANCH   2   9
ATOM      4  N   UNL     1       5.188   3.179  19.522  0.00  0.00    +0.000 N 
ATOM      5  C   UNL     1       5.580   4.306  18.815  0.00  0.00    +0.000 A 
ATOM      6  N   UNL     1       6.853   4.310  18.409  0.00  0.00    +0.000 NA
ATOM      7  C   UNL     1       7.245   5.358  17.670  0.00  0.00    +0.000 A 
ATOM      8  C   UNL     1       6.408   6.387  17.317  0.00  0.00    +0.000 A 
ATOM      9  C   UNL     1       5.116   6.312  17.786  0.00  0.00    +0.000 A 
ATOM     10  N   UNL     1       4.698   5.279  18.532  0.00  0.00    +0.000 NA
ATOM     11  H   UNL     1       5.853   2.451  19.266  0.00  0.00    +0.000 HD
BRANCH   4  12
ATOM     12  C   UNL     1       3.799   2.766  19.345  0.00  0.00    +0.000 C 
BRANCH  12  13
ATOM     13  C   UNL     1       3.645   1.639  18.314  0.00  0.00    +0.000 C 
BRANCH  13  14
ATOM     14  O   UNL     1       2.289   1.556  17.872  0.00  0.00    +0.000 OA
ATOM     15  H   UNL     1       1.967   0.675  18.130  0.00  0.00    +0.000 HD
ENDBRANCH  13  14
ENDBRANCH  12  13
ENDBRANCH   4  12
ENDBRANCH   2   9
ENDBRANCH   1   2
BRANCH   1  16
ATOM     16  C   UNL     1       2.151   7.927  18.735  0.00  0.00    +0.000 C 
BRANCH  16  17
ATOM     17  C   UNL     1       2.194   9.321  18.108  0.00  0.00    +0.000 C 
BRANCH  17  18
ATOM     18  N   UNL     1       0.880   9.705  17.588  0.00  0.00    +0.000 N 
ATOM     19  H   UNL     1       0.348   8.893  17.294  0.00  0.00    +0.000 HD
BRANCH  18  20
ATOM     20  C   UNL     1       0.093  10.576  18.386  0.00  0.00    +0.000 A 
ATOM     21  C   UNL     1       0.695  11.439  19.310  0.00  0.00    +0.000 A 
ATOM     22  C   UNL     1      -0.088  12.309  20.041  0.00  0.00    +0.000 A 
ATOM     23  N   UNL     1      -1.421  12.408  19.907  0.00  0.00    +0.000 NA
ATOM     24  C   UNL     1      -2.016  11.639  18.989  0.00  0.00    +0.000 A 
ATOM     25  C   UNL     1      -3.385  11.789  18.843  0.00  0.00    +0.000 A 
ATOM     26  C   UNL     1      -4.099  11.047  17.911  0.00  0.00    +0.000 A 
ATOM     27 CL   UNL     1      -5.798  11.267  17.759  0.00  0.00    +0.000 Cl
ATOM     28  C   UNL     1      -3.445  10.131  17.099  0.00  0.00    +0.000 A 
ATOM     29  C   UNL     1      -2.065   9.965  17.230  0.00  0.00    +0.000 A 
ATOM     30  C   UNL     1      -1.315  10.707  18.179  0.00  0.00    +0.000 A 
ENDBRANCH  18  20
ENDBRANCH  17  18
ENDBRANCH  16  17
ENDBRANCH   1  16
TORSDOF 9
ENDMDL
MODEL 6
REMARK VINA RESULT:      -7.0      1.321      1.505
REMARK  Name = 
REMARK  9 active torsions:
REMARK  status: ('A' for Active; 'I' for Inactive)
REMARK    1  A    between atoms: O_1  and  C_2
REMARK    2  A    between atoms: C_2  and  C_3
REMARK    3  A    between atoms: C_3  and  N_4
REMARK    4  A    between atoms: C_9  and  N_10
REMARK    5  A    between atoms: N_10  and  C_11
REMARK    6  A    between atoms: C_11  and  C_12
REMARK    7  A    between atoms: C_12  and  C_13
REMARK    8  A    between atoms: C_13  and  N_14
REMARK    9  A    between atoms: N_14  and  C_15
REMARK                            x       y       z     vdW  Elec       q    Type
REMARK                         _______ _______ _______ _____ _____    ______ ____
ROOT
ATOM      1  C   UNL     1       3.659   5.281  19.786  0.00  0.00    +0.000 C 
ENDROOT
BRANCH   1   2
ATOM      2  N   UNL     1       4.228   5.704  18.517  0.00  0.00    +0.000 N 
ATOM      3  H   UNL     1       3.674   5.476  17.692  0.00  0.00    +0.000 HD
BRANCH   2   9
ATOM      4  N   UNL     1       7.277   4.217  15.294  0.00  0.00    +0.000 N 
ATOM      5  C   UNL     1       6.991   4.585  16.601  0.00  0.00    +0.000 A 
ATOM      6  N   UNL     1       8.047   4.647  17.418  0.00  0.00    +0.000 NA
ATOM      7  C   UNL     1       7.812   5.061  18.672  0.00  0.00    +0.000 A 
ATOM      8  C   UNL     1       6.568   5.421  19.127  0.00  0.00    +0.000 A 
ATOM      9  C   UNL     1       5.534   5.317  18.225  0.00  0.00    +0.000 A 
ATOM     10  N   UNL     1       5.738   4.901  16.967  0.00  0.00    +0.000 NA
ATOM     11  H   UNL     1       8.265   4.423  15.162  0.00  0.00    +0.000 HD
BRANCH   4  12
ATOM     12  C   UNL     1       6.430   4.812  14.264  0.00  0.00    +0.000 C 
BRANCH  12  13
ATOM     13  C   UNL     1       5.612   3.764  13.497  0.00  0.00    +0.000 C 
BRANCH  13  14
ATOM     14  O   UNL     1       6.445   3.079  12.560  0.00  0.00    +0.000 OA
ATOM     15  H   UNL     1       6.539   3.667  11.790  0.00  0.00    +0.000 HD
ENDBRANCH  13  14
ENDBRANCH  12  13
ENDBRANCH   4  12
ENDBRANCH   2   9
ENDBRANCH   1   2
BRANCH   1  16
ATOM     16  C   UNL     1       2.185   4.907  19.615  0.00  0.00    +0.000 C 
BRANCH  16  17
ATOM     17  C   UNL     1       1.330   5.777  20.536  0.00  0.00    +0.000 C 
BRANCH  17  18
ATOM     18  N   UNL     1       2.025   7.020  20.882  0.00  0.00    +0.000 N 
ATOM     19  H   UNL     1       3.028   6.926  20.762  0.00  0.00    +0.000 HD
BRANCH  18  20
ATOM     20  C   UNL     1       1.545   8.220  20.295  0.00  0.00    +0.000 A 
ATOM     21  C   UNL     1       1.749   8.482  18.935  0.00  0.00    +0.000 A 
ATOM     22  C   UNL     1       1.232   9.634  18.377  0.00  0.00    +0.000 A 
ATOM     23  N   UNL     1       0.505  10.534  19.059  0.00  0.00    +0.000 NA
ATOM     24  C   UNL     1       0.242  10.280  20.346  0.00  0.00    +0.000 A 
ATOM     25  C   UNL     1      -0.542  11.203  21.017  0.00  0.00    +0.000 A 
ATOM     26  C   UNL     1      -0.882  11.029  22.352  0.00  0.00    +0.000 A 
ATOM     27 CL   UNL     1      -1.863  12.199  23.146  0.00  0.00    +0.000 Cl
ATOM     28  C   UNL     1      -0.437   9.914  23.047  0.00  0.00    +0.000 A 
ATOM     29  C   UNL     1       0.355   8.970  22.389  0.00  0.00    +0.000 A 
ATOM     30  C   UNL     1       0.721   9.129  21.027  0.00  0.00    +0.000 A 
ENDBRANCH  18  20
ENDBRANCH  17  18
ENDBRANCH  16  17
ENDBRANCH   1  16
TORSDOF 9
ENDMDL
MODEL 7
REMARK VINA RESULT:      -7.0      2.747      3.577
REMARK  Name = 
REMARK  9 active torsions:
REMARK  status: ('A' for Active; 'I' for Inactive)
REMARK    1  A    between atoms: O_1  and  C_2
REMARK    2  A    between atoms: C_2  and  C_3
REMARK    3  A    between atoms: C_3  and  N_4
REMARK    4  A    between atoms: C_9  and  N_10
REMARK    5  A    between atoms: N_10  and  C_11
REMARK    6  A    between atoms: C_11  and  C_12
REMARK    7  A    between atoms: C_12  and  C_13
REMARK    8  A    between atoms: C_13  and  N_14
REMARK    9  A    between atoms: N_14  and  C_15
REMARK                            x       y       z     vdW  Elec       q    Type
REMARK                         _______ _______ _______ _____ _____    ______ ____
ROOT
ATOM      1  C   UNL     1       1.448   2.984  20.875  0.00  0.00    +0.000 C 
ENDROOT
BRANCH   1   2
ATOM      2  N   UNL     1       2.489   2.316  20.112  0.00  0.00    +0.000 N 
ATOM      3  H   UNL     1       3.318   2.050  20.642  0.00  0.00    +0.000 HD
BRANCH   2   9
ATOM      4  N   UNL     1       5.408   5.445  18.218  0.00  0.00    +0.000 N 
ATOM      5  C   UNL     1       4.409   4.493  18.077  0.00  0.00    +0.000 A 
ATOM      6  N   UNL     1       4.086   4.187  16.817  0.00  0.00    +0.000 NA
ATOM      7  C   UNL     1       3.168   3.225  16.648  0.00  0.00    +0.000 A 
ATOM      8  C   UNL     1       2.575   2.557  17.690  0.00  0.00    +0.000 A 
ATOM      9  C   UNL     1       2.955   2.941  18.956  0.00  0.00    +0.000 A 
ATOM     10  N   UNL     1       3.866   3.903  19.155  0.00  0.00    +0.000 NA
ATOM     11  H   UNL     1       5.919   5.436  17.337  0.00  0.00    +0.000 HD
BRANCH   4  12
ATOM     12  C   UNL     1       6.277   5.291  19.381  0.00  0.00    +0.000 C 
BRANCH  12  13
ATOM     13  C   UNL     1       7.718   5.738  19.102  0.00  0.00    +0.000 C 
BRANCH  13  14
ATOM     14  O   UNL     1       8.566   5.380  20.195  0.00  0.00    +0.000 OA
ATOM     15  H   UNL     1       9.410   5.090  19.808  0.00  0.00    +0.000 HD
ENDBRANCH  13  14
ENDBRANCH  12  13
ENDBRANCH   4  12
ENDBRANCH   2   9
ENDBRANCH   1   2
BRANCH   1  16
ATOM     16  C   UNL     1       1.968   4.302  21.453  0.00  0.00    +0.000 C 
BRANCH  16  17
ATOM     17  C   UNL     1       1.405   5.470  20.641  0.00  0.00    +0.000 C 
BRANCH  17  18
ATOM     18  N   UNL     1       2.403   6.530  20.481  0.00  0.00    +0.000 N 
ATOM     19  H   UNL     1       3.242   6.181  20.029  0.00  0.00    +0.000 HD
BRANCH  18  20
ATOM     20  C   UNL     1       1.970   7.749  19.895  0.00  0.00    +0.000 A 
ATOM     21  C   UNL     1       2.151   7.988  18.527  0.00  0.00    +0.000 A 
ATOM     22  C   UNL     1       1.679   9.160  17.972  0.00  0.00    +0.000 A 
ATOM     23  N   UNL     1       1.019  10.103  18.664  0.00  0.00    +0.000 NA
ATOM     24  C   UNL     1       0.778   9.874  19.960  0.00  0.00    +0.000 A 
ATOM     25  C   UNL     1       0.061  10.843  20.642  0.00  0.00    +0.000 A 
ATOM     26  C   UNL     1      -0.252  10.698  21.988  0.00  0.00    +0.000 A 
ATOM     27 CL   UNL     1      -1.149  11.924  22.796  0.00  0.00    +0.000 Cl
ATOM     28  C   UNL     1       0.153   9.567  22.681  0.00  0.00    +0.000 A 
ATOM     29  C   UNL     1       0.878   8.578  22.012  0.00  0.00    +0.000 A 
ATOM     30  C   UNL     1       1.215   8.705  20.640  0.00  0.00    +0.000 A 
ENDBRANCH  18  20
ENDBRANCH  17  18
ENDBRANCH  16  17
ENDBRANCH   1  16
TORSDOF 9
ENDMDL
MODEL 8
REMARK VINA RESULT:      -6.9      3.161      5.148
REMARK  Name = 
REMARK  9 active torsions:
REMARK  status: ('A' for Active; 'I' for Inactive)
REMARK    1  A    between atoms: O_1  and  C_2
REMARK    2  A    between atoms: C_2  and  C_3
REMARK    3  A    between atoms: C_3  and  N_4
REMARK    4  A    between atoms: C_9  and  N_10
REMARK    5  A    between atoms: N_10  and  C_11
REMARK    6  A    between atoms: C_11  and  C_12
REMARK    7  A    between atoms: C_12  and  C_13
REMARK    8  A    between atoms: C_13  and  N_14
REMARK    9  A    between atoms: N_14  and  C_15
REMARK                            x       y       z     vdW  Elec       q    Type
REMARK                         _______ _______ _______ _____ _____    ______ ____
ROOT
ATOM      1  C   UNL     1       2.815   7.415  19.040  0.00  0.00    +0.000 C 
ENDROOT
BRANCH   1   2
ATOM      2  N   UNL     1       2.078   6.256  19.514  0.00  0.00    +0.000 N 
ATOM      3  H   UNL     1       1.581   6.383  20.395  0.00  0.00    +0.000 HD
BRANCH   2   9
ATOM      4  N   UNL     1       6.019   3.862  18.720  0.00  0.00    +0.000 N 
ATOM      5  C   UNL     1       4.723   3.916  19.210  0.00  0.00    +0.000 A 
ATOM      6  N   UNL     1       4.313   2.822  19.859  0.00  0.00    +0.000 NA
ATOM      7  C   UNL     1       3.087   2.867  20.400  0.00  0.00    +0.000 A 
ATOM      8  C   UNL     1       2.269   3.967  20.323  0.00  0.00    +0.000 A 
ATOM      9  C   UNL     1       2.762   5.047  19.627  0.00  0.00    +0.000 A 
ATOM     10  N   UNL     1       3.982   5.028  19.071  0.00  0.00    +0.000 NA
ATOM     11  H   UNL     1       6.490   3.146  19.269  0.00  0.00    +0.000 HD
BRANCH   4  12
ATOM     12  C   UNL     1       6.745   5.128  18.695  0.00  0.00    +0.000 C 
BRANCH  12  13
ATOM     13  C   UNL     1       7.185   5.528  17.280  0.00  0.00    +0.000 C 
BRANCH  13  14
ATOM     14  O   UNL     1       7.919   4.463  16.673  0.00  0.00    +0.000 OA
ATOM     15  H   UNL     1       8.411   4.855  15.930  0.00  0.00    +0.000 HD
ENDBRANCH  13  14
ENDBRANCH  12  13
ENDBRANCH   4  12
ENDBRANCH   2   9
ENDBRANCH   1   2
BRANCH   1  16
ATOM     16  C   UNL     1       2.120   8.032  17.823  0.00  0.00    +0.000 C 
BRANCH  16  17
ATOM     17  C   UNL     1       1.724   9.474  18.142  0.00  0.00    +0.000 C 
BRANCH  17  18
ATOM     18  N   UNL     1       0.355   9.754  17.704  0.00  0.00    +0.000 N 
ATOM     19  H   UNL     1      -0.158   8.896  17.529  0.00  0.00    +0.000 HD
BRANCH  18  20
ATOM     20  C   UNL     1      -0.407  10.662  18.485  0.00  0.00    +0.000 A 
ATOM     21  C   UNL     1       0.221  11.537  19.379  0.00  0.00    +0.000 A 
ATOM     22  C   UNL     1      -0.537  12.443  20.093  0.00  0.00    +0.000 A 
ATOM     23  N   UNL     1      -1.869  12.564  19.970  0.00  0.00    +0.000 NA
ATOM     24  C   UNL     1      -2.489  11.782  19.078  0.00  0.00    +0.000 A 
ATOM     25  C   UNL     1      -3.856  11.955  18.942  0.00  0.00    +0.000 A 
ATOM     26  C   UNL     1      -4.593  11.202  18.037  0.00  0.00    +0.000 A 
ATOM     27 CL   UNL     1      -6.290  11.451  17.895  0.00  0.00    +0.000 Cl
ATOM     28  C   UNL     1      -3.966  10.252  17.245  0.00  0.00    +0.000 A 
ATOM     29  C   UNL     1      -2.587  10.062  17.367  0.00  0.00    +0.000 A 
ATOM     30  C   UNL     1      -1.814  10.814  18.288  0.00  0.00    +0.000 A 
ENDBRANCH  18  20
ENDBRANCH  17  18
ENDBRANCH  16  17
ENDBRANCH   1  16
TORSDOF 9
ENDMDL
MODEL 9
REMARK VINA RESULT:      -6.9      4.370      8.752
REMARK  Name = 
REMARK  9 active torsions:
REMARK  status: ('A' for Active; 'I' for Inactive)
REMARK    1  A    between atoms: O_1  and  C_2
REMARK    2  A    between atoms: C_2  and  C_3
REMARK    3  A    between atoms: C_3  and  N_4
REMARK    4  A    between atoms: C_9  and  N_10
REMARK    5  A    between atoms: N_10  and  C_11
REMARK    6  A    between atoms: C_11  and  C_12
REMARK    7  A    between atoms: C_12  and  C_13
REMARK    8  A    between atoms: C_13  and  N_14
REMARK    9  A    between atoms: N_14  and  C_15
REMARK                            x       y       z     vdW  Elec       q    Type
REMARK                         _______ _______ _______ _____ _____    ______ ____
ROOT
ATOM      1  C   UNL     1       1.589   5.956  20.602  0.00  0.00    +0.000 C 
ENDROOT
BRANCH   1   2
ATOM      2  N   UNL     1       1.925   7.321  20.971  0.00  0.00    +0.000 N 
ATOM      3  H   UNL     1       1.671   7.594  21.920  0.00  0.00    +0.000 HD
BRANCH   2   9
ATOM      4  N   UNL     1      -0.420  11.352  20.592  0.00  0.00    +0.000 N 
ATOM      5  C   UNL     1       0.316  10.330  20.012  0.00  0.00    +0.000 A 
ATOM      6  N   UNL     1       0.628  10.512  18.725  0.00  0.00    +0.000 NA
ATOM      7  C   UNL     1       1.392   9.571  18.153  0.00  0.00    +0.000 A 
ATOM      8  C   UNL     1       1.859   8.468  18.823  0.00  0.00    +0.000 A 
ATOM      9  C   UNL     1       1.482   8.350  20.142  0.00  0.00    +0.000 A 
ATOM     10  N   UNL     1       0.714   9.273  20.738  0.00  0.00    +0.000 NA
ATOM     11  H   UNL     1      -0.252  12.173  20.012  0.00  0.00    +0.000 HD
BRANCH   4  12
ATOM     12  C   UNL     1      -0.166  11.597  22.009  0.00  0.00    +0.000 C 
BRANCH  12  13
ATOM     13  C   UNL     1      -1.124  10.820  22.921  0.00  0.00    +0.000 C 
BRANCH  13  14
ATOM     14  O   UNL     1      -0.416   9.794  23.620  0.00  0.00    +0.000 OA
ATOM     15  H   UNL     1      -0.135  10.180  24.468  0.00  0.00    +0.000 HD
ENDBRANCH  13  14
ENDBRANCH  12  13
ENDBRANCH   4  12
ENDBRANCH   2   9
ENDBRANCH   1   2
BRANCH   1  16
ATOM     16  C   UNL     1       2.860   5.137  20.360  0.00  0.00    +0.000 C 
BRANCH  16  17
ATOM     17  C   UNL     1       2.906   4.694  18.898  0.00  0.00    +0.000 C 
BRANCH  17  18
ATOM     18  N   UNL     1       4.104   3.894  18.628  0.00  0.00    +0.000 N 
ATOM     19  H   UNL     1       3.902   3.134  17.987  0.00  0.00    +0.000 HD
BRANCH  18  20
ATOM     20  C   UNL     1       5.281   4.592  18.246  0.00  0.00    +0.000 A 
ATOM     21  C   UNL     1       6.101   5.190  19.210  0.00  0.00    +0.000 A 
ATOM     22  C   UNL     1       7.264   5.822  18.818  0.00  0.00    +0.000 A 
ATOM     23  N   UNL     1       7.689   5.883  17.546  0.00  0.00    +0.000 NA
ATOM     24  C   UNL     1       6.957   5.268  16.611  0.00  0.00    +0.000 A 
ATOM     25  C   UNL     1       7.438   5.312  15.313  0.00  0.00    +0.000 A 
ATOM     26  C   UNL     1       6.760   4.695  14.269  0.00  0.00    +0.000 A 
ATOM     27 CL   UNL     1       7.395   4.770  12.672  0.00  0.00    +0.000 Cl
ATOM     28  C   UNL     1       5.575   4.017  14.511  0.00  0.00    +0.000 A 
ATOM     29  C   UNL     1       5.072   3.960  15.813  0.00  0.00    +0.000 A 
ATOM     30  C   UNL     1       5.743   4.587  16.895  0.00  0.00    +0.000 A 
ENDBRANCH  18  20
ENDBRANCH  17  18
ENDBRANCH  16  17
ENDBRANCH   1  16
TORSDOF 9
ENDMDL
