MODEL 1
REMARK VINA RESULT:      -7.4      0.000      0.000
REMARK  Name = 
REMARK  4 active torsions:
REMARK  status: ('A' for Active; 'I' for Inactive)
REMARK    1  A    between atoms: C_1  and  O_2
REMARK    2  A    between atoms: O_2  and  C_3
REMARK    3  A    between atoms: C_21  and  N_22
REMARK    4  A    between atoms: N_25  and  C_26
REMARK                            x       y       z     vdW  Elec       q    Type
REMARK                         _______ _______ _______ _____ _____    ______ ____
ROOT
ATOM      1  C   UNL     1       6.697   5.215  16.459  0.00  0.00    +0.000 A 
ATOM      2  C   UNL     1       5.851   5.568  15.388  0.00  0.00    +0.000 A 
ATOM      3  C   UNL     1       4.717   6.313  15.702  0.00  0.00    +0.000 A 
ATOM      4  C   UNL     1       4.491   6.616  17.046  0.00  0.00    +0.000 A 
ATOM      5  C   UNL     1       5.340   6.043  18.011  0.00  0.00    +0.000 A 
ATOM      6  C   UNL     1       6.111   4.961  17.698  0.00  0.00    +0.000 A 
ATOM      7  N   UNL     1       5.637   3.615  18.232  0.00  0.00    +0.000 N 
ATOM      8  C   UNL     1       4.268   3.021  18.241  0.00  0.00    +0.000 A 
ATOM      9  N   UNL     1       3.375   3.364  17.302  0.00  0.00    +0.000 NA
ATOM     10  C   UNL     1       2.081   3.278  17.689  0.00  0.00    +0.000 A 
ATOM     11  N   UNL     1       1.564   2.288  18.410  0.00  0.00    +0.000 NA
ATOM     12  C   UNL     1       2.435   1.817  19.306  0.00  0.00    +0.000 A 
ATOM     13  C   UNL     1       3.786   2.198  19.304  0.00  0.00    +0.000 A 
ATOM     14 CL   UNL     1       4.677   1.848  20.734  0.00  0.00    +0.000 Cl
ATOM     15  N   UNL     1       1.680   4.560  18.102  0.00  0.00    +0.000 N 
ATOM     16  C   UNL     1       1.839   5.007  19.489  0.00  0.00    +0.000 A 
ATOM     17  C   UNL     1       0.749   5.216  20.259  0.00  0.00    +0.000 A 
ATOM     18  C   UNL     1       0.683   6.435  20.921  0.00  0.00    +0.000 A 
ATOM     19  C   UNL     1       1.616   7.461  20.586  0.00  0.00    +0.000 A 
ATOM     20  C   UNL     1       2.738   7.066  19.883  0.00  0.00    +0.000 A 
ATOM     21  C   UNL     1       2.964   5.716  19.790  0.00  0.00    +0.000 A 
ATOM     22  C   UNL     1       3.428   7.989  18.896  0.00  0.00    +0.000 C 
ATOM     23  C   UNL     1       3.361   7.506  17.461  0.00  0.00    +0.000 C 
ATOM     24  H   UNL     1       5.721   3.762  19.243  0.00  0.00    +0.000 HD
ATOM     25  H   UNL     1       2.480   5.002  17.622  0.00  0.00    +0.000 HD
ENDROOT
BRANCH  19  26
ATOM     26  N   UNL     1       1.321   8.777  20.862  0.00  0.00    +0.000 N 
ATOM     27  C   UNL     1       1.623   9.246  22.221  0.00  0.00    +0.000 C 
ATOM     28  C   UNL     1       0.333   9.557  23.005  0.00  0.00    +0.000 C 
ATOM     29  N   UNL     1      -0.510  10.565  22.329  0.00  0.00    +0.000 NA
ATOM     30  C   UNL     1      -1.687  10.861  23.141  0.00  0.00    +0.000 C 
ATOM     31  C   UNL     1      -0.901  10.060  20.998  0.00  0.00    +0.000 C 
ATOM     32  C   UNL     1       0.304   9.589  20.123  0.00  0.00    +0.000 C 
ENDBRANCH  19  26
BRANCH   1  34
ATOM     33  C   UNL     1       7.927   7.431  17.033  0.00  0.00    +0.000 C 
ATOM     34  O   UNL     1       7.714   6.237  16.275  0.00  0.00    +0.000 OA
ENDBRANCH   1  34
TORSDOF 2
ENDMDL
MODEL 2
REMARK VINA RESULT:      -7.1      9.446     10.954
REMARK  Name = 
REMARK  4 active torsions:
REMARK  status: ('A' for Active; 'I' for Inactive)
REMARK    1  A    between atoms: C_1  and  O_2
REMARK    2  A    between atoms: O_2  and  C_3
REMARK    3  A    between atoms: C_21  and  N_22
REMARK    4  A    between atoms: N_25  and  C_26
REMARK                            x       y       z     vdW  Elec       q    Type
REMARK                         _______ _______ _______ _____ _____    ______ ____
ROOT
ATOM      1  C   UNL     1      10.470  14.001  17.423  0.00  0.00    +0.000 A 
ATOM      2  C   UNL     1      11.351  14.893  18.069  0.00  0.00    +0.000 A 
ATOM      3  C   UNL     1      11.243  14.991  19.453  0.00  0.00    +0.000 A 
ATOM      4  C   UNL     1      10.253  14.233  20.083  0.00  0.00    +0.000 A 
ATOM      5  C   UNL     1       9.342  13.524  19.278  0.00  0.00    +0.000 A 
ATOM      6  C   UNL     1       9.193  13.843  17.959  0.00  0.00    +0.000 A 
ATOM      7  N   UNL     1       7.938  14.625  17.591  0.00  0.00    +0.000 N 
ATOM      8  C   UNL     1       7.318  15.804  18.262  0.00  0.00    +0.000 A 
ATOM      9  N   UNL     1       8.075  16.660  18.963  0.00  0.00    +0.000 NA
ATOM     10  C   UNL     1       7.431  17.297  19.969  0.00  0.00    +0.000 A 
ATOM     11  N   UNL     1       6.203  17.800  19.892  0.00  0.00    +0.000 NA
ATOM     12  C   UNL     1       5.409  17.054  19.119  0.00  0.00    +0.000 A 
ATOM     13  C   UNL     1       5.905  16.005  18.331  0.00  0.00    +0.000 A 
ATOM     14 CL   UNL     1       4.742  14.891  17.725  0.00  0.00    +0.000 Cl
ATOM     15  N   UNL     1       7.687  16.581  21.151  0.00  0.00    +0.000 N 
ATOM     16  C   UNL     1       6.822  15.481  21.586  0.00  0.00    +0.000 A 
ATOM     17  C   UNL     1       6.065  15.616  22.697  0.00  0.00    +0.000 A 
ATOM     18  C   UNL     1       6.156  14.597  23.637  0.00  0.00    +0.000 A 
ATOM     19  C   UNL     1       7.177  13.611  23.498  0.00  0.00    +0.000 A 
ATOM     20  C   UNL     1       7.788  13.527  22.261  0.00  0.00    +0.000 A 
ATOM     21  C   UNL     1       7.196  14.218  21.234  0.00  0.00    +0.000 A 
ATOM     22  C   UNL     1       9.235  13.101  22.112  0.00  0.00    +0.000 C 
ATOM     23  C   UNL     1      10.140  14.191  21.575  0.00  0.00    +0.000 C 
ATOM     24  H   UNL     1       7.205  13.945  17.822  0.00  0.00    +0.000 HD
ATOM     25  H   UNL     1       8.488  16.092  20.722  0.00  0.00    +0.000 HD
ENDROOT
BRANCH  19  26
ATOM     26  N   UNL     1       7.586  12.884  24.594  0.00  0.00    +0.000 N 
ATOM     27  C   UNL     1       7.084  11.507  24.691  0.00  0.00    +0.000 C 
ATOM     28  C   UNL     1       6.105  11.351  25.871  0.00  0.00    +0.000 C 
ATOM     29  N   UNL     1       6.713  11.729  27.163  0.00  0.00    +0.000 NA
ATOM     30  C   UNL     1       5.761  11.509  28.249  0.00  0.00    +0.000 C 
ATOM     31  C   UNL     1       7.132  13.143  27.109  0.00  0.00    +0.000 C 
ATOM     32  C   UNL     1       8.041  13.485  25.886  0.00  0.00    +0.000 C 
ENDBRANCH  19  26
BRANCH   1  34
ATOM     33  C   UNL     1      11.215  11.522  17.649  0.00  0.00    +0.000 C 
ATOM     34  O   UNL     1      11.384  12.885  17.249  0.00  0.00    +0.000 OA
ENDBRANCH   1  34
TORSDOF 2
ENDMDL
MODEL 3
REMARK VINA RESULT:      -6.9      6.952     12.520
REMARK  Name = 
REMARK  4 active torsions:
REMARK  status: ('A' for Active; 'I' for Inactive)
REMARK    1  A    between atoms: C_1  and  O_2
REMARK    2  A    between atoms: O_2  and  C_3
REMARK    3  A    between atoms: C_21  and  N_22
REMARK    4  A    between atoms: N_25  and  C_26
REMARK                            x       y       z     vdW  Elec       q    Type
REMARK                         _______ _______ _______ _____ _____    ______ ____
ROOT
ATOM      1  C   UNL     1      -6.637  15.712  23.323  0.00  0.00    +0.000 A 
ATOM      2  C   UNL     1      -6.921  14.512  24.007  0.00  0.00    +0.000 A 
ATOM      3  C   UNL     1      -6.060  13.441  23.784  0.00  0.00    +0.000 A 
ATOM      4  C   UNL     1      -5.014  13.628  22.878  0.00  0.00    +0.000 A 
ATOM      5  C   UNL     1      -4.970  14.830  22.147  0.00  0.00    +0.000 A 
ATOM      6  C   UNL     1      -6.079  15.619  22.049  0.00  0.00    +0.000 A 
ATOM      7  N   UNL     1      -6.823  15.576  20.720  0.00  0.00    +0.000 N 
ATOM      8  C   UNL     1      -7.207  14.404  19.879  0.00  0.00    +0.000 A 
ATOM      9  N   UNL     1      -7.419  13.207  20.444  0.00  0.00    +0.000 NA
ATOM     10  C   UNL     1      -7.176  12.147  19.638  0.00  0.00    +0.000 A 
ATOM     11  N   UNL     1      -7.521  12.067  18.357  0.00  0.00    +0.000 NA
ATOM     12  C   UNL     1      -7.436  13.251  17.744  0.00  0.00    +0.000 A 
ATOM     13  C   UNL     1      -7.219  14.443  18.452  0.00  0.00    +0.000 A 
ATOM     14 CL   UNL     1      -6.725  15.803  17.519  0.00  0.00    +0.000 Cl
ATOM     15  N   UNL     1      -5.872  11.702  19.911  0.00  0.00    +0.000 N 
ATOM     16  C   UNL     1      -4.710  12.237  19.195  0.00  0.00    +0.000 A 
ATOM     17  C   UNL     1      -4.018  11.445  18.346  0.00  0.00    +0.000 A 
ATOM     18  C   UNL     1      -2.640  11.405  18.521  0.00  0.00    +0.000 A 
ATOM     19  C   UNL     1      -2.069  11.993  19.688  0.00  0.00    +0.000 A 
ATOM     20  C   UNL     1      -2.875  12.867  20.394  0.00  0.00    +0.000 A 
ATOM     21  C   UNL     1      -4.035  13.266  19.782  0.00  0.00    +0.000 A 
ATOM     22  C   UNL     1      -2.751  13.029  21.897  0.00  0.00    +0.000 C 
ATOM     23  C   UNL     1      -3.976  12.570  22.662  0.00  0.00    +0.000 C 
ATOM     24  H   UNL     1      -6.119  15.965  20.084  0.00  0.00    +0.000 HD
ATOM     25  H   UNL     1      -5.848  12.214  20.807  0.00  0.00    +0.000 HD
ENDROOT
BRANCH  19  26
ATOM     26  N   UNL     1      -0.824  11.596  20.121  0.00  0.00    +0.000 N 
ATOM     27  C   UNL     1       0.288  11.779  19.178  0.00  0.00    +0.000 C 
ATOM     28  C   UNL     1       0.834  10.425  18.687  0.00  0.00    +0.000 C 
ATOM     29  N   UNL     1       1.288   9.562  19.797  0.00  0.00    +0.000 NA
ATOM     30  C   UNL     1       1.846   8.319  19.271  0.00  0.00    +0.000 C 
ATOM     31  C   UNL     1       0.152   9.290  20.699  0.00  0.00    +0.000 C 
ATOM     32  C   UNL     1      -0.586  10.576  21.191  0.00  0.00    +0.000 C 
ENDBRANCH  19  26
BRANCH   1  34
ATOM     33  C   UNL     1      -5.577  17.797  24.453  0.00  0.00    +0.000 C 
ATOM     34  O   UNL     1      -5.986  16.428  24.407  0.00  0.00    +0.000 OA
ENDBRANCH   1  34
TORSDOF 2
ENDMDL
MODEL 4
REMARK VINA RESULT:      -6.7      6.669     10.338
REMARK  Name = 
REMARK  4 active torsions:
REMARK  status: ('A' for Active; 'I' for Inactive)
REMARK    1  A    between atoms: C_1  and  O_2
REMARK    2  A    between atoms: O_2  and  C_3
REMARK    3  A    between atoms: C_21  and  N_22
REMARK    4  A    between atoms: N_25  and  C_26
REMARK                            x       y       z     vdW  Elec       q    Type
REMARK                         _______ _______ _______ _____ _____    ______ ____
ROOT
ATOM      1  C   UNL     1       5.040  15.788  18.026  0.00  0.00    +0.000 A 
ATOM      2  C   UNL     1       5.409  15.714  19.385  0.00  0.00    +0.000 A 
ATOM      3  C   UNL     1       4.587  14.963  20.220  0.00  0.00    +0.000 A 
ATOM      4  C   UNL     1       3.451  14.378  19.658  0.00  0.00    +0.000 A 
ATOM      5  C   UNL     1       3.131  14.689  18.323  0.00  0.00    +0.000 A 
ATOM      6  C   UNL     1       3.681  15.783  17.718  0.00  0.00    +0.000 A 
ATOM      7  N   UNL     1       2.770  16.994  17.556  0.00  0.00    +0.000 N 
ATOM      8  C   UNL     1       1.836  17.623  18.535  0.00  0.00    +0.000 A 
ATOM      9  N   UNL     1       2.073  17.533  19.851  0.00  0.00    +0.000 NA
ATOM     10  C   UNL     1       0.969  17.580  20.632  0.00  0.00    +0.000 A 
ATOM     11  N   UNL     1      -0.058  18.405  20.453  0.00  0.00    +0.000 NA
ATOM     12  C   UNL     1      -0.294  18.631  19.158  0.00  0.00    +0.000 A 
ATOM     13  C   UNL     1       0.590  18.208  18.153  0.00  0.00    +0.000 A 
ATOM     14 CL   UNL     1      -0.030  18.197  16.548  0.00  0.00    +0.000 Cl
ATOM     15  N   UNL     1       0.600  16.255  20.919  0.00  0.00    +0.000 N 
ATOM     16  C   UNL     1      -0.313  15.506  20.050  0.00  0.00    +0.000 A 
ATOM     17  C   UNL     1      -1.545  15.173  20.493  0.00  0.00    +0.000 A 
ATOM     18  C   UNL     1      -1.914  13.840  20.357  0.00  0.00    +0.000 A 
ATOM     19  C   UNL     1      -0.927  12.880  19.987  0.00  0.00    +0.000 A 
ATOM     20  C   UNL     1       0.245  13.378  19.448  0.00  0.00    +0.000 A 
ATOM     21  C   UNL     1       0.248  14.704  19.100  0.00  0.00    +0.000 A 
ATOM     22  C   UNL     1       1.574  12.671  19.637  0.00  0.00    +0.000 C 
ATOM     23  C   UNL     1       2.574  13.463  20.454  0.00  0.00    +0.000 C 
ATOM     24  H   UNL     1       2.058  16.623  16.918  0.00  0.00    +0.000 HD
ATOM     25  H   UNL     1       1.529  15.900  20.641  0.00  0.00    +0.000 HD
ENDROOT
BRANCH  19  26
ATOM     26  N   UNL     1      -1.119  11.547  20.276  0.00  0.00    +0.000 N 
ATOM     27  C   UNL     1      -0.971  11.154  21.684  0.00  0.00    +0.000 C 
ATOM     28  C   UNL     1       0.271  10.264  21.888  0.00  0.00    +0.000 C 
ATOM     29  N   UNL     1       0.236   9.046  21.053  0.00  0.00    +0.000 NA
ATOM     30  C   UNL     1       1.406   8.215  21.328  0.00  0.00    +0.000 C 
ATOM     31  C   UNL     1       0.186   9.431  19.629  0.00  0.00    +0.000 C 
ATOM     32  C   UNL     1      -0.960  10.435  19.287  0.00  0.00    +0.000 C 
ENDBRANCH  19  26
BRANCH   1  34
ATOM     33  C   UNL     1       7.308  14.527  17.895  0.00  0.00    +0.000 C 
ATOM     34  O   UNL     1       5.960  14.794  17.500  0.00  0.00    +0.000 OA
ENDBRANCH   1  34
TORSDOF 2
ENDMDL
MODEL 5
REMARK VINA RESULT:      -6.6      1.028      1.477
REMARK  Name = 
REMARK  4 active torsions:
REMARK  status: ('A' for Active; 'I' for Inactive)
REMARK    1  A    between atoms: C_1  and  O_2
REMARK    2  A    between atoms: O_2  and  C_3
REMARK    3  A    between atoms: C_21  and  N_22
REMARK    4  A    between atoms: N_25  and  C_26
REMARK                            x       y       z     vdW  Elec       q    Type
REMARK                         _______ _______ _______ _____ _____    ______ ____
ROOT
ATOM      1  C   UNL     1       6.801   5.766  16.731  0.00  0.00    +0.000 A 
ATOM      2  C   UNL     1       5.972   6.081  15.635  0.00  0.00    +0.000 A 
ATOM      3  C   UNL     1       4.726   6.630  15.926  0.00  0.00    +0.000 A 
ATOM      4  C   UNL     1       4.385   6.788  17.270  0.00  0.00    +0.000 A 
ATOM      5  C   UNL     1       5.253   6.265  18.246  0.00  0.00    +0.000 A 
ATOM      6  C   UNL     1       6.190   5.333  17.907  0.00  0.00    +0.000 A 
ATOM      7  N   UNL     1       5.889   3.894  18.311  0.00  0.00    +0.000 N 
ATOM      8  C   UNL     1       4.623   3.114  18.187  0.00  0.00    +0.000 A 
ATOM      9  N   UNL     1       3.743   3.402  17.218  0.00  0.00    +0.000 NA
ATOM     10  C   UNL     1       2.456   3.103  17.511  0.00  0.00    +0.000 A 
ATOM     11  N   UNL     1       2.050   1.995  18.123  0.00  0.00    +0.000 NA
ATOM     12  C   UNL     1       2.930   1.581  19.038  0.00  0.00    +0.000 A 
ATOM     13  C   UNL     1       4.209   2.148  19.154  0.00  0.00    +0.000 A 
ATOM     14 CL   UNL     1       5.061   1.813  20.611  0.00  0.00    +0.000 Cl
ATOM     15  N   UNL     1       1.850   4.277  17.987  0.00  0.00    +0.000 N 
ATOM     16  C   UNL     1       1.865   4.629  19.410  0.00  0.00    +0.000 A 
ATOM     17  C   UNL     1       0.715   4.619  20.119  0.00  0.00    +0.000 A 
ATOM     18  C   UNL     1       0.435   5.760  20.862  0.00  0.00    +0.000 A 
ATOM     19  C   UNL     1       1.225   6.930  20.664  0.00  0.00    +0.000 A 
ATOM     20  C   UNL     1       2.431   6.756  20.009  0.00  0.00    +0.000 A 
ATOM     21  C   UNL     1       2.856   5.464  19.835  0.00  0.00    +0.000 A 
ATOM     22  C   UNL     1       3.031   7.843  19.139  0.00  0.00    +0.000 C 
ATOM     23  C   UNL     1       3.115   7.473  17.672  0.00  0.00    +0.000 C 
ATOM     24  H   UNL     1       5.894   3.970  19.334  0.00  0.00    +0.000 HD
ATOM     25  H   UNL     1       2.603   4.865  17.594  0.00  0.00    +0.000 HD
ENDROOT
BRANCH  19  26
ATOM     26  N   UNL     1       0.727   8.165  21.013  0.00  0.00    +0.000 N 
ATOM     27  C   UNL     1      -0.264   8.754  20.100  0.00  0.00    +0.000 C 
ATOM     28  C   UNL     1       0.302   9.998  19.388  0.00  0.00    +0.000 C 
ATOM     29  N   UNL     1       0.753  11.036  20.336  0.00  0.00    +0.000 NA
ATOM     30  C   UNL     1       1.225  12.211  19.608  0.00  0.00    +0.000 C 
ATOM     31  C   UNL     1       1.819  10.484  21.193  0.00  0.00    +0.000 C 
ATOM     32  C   UNL     1       1.433   9.144  21.897  0.00  0.00    +0.000 C 
ENDBRANCH  19  26
BRANCH   1  34
ATOM     33  C   UNL     1       7.826   7.961  17.670  0.00  0.00    +0.000 C 
ATOM     34  O   UNL     1       7.666   6.933  16.689  0.00  0.00    +0.000 OA
ENDBRANCH   1  34
TORSDOF 2
ENDMDL
MODEL 6
REMARK VINA RESULT:      -6.6      6.677     10.164
REMARK  Name = 
REMARK  4 active torsions:
REMARK  status: ('A' for Active; 'I' for Inactive)
REMARK    1  A    between atoms: C_1  and  O_2
REMARK    2  A    between atoms: O_2  and  C_3
REMARK    3  A    between atoms: C_21  and  N_22
REMARK    4  A    between atoms: N_25  and  C_26
REMARK                            x       y       z     vdW  Elec       q    Type
REMARK                         _______ _______ _______ _____ _____    ______ ____
ROOT
ATOM      1  C   UNL     1      -3.564  12.833  21.970  0.00  0.00    +0.000 A 
ATOM      2  C   UNL     1      -2.750  12.443  23.053  0.00  0.00    +0.000 A 
ATOM      3  C   UNL     1      -1.431  12.890  23.041  0.00  0.00    +0.000 A 
ATOM      4  C   UNL     1      -1.014  13.651  21.949  0.00  0.00    +0.000 A 
ATOM      5  C   UNL     1      -1.900  13.808  20.866  0.00  0.00    +0.000 A 
ATOM      6  C   UNL     1      -2.965  12.968  20.719  0.00  0.00    +0.000 A 
ATOM      7  N   UNL     1      -2.837  11.898  19.641  0.00  0.00    +0.000 N 
ATOM      8  C   UNL     1      -1.691  10.998  19.321  0.00  0.00    +0.000 A 
ATOM      9  N   UNL     1      -0.824  10.641  20.279  0.00  0.00    +0.000 NA
ATOM     10  C   UNL     1       0.424  10.358  19.839  0.00  0.00    +0.000 A 
ATOM     11  N   UNL     1       0.709   9.661  18.744  0.00  0.00    +0.000 NA
ATOM     12  C   UNL     1      -0.178   9.884  17.769  0.00  0.00    +0.000 A 
ATOM     13  C   UNL     1      -1.365  10.599  17.989  0.00  0.00    +0.000 A 
ATOM     14 CL   UNL     1      -2.189  11.156  16.585  0.00  0.00    +0.000 Cl
ATOM     15  N   UNL     1       1.199  11.519  19.999  0.00  0.00    +0.000 N 
ATOM     16  C   UNL     1       1.292  12.533  18.945  0.00  0.00    +0.000 A 
ATOM     17  C   UNL     1       2.461  12.724  18.294  0.00  0.00    +0.000 A 
ATOM     18  C   UNL     1       2.920  14.033  18.215  0.00  0.00    +0.000 A 
ATOM     19  C   UNL     1       2.282  15.042  18.995  0.00  0.00    +0.000 A 
ATOM     20  C   UNL     1       1.037  14.729  19.508  0.00  0.00    +0.000 A 
ATOM     21  C   UNL     1       0.439  13.593  19.022  0.00  0.00    +0.000 A 
ATOM     22  C   UNL     1       0.546  15.305  20.822  0.00  0.00    +0.000 C 
ATOM     23  C   UNL     1       0.351  14.267  21.908  0.00  0.00    +0.000 C 
ATOM     24  H   UNL     1      -2.788  12.475  18.793  0.00  0.00    +0.000 HD
ATOM     25  H   UNL     1       0.514  11.927  20.654  0.00  0.00    +0.000 HD
ENDROOT
BRANCH  19  26
ATOM     26  N   UNL     1       2.952  16.206  19.298  0.00  0.00    +0.000 N 
ATOM     27  C   UNL     1       3.798  16.770  18.237  0.00  0.00    +0.000 C 
ATOM     28  C   UNL     1       5.292  16.678  18.604  0.00  0.00    +0.000 C 
ATOM     29  N   UNL     1       5.605  17.360  19.876  0.00  0.00    +0.000 NA
ATOM     30  C   UNL     1       7.038  17.289  20.145  0.00  0.00    +0.000 C 
ATOM     31  C   UNL     1       4.832  16.734  20.967  0.00  0.00    +0.000 C 
ATOM     32  C   UNL     1       3.299  16.647  20.685  0.00  0.00    +0.000 C 
ENDBRANCH  19  26
BRANCH   1  34
ATOM     33  C   UNL     1      -5.054  13.902  23.811  0.00  0.00    +0.000 C 
ATOM     34  O   UNL     1      -4.270  13.927  22.616  0.00  0.00    +0.000 OA
ENDBRANCH   1  34
TORSDOF 2
ENDMDL
MODEL 7
REMARK VINA RESULT:      -6.5      8.555     12.465
REMARK  Name = 
REMARK  4 active torsions:
REMARK  status: ('A' for Active; 'I' for Inactive)
REMARK    1  A    between atoms: C_1  and  O_2
REMARK    2  A    between atoms: O_2  and  C_3
REMARK    3  A    between atoms: C_21  and  N_22
REMARK    4  A    between atoms: N_25  and  C_26
REMARK                            x       y       z     vdW  Elec       q    Type
REMARK                         _______ _______ _______ _____ _____    ______ ____
ROOT
ATOM      1  C   UNL     1      -1.988  15.719  23.203  0.00  0.00    +0.000 A 
ATOM      2  C   UNL     1      -1.520  14.497  23.729  0.00  0.00    +0.000 A 
ATOM      3  C   UNL     1      -1.901  13.338  23.058  0.00  0.00    +0.000 A 
ATOM      4  C   UNL     1      -2.739  13.474  21.950  0.00  0.00    +0.000 A 
ATOM      5  C   UNL     1      -3.257  14.750  21.657  0.00  0.00    +0.000 A 
ATOM      6  C   UNL     1      -3.246  15.733  22.604  0.00  0.00    +0.000 A 
ATOM      7  N   UNL     1      -4.580  16.040  23.274  0.00  0.00    +0.000 N 
ATOM      8  C   UNL     1      -5.614  15.108  23.812  0.00  0.00    +0.000 A 
ATOM      9  N   UNL     1      -5.263  13.894  24.261  0.00  0.00    +0.000 NA
ATOM     10  C   UNL     1      -6.229  12.952  24.166  0.00  0.00    +0.000 A 
ATOM     11  N   UNL     1      -7.513  13.142  24.452  0.00  0.00    +0.000 NA
ATOM     12  C   UNL     1      -7.917  14.374  24.128  0.00  0.00    +0.000 A 
ATOM     13  C   UNL     1      -7.015  15.377  23.742  0.00  0.00    +0.000 A 
ATOM     14 CL   UNL     1      -7.695  16.756  22.970  0.00  0.00    +0.000 Cl
ATOM     15  N   UNL     1      -6.005  12.239  22.976  0.00  0.00    +0.000 N 
ATOM     16  C   UNL     1      -6.595  12.662  21.703  0.00  0.00    +0.000 A 
ATOM     17  C   UNL     1      -7.548  11.904  21.117  0.00  0.00    +0.000 A 
ATOM     18  C   UNL     1      -7.352  11.586  19.779  0.00  0.00    +0.000 A 
ATOM     19  C   UNL     1      -6.090  11.865  19.175  0.00  0.00    +0.000 A 
ATOM     20  C   UNL     1      -5.266  12.746  19.851  0.00  0.00    +0.000 A 
ATOM     21  C   UNL     1      -5.829  13.443  20.889  0.00  0.00    +0.000 A 
ATOM     22  C   UNL     1      -3.755  12.640  19.780  0.00  0.00    +0.000 C 
ATOM     23  C   UNL     1      -3.105  12.294  21.104  0.00  0.00    +0.000 C 
ATOM     24  H   UNL     1      -5.126  16.392  22.479  0.00  0.00    +0.000 HD
ATOM     25  H   UNL     1      -5.035  12.587  22.910  0.00  0.00    +0.000 HD
ENDROOT
BRANCH  19  26
ATOM     26  N   UNL     1      -5.701  11.184  18.044  0.00  0.00    +0.000 N 
ATOM     27  C   UNL     1      -5.268   9.792  18.233  0.00  0.00    +0.000 C 
ATOM     28  C   UNL     1      -3.760   9.634  17.957  0.00  0.00    +0.000 C 
ATOM     29  N   UNL     1      -3.385  10.069  16.596  0.00  0.00    +0.000 NA
ATOM     30  C   UNL     1      -1.960   9.845  16.372  0.00  0.00    +0.000 C 
ATOM     31  C   UNL     1      -3.727  11.495  16.429  0.00  0.00    +0.000 C 
ATOM     32  C   UNL     1      -5.208  11.836  16.790  0.00  0.00    +0.000 C 
ENDBRANCH  19  26
BRANCH   1  34
ATOM     33  C   UNL     1       0.535  16.309  23.010  0.00  0.00    +0.000 C 
ATOM     34  O   UNL     1      -0.785  16.122  22.494  0.00  0.00    +0.000 OA
ENDBRANCH   1  34
TORSDOF 2
ENDMDL
MODEL 8
REMARK VINA RESULT:      -6.5      8.708     10.699
REMARK  Name = 
REMARK  4 active torsions:
REMARK  status: ('A' for Active; 'I' for Inactive)
REMARK    1  A    between atoms: C_1  and  O_2
REMARK    2  A    between atoms: O_2  and  C_3
REMARK    3  A    between atoms: C_21  and  N_22
REMARK    4  A    between atoms: N_25  and  C_26
REMARK                            x       y       z     vdW  Elec       q    Type
REMARK                         _______ _______ _______ _____ _____    ______ ____
ROOT
ATOM      1  C   UNL     1       8.019  11.827  24.409  0.00  0.00    +0.000 A 
ATOM      2  C   UNL     1       8.736  12.923  24.930  0.00  0.00    +0.000 A 
ATOM      3  C   UNL     1       8.572  14.146  24.286  0.00  0.00    +0.000 A 
ATOM      4  C   UNL     1       7.746  14.181  23.161  0.00  0.00    +0.000 A 
ATOM      5  C   UNL     1       7.239  12.965  22.666  0.00  0.00    +0.000 A 
ATOM      6  C   UNL     1       7.809  11.780  23.031  0.00  0.00    +0.000 A 
ATOM      7  N   UNL     1       8.694  11.107  21.990  0.00  0.00    +0.000 N 
ATOM      8  C   UNL     1       9.746  11.694  21.109  0.00  0.00    +0.000 A 
ATOM      9  N   UNL     1      10.423  12.784  21.497  0.00  0.00    +0.000 NA
ATOM     10  C   UNL     1      10.880  13.560  20.486  0.00  0.00    +0.000 A 
ATOM     11  N   UNL     1      11.434  13.106  19.367  0.00  0.00    +0.000 NA
ATOM     12  C   UNL     1      10.882  11.957  18.968  0.00  0.00    +0.000 A 
ATOM     13  C   UNL     1       9.984  11.242  19.775  0.00  0.00    +0.000 A 
ATOM     14 CL   UNL     1       9.052  10.029  18.987  0.00  0.00    +0.000 Cl
ATOM     15  N   UNL     1       9.942  14.587  20.288  0.00  0.00    +0.000 N 
ATOM     16  C   UNL     1       8.812  14.431  19.368  0.00  0.00    +0.000 A 
ATOM     17  C   UNL     1       8.762  15.162  18.232  0.00  0.00    +0.000 A 
ATOM     18  C   UNL     1       7.579  15.849  17.989  0.00  0.00    +0.000 A 
ATOM     19  C   UNL     1       6.599  15.935  19.022  0.00  0.00    +0.000 A 
ATOM     20  C   UNL     1       6.731  15.044  20.071  0.00  0.00    +0.000 A 
ATOM     21  C   UNL     1       7.627  14.019  19.900  0.00  0.00    +0.000 A 
ATOM     22  C   UNL     1       6.285  15.394  21.477  0.00  0.00    +0.000 C 
ATOM     23  C   UNL     1       7.423  15.473  22.475  0.00  0.00    +0.000 C 
ATOM     24  H   UNL     1       8.011  10.899  21.253  0.00  0.00    +0.000 HD
ATOM     25  H   UNL     1       9.514  14.421  21.213  0.00  0.00    +0.000 HD
ENDROOT
BRANCH  19  26
ATOM     26  N   UNL     1       5.661  16.943  19.000  0.00  0.00    +0.000 N 
ATOM     27  C   UNL     1       5.948  18.124  19.826  0.00  0.00    +0.000 C 
ATOM     28  C   UNL     1       4.965  18.232  21.007  0.00  0.00    +0.000 C 
ATOM     29  N   UNL     1       3.556  18.289  20.567  0.00  0.00    +0.000 NA
ATOM     30  C   UNL     1       2.675  18.448  21.721  0.00  0.00    +0.000 C 
ATOM     31  C   UNL     1       3.229  17.060  19.819  0.00  0.00    +0.000 C 
ATOM     32  C   UNL     1       4.219  16.748  18.652  0.00  0.00    +0.000 C 
ENDBRANCH  19  26
BRANCH   1  34
ATOM     33  C   UNL     1       5.704  11.068  25.313  0.00  0.00    +0.000 C 
ATOM     34  O   UNL     1       6.922  11.815  25.362  0.00  0.00    +0.000 OA
ENDBRANCH   1  34
TORSDOF 2
ENDMDL
MODEL 9
REMARK VINA RESULT:      -6.4      9.208     11.750
REMARK  Name = 
REMARK  4 active torsions:
REMARK  status: ('A' for Active; 'I' for Inactive)
REMARK    1  A    between atoms: C_1  and  O_2
REMARK    2  A    between atoms: O_2  and  C_3
REMARK    3  A    between atoms: C_21  and  N_22
REMARK    4  A    between atoms: N_25  and  C_26
REMARK                            x       y       z     vdW  Elec       q    Type
REMARK                         _______ _______ _______ _____ _____    ______ ____
ROOT
ATOM      1  C   UNL     1       9.325  12.076  17.862  0.00  0.00    +0.000 A 
ATOM      2  C   UNL     1      10.364  11.417  18.550  0.00  0.00    +0.000 A 
ATOM      3  C   UNL     1      10.452  11.642  19.921  0.00  0.00    +0.000 A 
ATOM      4  C   UNL     1       9.535  12.524  20.494  0.00  0.00    +0.000 A 
ATOM      5  C   UNL     1       8.668  13.233  19.642  0.00  0.00    +0.000 A 
ATOM      6  C   UNL     1       8.945  13.340  18.309  0.00  0.00    +0.000 A 
ATOM      7  N   UNL     1       9.488  14.684  17.837  0.00  0.00    +0.000 N 
ATOM      8  C   UNL     1      10.542  15.551  18.439  0.00  0.00    +0.000 A 
ATOM      9  N   UNL     1      11.525  15.011  19.174  0.00  0.00    +0.000 NA
ATOM     10  C   UNL     1      12.044  15.829  20.119  0.00  0.00    +0.000 A 
ATOM     11  N   UNL     1      12.319  17.118  19.945  0.00  0.00    +0.000 NA
ATOM     12  C   UNL     1      11.438  17.709  19.133  0.00  0.00    +0.000 A 
ATOM     13  C   UNL     1      10.488  16.978  18.404  0.00  0.00    +0.000 A 
ATOM     14 CL   UNL     1       9.180  17.877  17.740  0.00  0.00    +0.000 Cl
ATOM     15  N   UNL     1      11.395  15.538  21.330  0.00  0.00    +0.000 N 
ATOM     16  C   UNL     1      10.161  16.223  21.726  0.00  0.00    +0.000 A 
ATOM     17  C   UNL     1      10.167  17.071  22.778  0.00  0.00    +0.000 A 
ATOM     18  C   UNL     1       9.188  16.870  23.742  0.00  0.00    +0.000 A 
ATOM     19  C   UNL     1       8.399  15.682  23.696  0.00  0.00    +0.000 A 
ATOM     20  C   UNL     1       8.416  14.978  22.507  0.00  0.00    +0.000 A 
ATOM     21  C   UNL     1       8.982  15.606  21.427  0.00  0.00    +0.000 A 
ATOM     22  C   UNL     1       8.254  13.470  22.470  0.00  0.00    +0.000 C 
ATOM     23  C   UNL     1       9.484  12.737  21.975  0.00  0.00    +0.000 C 
ATOM     24  H   UNL     1       8.690  15.299  18.030  0.00  0.00    +0.000 HD
ATOM     25  H   UNL     1      11.053  14.633  20.969  0.00  0.00    +0.000 HD
ENDROOT
BRANCH  19  26
ATOM     26  N   UNL     1       7.765  15.232  24.832  0.00  0.00    +0.000 N 
ATOM     27  C   UNL     1       8.593  14.492  25.795  0.00  0.00    +0.000 C 
ATOM     28  C   UNL     1       8.182  13.009  25.862  0.00  0.00    +0.000 C 
ATOM     29  N   UNL     1       6.760  12.832  26.221  0.00  0.00    +0.000 NA
ATOM     30  C   UNL     1       6.441  11.410  26.325  0.00  0.00    +0.000 C 
ATOM     31  C   UNL     1       5.915  13.488  25.205  0.00  0.00    +0.000 C 
ATOM     32  C   UNL     1       6.294  14.980  24.937  0.00  0.00    +0.000 C 
ENDBRANCH  19  26
BRANCH   1  34
ATOM     33  C   UNL     1       8.582   9.604  18.160  0.00  0.00    +0.000 C 
ATOM     34  O   UNL     1       8.389  10.968  17.776  0.00  0.00    +0.000 OA
ENDBRANCH   1  34
TORSDOF 2
ENDMDL
