MODEL 1
REMARK VINA RESULT:      -7.2      0.000      0.000
REMARK  Name = 
REMARK  6 active torsions:
REMARK  status: ('A' for Active; 'I' for Inactive)
REMARK    1  A    between atoms: C_1  and  O_2
REMARK    2  A    between atoms: O_2  and  C_3
REMARK    3  A    between atoms: C_3  and  C_5
REMARK    4  A    between atoms: C_6  and  C_7
REMARK    5  A    between atoms: N_21  and  C_22
REMARK    6  A    between atoms: C_22  and  C_23
REMARK                            x       y       z     vdW  Elec       q    Type
REMARK                         _______ _______ _______ _____ _____    ______ ____
ROOT
ATOM      1  C   UNL     1       4.379   4.784  18.243  0.00  0.00    +0.000 A 
ATOM      2  C   UNL     1       3.224   5.316  18.740  0.00  0.00    +0.000 A 
ATOM      3  C   UNL     1       2.905   6.739  18.422  0.00  0.00    +0.000 A 
ATOM      4  C   UNL     1       1.750   7.375  18.912  0.00  0.00    +0.000 A 
ATOM      5  C   UNL     1       1.466   8.713  18.599  0.00  0.00    +0.000 A 
ATOM      6  C   UNL     1       2.337   9.442  17.800  0.00  0.00    +0.000 A 
ATOM      7  C   UNL     1       3.491   8.835  17.315  0.00  0.00    +0.000 A 
ATOM      8  C   UNL     1       3.768   7.493  17.629  0.00  0.00    +0.000 A 
ATOM      9  C   UNL     1       4.987   6.872  17.084  0.00  0.00    +0.000 A 
ATOM     10  O   UNL     1       5.732   7.560  16.389  0.00  0.00    +0.000 OA
ATOM     11  N   UNL     1       5.231   5.533  17.398  0.00  0.00    +0.000 N 
ENDROOT
BRANCH   2  12
ATOM     12  C   UNL     1       2.285   4.455  19.508  0.00  0.00    +0.000 A 
ATOM     13  C   UNL     1       2.402   4.292  20.896  0.00  0.00    +0.000 A 
ATOM     14  C   UNL     1       1.627   3.337  21.558  0.00  0.00    +0.000 A 
ATOM     15  C   UNL     1       0.702   2.572  20.846  0.00  0.00    +0.000 A 
ATOM     16  C   UNL     1       0.524   2.784  19.481  0.00  0.00    +0.000 A 
ATOM     17  C   UNL     1       1.311   3.724  18.813  0.00  0.00    +0.000 A 
ENDBRANCH   2  12
BRANCH   1  18
ATOM     18  C   UNL     1       4.765   3.380  18.681  0.00  0.00    +0.000 C 
ATOM     19  O   UNL     1       5.438   3.129  19.675  0.00  0.00    +0.000 OA
BRANCH  18  21
ATOM     20  C   UNL     1       3.799   1.272  18.443  0.00  0.00    +0.000 C 
ATOM     21  O   UNL     1       4.352   2.429  17.808  0.00  0.00    +0.000 OA
ENDBRANCH  18  21
ENDBRANCH   1  18
BRANCH  11  22
ATOM     22  C   UNL     1       6.438   4.967  16.778  0.00  0.00    +0.000 C 
BRANCH  22  23
ATOM     23  C   UNL     1       6.335   4.633  15.294  0.00  0.00    +0.000 A 
ATOM     24  C   UNL     1       5.252   3.946  14.720  0.00  0.00    +0.000 A 
ATOM     25  C   UNL     1       5.246   3.629  13.358  0.00  0.00    +0.000 A 
ATOM     26  C   UNL     1       6.314   4.014  12.545  0.00  0.00    +0.000 A 
ATOM     27  C   UNL     1       7.381   4.716  13.089  0.00  0.00    +0.000 A 
ATOM     28  C   UNL     1       7.388   5.029  14.450  0.00  0.00    +0.000 A 
ENDBRANCH  22  23
ENDBRANCH  11  22
TORSDOF 5
ENDMDL
MODEL 2
REMARK VINA RESULT:      -7.1      1.296      4.297
REMARK  Name = 
REMARK  6 active torsions:
REMARK  status: ('A' for Active; 'I' for Inactive)
REMARK    1  A    between atoms: C_1  and  O_2
REMARK    2  A    between atoms: O_2  and  C_3
REMARK    3  A    between atoms: C_3  and  C_5
REMARK    4  A    between atoms: C_6  and  C_7
REMARK    5  A    between atoms: N_21  and  C_22
REMARK    6  A    between atoms: C_22  and  C_23
REMARK                            x       y       z     vdW  Elec       q    Type
REMARK                         _______ _______ _______ _____ _____    ______ ____
ROOT
ATOM      1  C   UNL     1       4.451   5.525  17.293  0.00  0.00    +0.000 A 
ATOM      2  C   UNL     1       3.240   5.597  17.918  0.00  0.00    +0.000 A 
ATOM      3  C   UNL     1       2.530   4.324  18.238  0.00  0.00    +0.000 A 
ATOM      4  C   UNL     1       1.268   4.305  18.859  0.00  0.00    +0.000 A 
ATOM      5  C   UNL     1       0.618   3.097  19.154  0.00  0.00    +0.000 A 
ATOM      6  C   UNL     1       1.214   1.886  18.823  0.00  0.00    +0.000 A 
ATOM      7  C   UNL     1       2.457   1.884  18.198  0.00  0.00    +0.000 A 
ATOM      8  C   UNL     1       3.104   3.097  17.908  0.00  0.00    +0.000 A 
ATOM      9  C   UNL     1       4.428   3.061  17.265  0.00  0.00    +0.000 A 
ATOM     10  O   UNL     1       4.911   1.967  16.983  0.00  0.00    +0.000 OA
ATOM     11  N   UNL     1       5.057   4.281  17.002  0.00  0.00    +0.000 N 
ENDROOT
BRANCH   2  12
ATOM     12  C   UNL     1       2.700   6.921  18.334  0.00  0.00    +0.000 A 
ATOM     13  C   UNL     1       2.482   7.236  19.683  0.00  0.00    +0.000 A 
ATOM     14  C   UNL     1       1.804   8.408  20.027  0.00  0.00    +0.000 A 
ATOM     15  C   UNL     1       1.381   9.290  19.032  0.00  0.00    +0.000 A 
ATOM     16  C   UNL     1       1.665   9.021  17.695  0.00  0.00    +0.000 A 
ATOM     17  C   UNL     1       2.325   7.842  17.345  0.00  0.00    +0.000 A 
ENDBRANCH   2  12
BRANCH   1  18
ATOM     18  C   UNL     1       5.104   6.825  16.849  0.00  0.00    +0.000 C 
ATOM     19  O   UNL     1       5.007   7.295  15.720  0.00  0.00    +0.000 OA
BRANCH  18  21
ATOM     20  C   UNL     1       7.260   7.470  17.459  0.00  0.00    +0.000 C 
ATOM     21  O   UNL     1       5.877   7.377  17.816  0.00  0.00    +0.000 OA
ENDBRANCH  18  21
ENDBRANCH   1  18
BRANCH  11  22
ATOM     22  C   UNL     1       6.396   4.165  16.405  0.00  0.00    +0.000 C 
BRANCH  22  23
ATOM     23  C   UNL     1       6.457   4.210  14.883  0.00  0.00    +0.000 A 
ATOM     24  C   UNL     1       5.573   3.511  14.044  0.00  0.00    +0.000 A 
ATOM     25  C   UNL     1       5.717   3.559  12.654  0.00  0.00    +0.000 A 
ATOM     26  C   UNL     1       6.735   4.324  12.080  0.00  0.00    +0.000 A 
ATOM     27  C   UNL     1       7.602   5.042  12.893  0.00  0.00    +0.000 A 
ATOM     28  C   UNL     1       7.460   4.991  14.281  0.00  0.00    +0.000 A 
ENDBRANCH  22  23
ENDBRANCH  11  22
TORSDOF 5
ENDMDL
MODEL 3
REMARK VINA RESULT:      -6.7      6.560      9.967
REMARK  Name = 
REMARK  6 active torsions:
REMARK  status: ('A' for Active; 'I' for Inactive)
REMARK    1  A    between atoms: C_1  and  O_2
REMARK    2  A    between atoms: O_2  and  C_3
REMARK    3  A    between atoms: C_3  and  C_5
REMARK    4  A    between atoms: C_6  and  C_7
REMARK    5  A    between atoms: N_21  and  C_22
REMARK    6  A    between atoms: C_22  and  C_23
REMARK                            x       y       z     vdW  Elec       q    Type
REMARK                         _______ _______ _______ _____ _____    ______ ____
ROOT
ATOM      1  C   UNL     1      -1.248  12.390  20.201  0.00  0.00    +0.000 A 
ATOM      2  C   UNL     1      -2.558  12.591  20.526  0.00  0.00    +0.000 A 
ATOM      3  C   UNL     1      -3.604  12.139  19.563  0.00  0.00    +0.000 A 
ATOM      4  C   UNL     1      -4.977  12.326  19.806  0.00  0.00    +0.000 A 
ATOM      5  C   UNL     1      -5.946  11.891  18.889  0.00  0.00    +0.000 A 
ATOM      6  C   UNL     1      -5.559  11.270  17.708  0.00  0.00    +0.000 A 
ATOM      7  C   UNL     1      -4.205  11.085  17.444  0.00  0.00    +0.000 A 
ATOM      8  C   UNL     1      -3.240  11.520  18.368  0.00  0.00    +0.000 A 
ATOM      9  C   UNL     1      -1.816  11.291  18.070  0.00  0.00    +0.000 A 
ATOM     10  O   UNL     1      -1.522  10.746  17.009  0.00  0.00    +0.000 OA
ATOM     11  N   UNL     1      -0.878  11.719  19.013  0.00  0.00    +0.000 N 
ENDROOT
BRANCH   2  12
ATOM     12  C   UNL     1      -2.910  13.173  21.850  0.00  0.00    +0.000 A 
ATOM     13  C   UNL     1      -3.108  12.367  22.980  0.00  0.00    +0.000 A 
ATOM     14  C   UNL     1      -3.618  12.922  24.156  0.00  0.00    +0.000 A 
ATOM     15  C   UNL     1      -3.890  14.289  24.224  0.00  0.00    +0.000 A 
ATOM     16  C   UNL     1      -3.620  15.109  23.130  0.00  0.00    +0.000 A 
ATOM     17  C   UNL     1      -3.129  14.555  21.947  0.00  0.00    +0.000 A 
ENDBRANCH   2  12
BRANCH   1  18
ATOM     18  C   UNL     1      -0.186  12.974  21.121  0.00  0.00    +0.000 C 
ATOM     19  O   UNL     1       0.263  12.399  22.107  0.00  0.00    +0.000 OA
BRANCH  18  21
ATOM     20  C   UNL     1       0.576  15.037  21.893  0.00  0.00    +0.000 C 
ATOM     21  O   UNL     1       0.162  14.238  20.780  0.00  0.00    +0.000 OA
ENDBRANCH  18  21
ENDBRANCH   1  18
BRANCH  11  22
ATOM     22  C   UNL     1       0.519  11.413  18.670  0.00  0.00    +0.000 C 
BRANCH  22  23
ATOM     23  C   UNL     1       1.020  10.031  19.074  0.00  0.00    +0.000 A 
ATOM     24  C   UNL     1       0.824   9.468  20.346  0.00  0.00    +0.000 A 
ATOM     25  C   UNL     1       1.353   8.213  20.664  0.00  0.00    +0.000 A 
ATOM     26  C   UNL     1       2.068   7.492  19.706  0.00  0.00    +0.000 A 
ATOM     27  C   UNL     1       2.250   8.020  18.435  0.00  0.00    +0.000 A 
ATOM     28  C   UNL     1       1.724   9.275  18.119  0.00  0.00    +0.000 A 
ENDBRANCH  22  23
ENDBRANCH  11  22
TORSDOF 5
ENDMDL
MODEL 4
REMARK VINA RESULT:      -6.7      0.586      1.238
REMARK  Name = 
REMARK  6 active torsions:
REMARK  status: ('A' for Active; 'I' for Inactive)
REMARK    1  A    between atoms: C_1  and  O_2
REMARK    2  A    between atoms: O_2  and  C_3
REMARK    3  A    between atoms: C_3  and  C_5
REMARK    4  A    between atoms: C_6  and  C_7
REMARK    5  A    between atoms: N_21  and  C_22
REMARK    6  A    between atoms: C_22  and  C_23
REMARK                            x       y       z     vdW  Elec       q    Type
REMARK                         _______ _______ _______ _____ _____    ______ ____
ROOT
ATOM      1  C   UNL     1       4.479   4.572  17.928  0.00  0.00    +0.000 A 
ATOM      2  C   UNL     1       3.301   5.073  18.403  0.00  0.00    +0.000 A 
ATOM      3  C   UNL     1       3.010   6.521  18.192  0.00  0.00    +0.000 A 
ATOM      4  C   UNL     1       1.833   7.126  18.668  0.00  0.00    +0.000 A 
ATOM      5  C   UNL     1       1.576   8.489  18.457  0.00  0.00    +0.000 A 
ATOM      6  C   UNL     1       2.496   9.274  17.775  0.00  0.00    +0.000 A 
ATOM      7  C   UNL     1       3.673   8.697  17.305  0.00  0.00    +0.000 A 
ATOM      8  C   UNL     1       3.922   7.331  17.517  0.00  0.00    +0.000 A 
ATOM      9  C   UNL     1       5.166   6.745  16.990  0.00  0.00    +0.000 A 
ATOM     10  O   UNL     1       5.954   7.481  16.400  0.00  0.00    +0.000 OA
ATOM     11  N   UNL     1       5.383   5.381  17.201  0.00  0.00    +0.000 N 
ENDROOT
BRANCH   2  12
ATOM     12  C   UNL     1       2.313   4.159  19.040  0.00  0.00    +0.000 A 
ATOM     13  C   UNL     1       1.450   3.361  18.275  0.00  0.00    +0.000 A 
ATOM     14  C   UNL     1       0.413   2.659  18.895  0.00  0.00    +0.000 A 
ATOM     15  C   UNL     1       0.261   2.715  20.280  0.00  0.00    +0.000 A 
ATOM     16  C   UNL     1       1.164   3.442  21.053  0.00  0.00    +0.000 A 
ATOM     17  C   UNL     1       2.189   4.161  20.436  0.00  0.00    +0.000 A 
ENDBRANCH   2  12
BRANCH   1  18
ATOM     18  C   UNL     1       4.830   3.131  18.264  0.00  0.00    +0.000 C 
ATOM     19  O   UNL     1       4.587   2.175  17.536  0.00  0.00    +0.000 OA
BRANCH  18  21
ATOM     20  C   UNL     1       4.849   1.901  20.244  0.00  0.00    +0.000 C 
ATOM     21  O   UNL     1       5.376   3.002  19.498  0.00  0.00    +0.000 OA
ENDBRANCH  18  21
ENDBRANCH   1  18
BRANCH  11  22
ATOM     22  C   UNL     1       6.620   4.857  16.603  0.00  0.00    +0.000 C 
BRANCH  22  23
ATOM     23  C   UNL     1       6.579   4.590  15.103  0.00  0.00    +0.000 A 
ATOM     24  C   UNL     1       5.626   3.767  14.480  0.00  0.00    +0.000 A 
ATOM     25  C   UNL     1       5.677   3.527  13.103  0.00  0.00    +0.000 A 
ATOM     26  C   UNL     1       6.669   4.125  12.324  0.00  0.00    +0.000 A 
ATOM     27  C   UNL     1       7.604   4.963  12.918  0.00  0.00    +0.000 A 
ATOM     28  C   UNL     1       7.555   5.199  14.293  0.00  0.00    +0.000 A 
ENDBRANCH  22  23
ENDBRANCH  11  22
TORSDOF 5
ENDMDL
MODEL 5
REMARK VINA RESULT:      -6.7      5.762      9.341
REMARK  Name = 
REMARK  6 active torsions:
REMARK  status: ('A' for Active; 'I' for Inactive)
REMARK    1  A    between atoms: C_1  and  O_2
REMARK    2  A    between atoms: O_2  and  C_3
REMARK    3  A    between atoms: C_3  and  C_5
REMARK    4  A    between atoms: C_6  and  C_7
REMARK    5  A    between atoms: N_21  and  C_22
REMARK    6  A    between atoms: C_22  and  C_23
REMARK                            x       y       z     vdW  Elec       q    Type
REMARK                         _______ _______ _______ _____ _____    ______ ____
ROOT
ATOM      1  C   UNL     1      -0.255  12.039  19.639  0.00  0.00    +0.000 A 
ATOM      2  C   UNL     1      -1.442  12.534  20.096  0.00  0.00    +0.000 A 
ATOM      3  C   UNL     1      -2.702  12.063  19.452  0.00  0.00    +0.000 A 
ATOM      4  C   UNL     1      -3.967  12.538  19.844  0.00  0.00    +0.000 A 
ATOM      5  C   UNL     1      -5.141  12.080  19.227  0.00  0.00    +0.000 A 
ATOM      6  C   UNL     1      -5.072  11.147  18.201  0.00  0.00    +0.000 A 
ATOM      7  C   UNL     1      -3.829  10.673  17.791  0.00  0.00    +0.000 A 
ATOM      8  C   UNL     1      -2.657  11.133  18.415  0.00  0.00    +0.000 A 
ATOM      9  C   UNL     1      -1.358  10.597  17.973  0.00  0.00    +0.000 A 
ATOM     10  O   UNL     1      -1.346   9.780  17.055  0.00  0.00    +0.000 OA
ATOM     11  N   UNL     1      -0.209  11.059  18.620  0.00  0.00    +0.000 N 
ENDROOT
BRANCH   2  12
ATOM     12  C   UNL     1      -1.456  13.457  21.264  0.00  0.00    +0.000 A 
ATOM     13  C   UNL     1      -1.501  12.977  22.581  0.00  0.00    +0.000 A 
ATOM     14  C   UNL     1      -1.701  13.863  23.643  0.00  0.00    +0.000 A 
ATOM     15  C   UNL     1      -1.813  15.233  23.400  0.00  0.00    +0.000 A 
ATOM     16  C   UNL     1      -1.689  15.723  22.102  0.00  0.00    +0.000 A 
ATOM     17  C   UNL     1      -1.509  14.840  21.036  0.00  0.00    +0.000 A 
ENDBRANCH   2  12
BRANCH   1  18
ATOM     18  C   UNL     1       1.030  12.623  20.206  0.00  0.00    +0.000 C 
ATOM     19  O   UNL     1       1.584  12.213  21.220  0.00  0.00    +0.000 OA
BRANCH  18  21
ATOM     20  C   UNL     1       2.841  14.012  19.734  0.00  0.00    +0.000 C 
ATOM     21  O   UNL     1       1.462  13.704  19.512  0.00  0.00    +0.000 OA
ENDBRANCH  18  21
ENDBRANCH   1  18
BRANCH  11  22
ATOM     22  C   UNL     1       1.044  10.443  18.160  0.00  0.00    +0.000 C 
BRANCH  22  23
ATOM     23  C   UNL     1       1.433   9.133  18.835  0.00  0.00    +0.000 A 
ATOM     24  C   UNL     1       1.168   8.838  20.182  0.00  0.00    +0.000 A 
ATOM     25  C   UNL     1       1.598   7.635  20.750  0.00  0.00    +0.000 A 
ATOM     26  C   UNL     1       2.281   6.697  19.972  0.00  0.00    +0.000 A 
ATOM     27  C   UNL     1       2.529   6.961  18.632  0.00  0.00    +0.000 A 
ATOM     28  C   UNL     1       2.103   8.164  18.066  0.00  0.00    +0.000 A 
ENDBRANCH  22  23
ENDBRANCH  11  22
TORSDOF 5
ENDMDL
MODEL 6
REMARK VINA RESULT:      -6.6      5.703      9.352
REMARK  Name = 
REMARK  6 active torsions:
REMARK  status: ('A' for Active; 'I' for Inactive)
REMARK    1  A    between atoms: C_1  and  O_2
REMARK    2  A    between atoms: O_2  and  C_3
REMARK    3  A    between atoms: C_3  and  C_5
REMARK    4  A    between atoms: C_6  and  C_7
REMARK    5  A    between atoms: N_21  and  C_22
REMARK    6  A    between atoms: C_22  and  C_23
REMARK                            x       y       z     vdW  Elec       q    Type
REMARK                         _______ _______ _______ _____ _____    ______ ____
ROOT
ATOM      1  C   UNL     1      -0.276  12.034  19.594  0.00  0.00    +0.000 A 
ATOM      2  C   UNL     1      -1.484  12.504  20.020  0.00  0.00    +0.000 A 
ATOM      3  C   UNL     1      -2.719  11.982  19.363  0.00  0.00    +0.000 A 
ATOM      4  C   UNL     1      -4.003  12.428  19.722  0.00  0.00    +0.000 A 
ATOM      5  C   UNL     1      -5.153  11.923  19.094  0.00  0.00    +0.000 A 
ATOM      6  C   UNL     1      -5.037  10.971  18.090  0.00  0.00    +0.000 A 
ATOM      7  C   UNL     1      -3.774  10.525  17.713  0.00  0.00    +0.000 A 
ATOM      8  C   UNL     1      -2.627  11.032  18.347  0.00  0.00    +0.000 A 
ATOM      9  C   UNL     1      -1.306  10.525  17.941  0.00  0.00    +0.000 A 
ATOM     10  O   UNL     1      -1.253   9.690  17.041  0.00  0.00    +0.000 OA
ATOM     11  N   UNL     1      -0.183  11.034  18.598  0.00  0.00    +0.000 N 
ENDROOT
BRANCH   2  12
ATOM     12  C   UNL     1      -1.547  13.451  21.167  0.00  0.00    +0.000 A 
ATOM     13  C   UNL     1      -1.517  14.840  20.977  0.00  0.00    +0.000 A 
ATOM     14  C   UNL     1      -1.389  15.694  22.075  0.00  0.00    +0.000 A 
ATOM     15  C   UNL     1      -1.334  15.170  23.367  0.00  0.00    +0.000 A 
ATOM     16  C   UNL     1      -1.444  13.795  23.567  0.00  0.00    +0.000 A 
ATOM     17  C   UNL     1      -1.552  12.937  22.472  0.00  0.00    +0.000 A 
ENDBRANCH   2  12
BRANCH   1  18
ATOM     18  C   UNL     1       0.981  12.667  20.172  0.00  0.00    +0.000 C 
ATOM     19  O   UNL     1       1.528  12.296  21.205  0.00  0.00    +0.000 OA
BRANCH  18  21
ATOM     20  C   UNL     1       2.814  13.809  19.296  0.00  0.00    +0.000 C 
ATOM     21  O   UNL     1       1.395  13.745  19.462  0.00  0.00    +0.000 OA
ENDBRANCH  18  21
ENDBRANCH   1  18
BRANCH  11  22
ATOM     22  C   UNL     1       1.096  10.446  18.174  0.00  0.00    +0.000 C 
BRANCH  22  23
ATOM     23  C   UNL     1       1.486   9.135  18.847  0.00  0.00    +0.000 A 
ATOM     24  C   UNL     1       2.178   8.098  18.199  0.00  0.00    +0.000 A 
ATOM     25  C   UNL     1       2.461   6.901  18.864  0.00  0.00    +0.000 A 
ATOM     26  C   UNL     1       2.075   6.730  20.195  0.00  0.00    +0.000 A 
ATOM     27  C   UNL     1       1.414   7.754  20.860  0.00  0.00    +0.000 A 
ATOM     28  C   UNL     1       1.128   8.948  20.195  0.00  0.00    +0.000 A 
ENDBRANCH  22  23
ENDBRANCH  11  22
TORSDOF 5
ENDMDL
MODEL 7
REMARK VINA RESULT:      -6.5      6.758     10.189
REMARK  Name = 
REMARK  6 active torsions:
REMARK  status: ('A' for Active; 'I' for Inactive)
REMARK    1  A    between atoms: C_1  and  O_2
REMARK    2  A    between atoms: O_2  and  C_3
REMARK    3  A    between atoms: C_3  and  C_5
REMARK    4  A    between atoms: C_6  and  C_7
REMARK    5  A    between atoms: N_21  and  C_22
REMARK    6  A    between atoms: C_22  and  C_23
REMARK                            x       y       z     vdW  Elec       q    Type
REMARK                         _______ _______ _______ _____ _____    ______ ____
ROOT
ATOM      1  C   UNL     1      -1.565  12.585  20.259  0.00  0.00    +0.000 A 
ATOM      2  C   UNL     1      -2.879  12.728  20.600  0.00  0.00    +0.000 A 
ATOM      3  C   UNL     1      -3.917  12.228  19.652  0.00  0.00    +0.000 A 
ATOM      4  C   UNL     1      -5.293  12.355  19.911  0.00  0.00    +0.000 A 
ATOM      5  C   UNL     1      -6.253  11.875  19.007  0.00  0.00    +0.000 A 
ATOM      6  C   UNL     1      -5.854  11.269  17.823  0.00  0.00    +0.000 A 
ATOM      7  C   UNL     1      -4.497  11.144  17.542  0.00  0.00    +0.000 A 
ATOM      8  C   UNL     1      -3.540  11.624  18.453  0.00  0.00    +0.000 A 
ATOM      9  C   UNL     1      -2.111  11.458  18.138  0.00  0.00    +0.000 A 
ATOM     10  O   UNL     1      -1.807  10.924  17.074  0.00  0.00    +0.000 OA
ATOM     11  N   UNL     1      -1.181  11.929  19.067  0.00  0.00    +0.000 N 
ENDROOT
BRANCH   2  12
ATOM     12  C   UNL     1      -3.241  13.297  21.928  0.00  0.00    +0.000 A 
ATOM     13  C   UNL     1      -3.386  14.679  22.121  0.00  0.00    +0.000 A 
ATOM     14  C   UNL     1      -3.540  15.193  23.411  0.00  0.00    +0.000 A 
ATOM     15  C   UNL     1      -3.594  14.330  24.506  0.00  0.00    +0.000 A 
ATOM     16  C   UNL     1      -3.530  12.952  24.312  0.00  0.00    +0.000 A 
ATOM     17  C   UNL     1      -3.356  12.435  23.027  0.00  0.00    +0.000 A 
ENDBRANCH   2  12
BRANCH   1  18
ATOM     18  C   UNL     1      -0.519  13.218  21.165  0.00  0.00    +0.000 C 
ATOM     19  O   UNL     1      -0.020  12.659  22.136  0.00  0.00    +0.000 OA
BRANCH  18  21
ATOM     20  C   UNL     1       1.142  14.757  20.613  0.00  0.00    +0.000 C 
ATOM     21  O   UNL     1      -0.249  14.503  20.831  0.00  0.00    +0.000 OA
ENDBRANCH  18  21
ENDBRANCH   1  18
BRANCH  11  22
ATOM     22  C   UNL     1       0.224  11.684  18.708  0.00  0.00    +0.000 C 
BRANCH  22  23
ATOM     23  C   UNL     1       0.782  10.316  19.081  0.00  0.00    +0.000 A 
ATOM     24  C   UNL     1       0.623   9.724  20.346  0.00  0.00    +0.000 A 
ATOM     25  C   UNL     1       1.204   8.486  20.635  0.00  0.00    +0.000 A 
ATOM     26  C   UNL     1       1.935   7.809  19.657  0.00  0.00    +0.000 A 
ATOM     27  C   UNL     1       2.081   8.366  18.393  0.00  0.00    +0.000 A 
ATOM     28  C   UNL     1       1.503   9.604  18.106  0.00  0.00    +0.000 A 
ENDBRANCH  22  23
ENDBRANCH  11  22
TORSDOF 5
ENDMDL
MODEL 8
REMARK VINA RESULT:      -6.4      1.757      2.849
REMARK  Name = 
REMARK  6 active torsions:
REMARK  status: ('A' for Active; 'I' for Inactive)
REMARK    1  A    between atoms: C_1  and  O_2
REMARK    2  A    between atoms: O_2  and  C_3
REMARK    3  A    between atoms: C_3  and  C_5
REMARK    4  A    between atoms: C_6  and  C_7
REMARK    5  A    between atoms: N_21  and  C_22
REMARK    6  A    between atoms: C_22  and  C_23
REMARK                            x       y       z     vdW  Elec       q    Type
REMARK                         _______ _______ _______ _____ _____    ______ ____
ROOT
ATOM      1  C   UNL     1       2.772   6.174  18.514  0.00  0.00    +0.000 A 
ATOM      2  C   UNL     1       2.049   6.201  19.672  0.00  0.00    +0.000 A 
ATOM      3  C   UNL     1       1.507   7.511  20.138  0.00  0.00    +0.000 A 
ATOM      4  C   UNL     1       0.773   7.636  21.331  0.00  0.00    +0.000 A 
ATOM      5  C   UNL     1       0.269   8.876  21.751  0.00  0.00    +0.000 A 
ATOM      6  C   UNL     1       0.499  10.016  20.992  0.00  0.00    +0.000 A 
ATOM      7  C   UNL     1       1.234   9.915  19.814  0.00  0.00    +0.000 A 
ATOM      8  C   UNL     1       1.733   8.669  19.397  0.00  0.00    +0.000 A 
ATOM      9  C   UNL     1       2.488   8.592  18.135  0.00  0.00    +0.000 A 
ATOM     10  O   UNL     1       2.675   9.628  17.502  0.00  0.00    +0.000 OA
ATOM     11  N   UNL     1       2.960   7.339  17.735  0.00  0.00    +0.000 N 
ENDROOT
BRANCH   2  12
ATOM     12  C   UNL     1       1.754   4.930  20.389  0.00  0.00    +0.000 A 
ATOM     13  C   UNL     1       2.478   4.541  21.525  0.00  0.00    +0.000 A 
ATOM     14  C   UNL     1       2.305   3.263  22.062  0.00  0.00    +0.000 A 
ATOM     15  C   UNL     1       1.378   2.386  21.496  0.00  0.00    +0.000 A 
ATOM     16  C   UNL     1       0.599   2.797  20.417  0.00  0.00    +0.000 A 
ATOM     17  C   UNL     1       0.783   4.065  19.865  0.00  0.00    +0.000 A 
ENDBRANCH   2  12
BRANCH   1  18
ATOM     18  C   UNL     1       3.435   4.864  18.117  0.00  0.00    +0.000 C 
ATOM     19  O   UNL     1       2.975   4.082  17.291  0.00  0.00    +0.000 OA
BRANCH  18  21
ATOM     20  C   UNL     1       4.753   3.220  19.112  0.00  0.00    +0.000 C 
ATOM     21  O   UNL     1       4.557   4.609  18.832  0.00  0.00    +0.000 OA
ENDBRANCH  18  21
ENDBRANCH   1  18
BRANCH  11  22
ATOM     22  C   UNL     1       3.661   7.331  16.443  0.00  0.00    +0.000 C 
BRANCH  22  23
ATOM     23  C   UNL     1       5.059   6.724  16.443  0.00  0.00    +0.000 A 
ATOM     24  C   UNL     1       5.463   5.690  15.582  0.00  0.00    +0.000 A 
ATOM     25  C   UNL     1       6.748   5.146  15.669  0.00  0.00    +0.000 A 
ATOM     26  C   UNL     1       7.658   5.644  16.605  0.00  0.00    +0.000 A 
ATOM     27  C   UNL     1       7.285   6.683  17.447  0.00  0.00    +0.000 A 
ATOM     28  C   UNL     1       6.000   7.223  17.362  0.00  0.00    +0.000 A 
ENDBRANCH  22  23
ENDBRANCH  11  22
TORSDOF 5
ENDMDL
MODEL 9
REMARK VINA RESULT:      -6.4      8.697     12.226
REMARK  Name = 
REMARK  6 active torsions:
REMARK  status: ('A' for Active; 'I' for Inactive)
REMARK    1  A    between atoms: C_1  and  O_2
REMARK    2  A    between atoms: O_2  and  C_3
REMARK    3  A    between atoms: C_3  and  C_5
REMARK    4  A    between atoms: C_6  and  C_7
REMARK    5  A    between atoms: N_21  and  C_22
REMARK    6  A    between atoms: C_22  and  C_23
REMARK                            x       y       z     vdW  Elec       q    Type
REMARK                         _______ _______ _______ _____ _____    ______ ____
ROOT
ATOM      1  C   UNL     1      -3.524  13.325  21.657  0.00  0.00    +0.000 A 
ATOM      2  C   UNL     1      -4.863  13.216  21.413  0.00  0.00    +0.000 A 
ATOM      3  C   UNL     1      -5.301  12.595  20.129  0.00  0.00    +0.000 A 
ATOM      4  C   UNL     1      -6.659  12.465  19.785  0.00  0.00    +0.000 A 
ATOM      5  C   UNL     1      -7.051  11.875  18.574  0.00  0.00    +0.000 A 
ATOM      6  C   UNL     1      -6.093  11.414  17.681  0.00  0.00    +0.000 A 
ATOM      7  C   UNL     1      -4.744  11.545  17.997  0.00  0.00    +0.000 A 
ATOM      8  C   UNL     1      -4.357  12.133  19.214  0.00  0.00    +0.000 A 
ATOM      9  C   UNL     1      -2.923  12.237  19.530  0.00  0.00    +0.000 A 
ATOM     10  O   UNL     1      -2.112  11.824  18.704  0.00  0.00    +0.000 OA
ATOM     11  N   UNL     1      -2.567  12.813  20.752  0.00  0.00    +0.000 N 
ENDROOT
BRANCH   2  12
ATOM     12  C   UNL     1      -5.840  13.640  22.453  0.00  0.00    +0.000 A 
ATOM     13  C   UNL     1      -6.321  12.744  23.420  0.00  0.00    +0.000 A 
ATOM     14  C   UNL     1      -7.372  13.119  24.261  0.00  0.00    +0.000 A 
ATOM     15  C   UNL     1      -7.917  14.400  24.171  0.00  0.00    +0.000 A 
ATOM     16  C   UNL     1      -7.390  15.321  23.267  0.00  0.00    +0.000 A 
ATOM     17  C   UNL     1      -6.354  14.944  22.412  0.00  0.00    +0.000 A 
ENDBRANCH   2  12
BRANCH   1  18
ATOM     18  C   UNL     1      -3.084  14.080  22.903  0.00  0.00    +0.000 C 
ATOM     19  O   UNL     1      -2.967  13.570  24.012  0.00  0.00    +0.000 OA
BRANCH  18  21
ATOM     20  C   UNL     1      -1.659  15.906  23.162  0.00  0.00    +0.000 C 
ATOM     21  O   UNL     1      -2.907  15.404  22.674  0.00  0.00    +0.000 OA
ENDBRANCH  18  21
ENDBRANCH   1  18
BRANCH  11  22
ATOM     22  C   UNL     1      -1.121  12.838  21.020  0.00  0.00    +0.000 C 
BRANCH  22  23
ATOM     23  C   UNL     1      -0.506  11.527  21.498  0.00  0.00    +0.000 A 
ATOM     24  C   UNL     1       0.433  10.788  20.758  0.00  0.00    +0.000 A 
ATOM     25  C   UNL     1       0.920   9.567  21.236  0.00  0.00    +0.000 A 
ATOM     26  C   UNL     1       0.493   9.078  22.472  0.00  0.00    +0.000 A 
ATOM     27  C   UNL     1      -0.414   9.808  23.229  0.00  0.00    +0.000 A 
ATOM     28  C   UNL     1      -0.903  11.024  22.750  0.00  0.00    +0.000 A 
ENDBRANCH  22  23
ENDBRANCH  11  22
TORSDOF 5
ENDMDL
