MODEL 1
REMARK VINA RESULT:      -6.8      0.000      0.000
REMARK  Name = 
REMARK  12 active torsions:
REMARK  status: ('A' for Active; 'I' for Inactive)
REMARK    1  A    between atoms: C_1  and  C_2
REMARK    2  A    between atoms: C_2  and  C_3
REMARK    3  A    between atoms: C_2  and  N_10
REMARK    4  A    between atoms: N_10  and  C_13
REMARK    5  A    between atoms: C_13  and  C_14
REMARK    6  A    between atoms: C_13  and  C_21
REMARK    7  A    between atoms: N_16  and  C_17
REMARK    8  A    between atoms: C_17  and  C_18
REMARK    9  A    between atoms: C_17  and  C_19
REMARK   10  A    between atoms: C_17  and  C_20
REMARK   11  A    between atoms: CA_22  and  C_23
REMARK   12  A    between atoms: C_23  and  OXT_25
REMARK                            x       y       z     vdW  Elec       q    Type
REMARK                         _______ _______ _______ _____ _____    ______ ____
ROOT
ATOM      1  C   UNL     1      -1.353  13.062  19.733  0.00  0.00    +0.000 C 
ENDROOT
BRANCH   1   2
ATOM      2  C   UNL     1      -1.662  13.987  20.971  0.00  0.00    +0.000 A 
ATOM      3  CA  UNL     1      -2.148  15.243  20.569  0.00  0.00    +0.000 A 
ATOM      4  N   UNL     1      -3.527  14.942  20.604  0.00  0.00    +0.000 N 
ATOM      5  C   UNL     1      -3.641  14.766  21.980  0.00  0.00    +0.000 A 
ATOM      6  C   UNL     1      -4.412  15.535  22.867  0.00  0.00    +0.000 A 
ATOM      7  C   UNL     1      -3.930  15.640  24.161  0.00  0.00    +0.000 A 
ATOM      8 CL   UNL     1      -4.524  16.919  25.161  0.00  0.00    +0.000 Cl
ATOM      9  C   UNL     1      -2.867  14.840  24.580  0.00  0.00    +0.000 A 
ATOM     10  C   UNL     1      -2.173  13.973  23.671  0.00  0.00    +0.000 A 
ATOM     11  C   UNL     1      -2.506  13.961  22.267  0.00  0.00    +0.000 A 
ATOM     12  H   UNL     1      -3.910  14.207  20.028  0.00  0.00    +0.000 HD
BRANCH   3  13
ATOM     13  C   UNL     1      -1.577  16.517  20.897  0.00  0.00    +0.000 C 
ATOM     14  O   UNL     1      -2.105  17.610  20.764  0.00  0.00    +0.000 OA
BRANCH  13  15
ATOM     15  OXT UNL     1      -0.266  16.349  21.142  0.00  0.00    +0.000 OA
ATOM     16  HXT UNL     1       0.043  15.820  20.373  0.00  0.00    +0.000 HD
ENDBRANCH  13  15
ENDBRANCH   3  13
ENDBRANCH   1   2
BRANCH   1  17
ATOM     17  C   UNL     1      -2.423  12.110  19.120  0.00  0.00    +0.000 C 
ATOM     18  O   UNL     1      -3.497  11.947  19.706  0.00  0.00    +0.000 OA
ATOM     19  N   UNL     1      -2.228  11.641  17.836  0.00  0.00    +0.000 N 
ATOM     20  H   UNL     1      -1.292  11.690  17.456  0.00  0.00    +0.000 HD
BRANCH  19  21
ATOM     21  C   UNL     1      -3.250  10.937  17.013  0.00  0.00    +0.000 C 
ATOM     22  C   UNL     1      -4.588  11.704  16.922  0.00  0.00    +0.000 C 
ATOM     23  C   UNL     1      -2.698  10.812  15.579  0.00  0.00    +0.000 C 
ATOM     24  C   UNL     1      -3.527   9.525  17.555  0.00  0.00    +0.000 C 
ENDBRANCH  19  21
ENDBRANCH   1  17
BRANCH   1  25
ATOM     25  N   UNL     1      -0.114  12.193  20.073  0.00  0.00    +0.000 N 
ATOM     26  C   UNL     1       1.016  12.879  20.520  0.00  0.00    +0.000 C 
ATOM     27  O   UNL     1       1.951  12.417  21.166  0.00  0.00    +0.000 OA
BRANCH  25  29
ATOM     28  C   UNL     1      -0.365  10.570  21.957  0.00  0.00    +0.000 C 
ATOM     29  C   UNL     1      -0.283  10.735  20.429  0.00  0.00    +0.000 C 
BRANCH  29  30
ATOM     30  C   UNL     1       0.753   9.684  19.899  0.00  0.00    +0.000 A 
ATOM     31  C   UNL     1       1.272   8.619  20.648  0.00  0.00    +0.000 A 
ATOM     32  C   UNL     1       2.020   7.590  20.039  0.00  0.00    +0.000 A 
ATOM     33  C   UNL     1       2.296   7.622  18.675  0.00  0.00    +0.000 A 
ATOM     34 CL   UNL     1       3.123   6.311  17.922  0.00  0.00    +0.000 Cl
ATOM     35  C   UNL     1       1.872   8.705  17.914  0.00  0.00    +0.000 A 
ATOM     36  C   UNL     1       1.131   9.718  18.533  0.00  0.00    +0.000 A 
ENDBRANCH  29  30
ENDBRANCH  25  29
ENDBRANCH   1  25
TORSDOF 8
ENDMDL
MODEL 2
REMARK VINA RESULT:      -6.7      0.264      1.145
REMARK  Name = 
REMARK  12 active torsions:
REMARK  status: ('A' for Active; 'I' for Inactive)
REMARK    1  A    between atoms: C_1  and  C_2
REMARK    2  A    between atoms: C_2  and  C_3
REMARK    3  A    between atoms: C_2  and  N_10
REMARK    4  A    between atoms: N_10  and  C_13
REMARK    5  A    between atoms: C_13  and  C_14
REMARK    6  A    between atoms: C_13  and  C_21
REMARK    7  A    between atoms: N_16  and  C_17
REMARK    8  A    between atoms: C_17  and  C_18
REMARK    9  A    between atoms: C_17  and  C_19
REMARK   10  A    between atoms: C_17  and  C_20
REMARK   11  A    between atoms: CA_22  and  C_23
REMARK   12  A    between atoms: C_23  and  OXT_25
REMARK                            x       y       z     vdW  Elec       q    Type
REMARK                         _______ _______ _______ _____ _____    ______ ____
ROOT
ATOM      1  C   UNL     1      -1.466  13.197  19.777  0.00  0.00    +0.000 C 
ENDROOT
BRANCH   1   2
ATOM      2  C   UNL     1      -1.795  14.089  21.034  0.00  0.00    +0.000 A 
ATOM      3  CA  UNL     1      -2.175  15.390  20.658  0.00  0.00    +0.000 A 
ATOM      4  N   UNL     1      -3.569  15.178  20.595  0.00  0.00    +0.000 N 
ATOM      5  C   UNL     1      -3.782  14.954  21.952  0.00  0.00    +0.000 A 
ATOM      6  C   UNL     1      -4.559  15.735  22.824  0.00  0.00    +0.000 A 
ATOM      7  C   UNL     1      -4.156  15.756  24.149  0.00  0.00    +0.000 A 
ATOM      8 CL   UNL     1      -4.731  17.030  25.166  0.00  0.00    +0.000 Cl
ATOM      9  C   UNL     1      -3.173  14.873  24.596  0.00  0.00    +0.000 A 
ATOM     10  C   UNL     1      -2.478  13.999  23.694  0.00  0.00    +0.000 A 
ATOM     11  C   UNL     1      -2.720  14.066  22.273  0.00  0.00    +0.000 A 
ATOM     12  H   UNL     1      -3.960  14.493  19.964  0.00  0.00    +0.000 HD
BRANCH   3  13
ATOM     13  C   UNL     1      -1.548  16.610  21.077  0.00  0.00    +0.000 C 
ATOM     14  O   UNL     1      -2.005  17.737  20.977  0.00  0.00    +0.000 OA
BRANCH  13  15
ATOM     15  OXT UNL     1      -0.262  16.351  21.372  0.00  0.00    +0.000 OA
ATOM     16  HXT UNL     1       0.230  16.760  20.625  0.00  0.00    +0.000 HD
ENDBRANCH  13  15
ENDBRANCH   3  13
ENDBRANCH   1   2
BRANCH   1  17
ATOM     17  C   UNL     1      -2.518  12.244  19.136  0.00  0.00    +0.000 C 
ATOM     18  O   UNL     1      -3.607  12.080  19.694  0.00  0.00    +0.000 OA
ATOM     19  N   UNL     1      -2.290  11.776  17.857  0.00  0.00    +0.000 N 
ATOM     20  H   UNL     1      -1.344  11.827  17.501  0.00  0.00    +0.000 HD
BRANCH  19  21
ATOM     21  C   UNL     1      -3.290  11.071  17.007  0.00  0.00    +0.000 C 
ATOM     22  C   UNL     1      -2.841  10.929  15.536  0.00  0.00    +0.000 C 
ATOM     23  C   UNL     1      -3.470   9.648  17.570  0.00  0.00    +0.000 C 
ATOM     24  C   UNL     1      -4.651  11.786  17.040  0.00  0.00    +0.000 C 
ENDBRANCH  19  21
ENDBRANCH   1  17
BRANCH   1  25
ATOM     25  N   UNL     1      -0.217  12.338  20.105  0.00  0.00    +0.000 N 
ATOM     26  C   UNL     1       0.928  13.036  20.492  0.00  0.00    +0.000 C 
ATOM     27  O   UNL     1       1.883  12.595  21.122  0.00  0.00    +0.000 OA
BRANCH  25  29
ATOM     28  C   UNL     1      -0.100  10.737  22.021  0.00  0.00    +0.000 C 
ATOM     29  C   UNL     1      -0.375  10.892  20.515  0.00  0.00    +0.000 C 
BRANCH  29  30
ATOM     30  C   UNL     1       0.447   9.783  19.772  0.00  0.00    +0.000 A 
ATOM     31  C   UNL     1       0.757   9.794  18.404  0.00  0.00    +0.000 A 
ATOM     32  C   UNL     1       1.685   8.885  17.855  0.00  0.00    +0.000 A 
ATOM     33  C   UNL     1       2.298   7.923  18.655  0.00  0.00    +0.000 A 
ATOM     34 CL   UNL     1       3.506   6.885  17.998  0.00  0.00    +0.000 Cl
ATOM     35  C   UNL     1       1.953   7.826  19.998  0.00  0.00    +0.000 A 
ATOM     36  C   UNL     1       1.031   8.735  20.527  0.00  0.00    +0.000 A 
ENDBRANCH  29  30
ENDBRANCH  25  29
ENDBRANCH   1  25
TORSDOF 8
ENDMDL
MODEL 3
REMARK VINA RESULT:      -6.7      2.586      7.330
REMARK  Name = 
REMARK  12 active torsions:
REMARK  status: ('A' for Active; 'I' for Inactive)
REMARK    1  A    between atoms: C_1  and  C_2
REMARK    2  A    between atoms: C_2  and  C_3
REMARK    3  A    between atoms: C_2  and  N_10
REMARK    4  A    between atoms: N_10  and  C_13
REMARK    5  A    between atoms: C_13  and  C_14
REMARK    6  A    between atoms: C_13  and  C_21
REMARK    7  A    between atoms: N_16  and  C_17
REMARK    8  A    between atoms: C_17  and  C_18
REMARK    9  A    between atoms: C_17  and  C_19
REMARK   10  A    between atoms: C_17  and  C_20
REMARK   11  A    between atoms: CA_22  and  C_23
REMARK   12  A    between atoms: C_23  and  OXT_25
REMARK                            x       y       z     vdW  Elec       q    Type
REMARK                         _______ _______ _______ _____ _____    ______ ____
ROOT
ATOM      1  C   UNL     1      -1.828  13.660  20.427  0.00  0.00    +0.000 C 
ENDROOT
BRANCH   1   2
ATOM      2  C   UNL     1      -1.287  12.263  19.939  0.00  0.00    +0.000 A 
ATOM      3  CA  UNL     1      -1.295  12.167  18.536  0.00  0.00    +0.000 A 
ATOM      4  N   UNL     1       0.021  12.622  18.300  0.00  0.00    +0.000 N 
ATOM      5  C   UNL     1       0.692  11.551  18.884  0.00  0.00    +0.000 A 
ATOM      6  C   UNL     1       1.547  10.641  18.240  0.00  0.00    +0.000 A 
ATOM      7  C   UNL     1       1.590   9.363  18.771  0.00  0.00    +0.000 A 
ATOM      8 CL   UNL     1       2.213   8.082  17.791  0.00  0.00    +0.000 Cl
ATOM      9  C   UNL     1       0.983   9.093  19.997  0.00  0.00    +0.000 A 
ATOM     10  C   UNL     1       0.211  10.085  20.690  0.00  0.00    +0.000 A 
ATOM     11  C   UNL     1      -0.028  11.378  20.096  0.00  0.00    +0.000 A 
ATOM     12  H   UNL     1       0.310  13.543  18.597  0.00  0.00    +0.000 HD
BRANCH   3  13
ATOM     13  C   UNL     1      -1.970  11.169  17.759  0.00  0.00    +0.000 C 
ATOM     14  O   UNL     1      -2.253  10.036  18.112  0.00  0.00    +0.000 OA
BRANCH  13  15
ATOM     15  OXT UNL     1      -2.023  11.585  16.481  0.00  0.00    +0.000 OA
ATOM     16  HXT UNL     1      -1.330  12.282  16.439  0.00  0.00    +0.000 HD
ENDBRANCH  13  15
ENDBRANCH   3  13
ENDBRANCH   1   2
BRANCH   1  17
ATOM     17  C   UNL     1      -1.108  14.997  20.079  0.00  0.00    +0.000 C 
ATOM     18  O   UNL     1       0.108  14.993  19.867  0.00  0.00    +0.000 OA
ATOM     19  N   UNL     1      -1.880  16.109  19.807  0.00  0.00    +0.000 N 
ATOM     20  H   UNL     1      -2.843  16.099  20.118  0.00  0.00    +0.000 HD
BRANCH  19  21
ATOM     21  C   UNL     1      -1.378  17.383  19.221  0.00  0.00    +0.000 C 
ATOM     22  C   UNL     1      -2.509  18.375  18.868  0.00  0.00    +0.000 C 
ATOM     23  C   UNL     1      -0.483  18.068  20.273  0.00  0.00    +0.000 C 
ATOM     24  C   UNL     1      -0.538  17.123  17.960  0.00  0.00    +0.000 C 
ENDBRANCH  19  21
ENDBRANCH   1  17
BRANCH   1  25
ATOM     25  N   UNL     1      -1.975  13.613  21.970  0.00  0.00    +0.000 N 
ATOM     26  C   UNL     1      -0.859  14.009  22.708  0.00  0.00    +0.000 C 
ATOM     27  O   UNL     1      -0.844  14.390  23.874  0.00  0.00    +0.000 OA
BRANCH  25  29
ATOM     28  C   UNL     1      -3.540  12.502  23.572  0.00  0.00    +0.000 C 
ATOM     29  C   UNL     1      -3.345  13.683  22.605  0.00  0.00    +0.000 C 
BRANCH  29  30
ATOM     30  C   UNL     1      -4.617  13.757  21.693  0.00  0.00    +0.000 A 
ATOM     31  C   UNL     1      -5.105  14.924  21.088  0.00  0.00    +0.000 A 
ATOM     32  C   UNL     1      -6.116  14.874  20.106  0.00  0.00    +0.000 A 
ATOM     33  C   UNL     1      -6.685  13.659  19.731  0.00  0.00    +0.000 A 
ATOM     34 CL   UNL     1      -7.845  13.595  18.459  0.00  0.00    +0.000 Cl
ATOM     35  C   UNL     1      -6.288  12.490  20.369  0.00  0.00    +0.000 A 
ATOM     36  C   UNL     1      -5.285  12.556  21.342  0.00  0.00    +0.000 A 
ENDBRANCH  29  30
ENDBRANCH  25  29
ENDBRANCH   1  25
TORSDOF 8
ENDMDL
MODEL 4
REMARK VINA RESULT:      -6.4      1.237      1.413
REMARK  Name = 
REMARK  12 active torsions:
REMARK  status: ('A' for Active; 'I' for Inactive)
REMARK    1  A    between atoms: C_1  and  C_2
REMARK    2  A    between atoms: C_2  and  C_3
REMARK    3  A    between atoms: C_2  and  N_10
REMARK    4  A    between atoms: N_10  and  C_13
REMARK    5  A    between atoms: C_13  and  C_14
REMARK    6  A    between atoms: C_13  and  C_21
REMARK    7  A    between atoms: N_16  and  C_17
REMARK    8  A    between atoms: C_17  and  C_18
REMARK    9  A    between atoms: C_17  and  C_19
REMARK   10  A    between atoms: C_17  and  C_20
REMARK   11  A    between atoms: CA_22  and  C_23
REMARK   12  A    between atoms: C_23  and  OXT_25
REMARK                            x       y       z     vdW  Elec       q    Type
REMARK                         _______ _______ _______ _____ _____    ______ ____
ROOT
ATOM      1  C   UNL     1      -1.161  13.055  19.533  0.00  0.00    +0.000 C 
ENDROOT
BRANCH   1   2
ATOM      2  C   UNL     1      -1.904  13.565  20.826  0.00  0.00    +0.000 A 
ATOM      3  CA  UNL     1      -1.596  14.910  21.101  0.00  0.00    +0.000 A 
ATOM      4  N   UNL     1      -2.666  15.506  20.399  0.00  0.00    +0.000 N 
ATOM      5  C   UNL     1      -3.699  15.040  21.208  0.00  0.00    +0.000 A 
ATOM      6  C   UNL     1      -4.579  15.816  21.979  0.00  0.00    +0.000 A 
ATOM      7  C   UNL     1      -5.060  15.225  23.136  0.00  0.00    +0.000 A 
ATOM      8 CL   UNL     1      -5.738  16.239  24.361  0.00  0.00    +0.000 Cl
ATOM      9  C   UNL     1      -4.840  13.868  23.374  0.00  0.00    +0.000 A 
ATOM     10  C   UNL     1      -4.028  13.072  22.497  0.00  0.00    +0.000 A 
ATOM     11  C   UNL     1      -3.344  13.675  21.379  0.00  0.00    +0.000 A 
ATOM     12  H   UNL     1      -2.778  15.359  19.406  0.00  0.00    +0.000 HD
BRANCH   3  13
ATOM     13  C   UNL     1      -1.029  15.417  22.317  0.00  0.00    +0.000 C 
ATOM     14  O   UNL     1      -0.950  16.588  22.653  0.00  0.00    +0.000 OA
BRANCH  13  15
ATOM     15  OXT UNL     1      -0.363  14.421  22.927  0.00  0.00    +0.000 OA
ATOM     16  HXT UNL     1      -0.945  13.641  22.791  0.00  0.00    +0.000 HD
ENDBRANCH  13  15
ENDBRANCH   3  13
ENDBRANCH   1   2
BRANCH   1  17
ATOM     17  C   UNL     1      -1.899  12.280  18.402  0.00  0.00    +0.000 C 
ATOM     18  O   UNL     1      -1.254  11.848  17.442  0.00  0.00    +0.000 OA
ATOM     19  N   UNL     1      -3.214  11.912  18.606  0.00  0.00    +0.000 N 
ATOM     20  H   UNL     1      -3.729  12.393  19.332  0.00  0.00    +0.000 HD
BRANCH  19  21
ATOM     21  C   UNL     1      -3.985  10.965  17.753  0.00  0.00    +0.000 C 
ATOM     22  C   UNL     1      -4.042  11.394  16.270  0.00  0.00    +0.000 C 
ATOM     23  C   UNL     1      -3.276   9.597  17.805  0.00  0.00    +0.000 C 
ATOM     24  C   UNL     1      -5.422  10.790  18.272  0.00  0.00    +0.000 C 
ENDBRANCH  19  21
ENDBRANCH   1  17
BRANCH   1  25
ATOM     25  N   UNL     1       0.038  12.177  19.977  0.00  0.00    +0.000 N 
ATOM     26  C   UNL     1       1.154  12.858  20.466  0.00  0.00    +0.000 C 
ATOM     27  O   UNL     1       2.039  12.403  21.184  0.00  0.00    +0.000 OA
BRANCH  25  29
ATOM     28  C   UNL     1      -0.291  10.621  21.905  0.00  0.00    +0.000 C 
ATOM     29  C   UNL     1      -0.181  10.736  20.375  0.00  0.00    +0.000 C 
BRANCH  29  30
ATOM     30  C   UNL     1       0.829   9.638  19.893  0.00  0.00    +0.000 A 
ATOM     31  C   UNL     1       1.255   8.546  20.661  0.00  0.00    +0.000 A 
ATOM     32  C   UNL     1       1.984   7.485  20.086  0.00  0.00    +0.000 A 
ATOM     33  C   UNL     1       2.333   7.508  18.738  0.00  0.00    +0.000 A 
ATOM     34 CL   UNL     1       3.134   6.162  18.021  0.00  0.00    +0.000 Cl
ATOM     35  C   UNL     1       2.003   8.614  17.963  0.00  0.00    +0.000 A 
ATOM     36  C   UNL     1       1.279   9.659  18.548  0.00  0.00    +0.000 A 
ENDBRANCH  29  30
ENDBRANCH  25  29
ENDBRANCH   1  25
TORSDOF 8
ENDMDL
MODEL 5
REMARK VINA RESULT:      -6.4      0.875      1.222
REMARK  Name = 
REMARK  12 active torsions:
REMARK  status: ('A' for Active; 'I' for Inactive)
REMARK    1  A    between atoms: C_1  and  C_2
REMARK    2  A    between atoms: C_2  and  C_3
REMARK    3  A    between atoms: C_2  and  N_10
REMARK    4  A    between atoms: N_10  and  C_13
REMARK    5  A    between atoms: C_13  and  C_14
REMARK    6  A    between atoms: C_13  and  C_21
REMARK    7  A    between atoms: N_16  and  C_17
REMARK    8  A    between atoms: C_17  and  C_18
REMARK    9  A    between atoms: C_17  and  C_19
REMARK   10  A    between atoms: C_17  and  C_20
REMARK   11  A    between atoms: CA_22  and  C_23
REMARK   12  A    between atoms: C_23  and  OXT_25
REMARK                            x       y       z     vdW  Elec       q    Type
REMARK                         _______ _______ _______ _____ _____    ______ ____
ROOT
ATOM      1  C   UNL     1      -1.088  13.225  19.171  0.00  0.00    +0.000 C 
ENDROOT
BRANCH   1   2
ATOM      2  C   UNL     1      -1.137  14.076  20.496  0.00  0.00    +0.000 A 
ATOM      3  CA  UNL     1      -1.627  15.373  20.259  0.00  0.00    +0.000 A 
ATOM      4  N   UNL     1      -2.992  15.118  20.516  0.00  0.00    +0.000 N 
ATOM      5  C   UNL     1      -2.876  14.855  21.878  0.00  0.00    +0.000 A 
ATOM      6  C   UNL     1      -3.447  15.591  22.929  0.00  0.00    +0.000 A 
ATOM      7  C   UNL     1      -2.746  15.593  24.124  0.00  0.00    +0.000 A 
ATOM      8 CL   UNL     1      -3.100  16.823  25.286  0.00  0.00    +0.000 Cl
ATOM      9  C   UNL     1      -1.664  14.732  24.304  0.00  0.00    +0.000 A 
ATOM     10  C   UNL     1      -1.177  13.902  23.238  0.00  0.00    +0.000 A 
ATOM     11  C   UNL     1      -1.746  13.994  21.916  0.00  0.00    +0.000 A 
ATOM     12  H   UNL     1      -3.501  14.436  19.973  0.00  0.00    +0.000 HD
BRANCH   3  13
ATOM     13  C   UNL     1      -0.951  16.602  20.557  0.00  0.00    +0.000 C 
ATOM     14  O   UNL     1      -1.444  17.718  20.582  0.00  0.00    +0.000 OA
BRANCH  13  15
ATOM     15  OXT UNL     1       0.373  16.372  20.561  0.00  0.00    +0.000 OA
ATOM     16  HXT UNL     1       0.478  15.629  19.926  0.00  0.00    +0.000 HD
ENDBRANCH  13  15
ENDBRANCH   3  13
ENDBRANCH   1   2
BRANCH   1  17
ATOM     17  C   UNL     1      -2.240  12.261  18.760  0.00  0.00    +0.000 C 
ATOM     18  O   UNL     1      -3.211  12.122  19.509  0.00  0.00    +0.000 OA
ATOM     19  N   UNL     1      -2.246  11.752  17.476  0.00  0.00    +0.000 N 
ATOM     20  H   UNL     1      -1.380  11.785  16.954  0.00  0.00    +0.000 HD
BRANCH  19  21
ATOM     21  C   UNL     1      -3.384  11.029  16.842  0.00  0.00    +0.000 C 
ATOM     22  C   UNL     1      -4.716  11.807  16.923  0.00  0.00    +0.000 C 
ATOM     23  C   UNL     1      -3.053  10.845  15.348  0.00  0.00    +0.000 C 
ATOM     24  C   UNL     1      -3.584   9.642  17.473  0.00  0.00    +0.000 C 
ENDBRANCH  19  21
ENDBRANCH   1  17
BRANCH   1  25
ATOM     25  N   UNL     1       0.221  12.392  19.177  0.00  0.00    +0.000 N 
ATOM     26  C   UNL     1       1.385  13.069  18.813  0.00  0.00    +0.000 C 
ATOM     27  O   UNL     1       2.539  12.748  19.078  0.00  0.00    +0.000 OA
BRANCH  25  29
ATOM     28  C   UNL     1       1.089  11.456  21.326  0.00  0.00    +0.000 C 
ATOM     29  C   UNL     1       0.325  11.147  20.027  0.00  0.00    +0.000 C 
BRANCH  29  30
ATOM     30  C   UNL     1       0.946   9.843  19.416  0.00  0.00    +0.000 A 
ATOM     31  C   UNL     1       1.322   9.685  18.074  0.00  0.00    +0.000 A 
ATOM     32  C   UNL     1       2.077   8.572  17.651  0.00  0.00    +0.000 A 
ATOM     33  C   UNL     1       2.443   7.575  18.552  0.00  0.00    +0.000 A 
ATOM     34 CL   UNL     1       3.451   6.271  18.048  0.00  0.00    +0.000 Cl
ATOM     35  C   UNL     1       2.016   7.653  19.872  0.00  0.00    +0.000 A 
ATOM     36  C   UNL     1       1.267   8.764  20.277  0.00  0.00    +0.000 A 
ENDBRANCH  29  30
ENDBRANCH  25  29
ENDBRANCH   1  25
TORSDOF 8
ENDMDL
MODEL 6
REMARK VINA RESULT:      -6.3      1.995      7.594
REMARK  Name = 
REMARK  12 active torsions:
REMARK  status: ('A' for Active; 'I' for Inactive)
REMARK    1  A    between atoms: C_1  and  C_2
REMARK    2  A    between atoms: C_2  and  C_3
REMARK    3  A    between atoms: C_2  and  N_10
REMARK    4  A    between atoms: N_10  and  C_13
REMARK    5  A    between atoms: C_13  and  C_14
REMARK    6  A    between atoms: C_13  and  C_21
REMARK    7  A    between atoms: N_16  and  C_17
REMARK    8  A    between atoms: C_17  and  C_18
REMARK    9  A    between atoms: C_17  and  C_19
REMARK   10  A    between atoms: C_17  and  C_20
REMARK   11  A    between atoms: CA_22  and  C_23
REMARK   12  A    between atoms: C_23  and  OXT_25
REMARK                            x       y       z     vdW  Elec       q    Type
REMARK                         _______ _______ _______ _____ _____    ______ ____
ROOT
ATOM      1  C   UNL     1      -1.992  13.154  19.935  0.00  0.00    +0.000 C 
ENDROOT
BRANCH   1   2
ATOM      2  C   UNL     1      -1.373  11.727  19.684  0.00  0.00    +0.000 A 
ATOM      3  CA  UNL     1      -1.372  11.398  18.317  0.00  0.00    +0.000 A 
ATOM      4  N   UNL     1      -0.083  11.880  17.999  0.00  0.00    +0.000 N 
ATOM      5  C   UNL     1       0.646  10.960  18.748  0.00  0.00    +0.000 A 
ATOM      6  C   UNL     1       1.551  10.005  18.259  0.00  0.00    +0.000 A 
ATOM      7  C   UNL     1       1.665   8.837  18.996  0.00  0.00    +0.000 A 
ATOM      8 CL   UNL     1       2.361   7.448  18.239  0.00  0.00    +0.000 Cl
ATOM      9  C   UNL     1       1.071   8.743  20.254  0.00  0.00    +0.000 A 
ATOM     10  C   UNL     1       0.243   9.793  20.777  0.00  0.00    +0.000 A 
ATOM     11  C   UNL     1      -0.067  10.952  19.977  0.00  0.00    +0.000 A 
ATOM     12  H   UNL     1       0.153  12.852  18.135  0.00  0.00    +0.000 HD
BRANCH   3  13
ATOM     13  C   UNL     1      -1.988  10.249  17.721  0.00  0.00    +0.000 C 
ATOM     14  O   UNL     1      -1.596   9.635  16.742  0.00  0.00    +0.000 OA
BRANCH  13  15
ATOM     15  OXT UNL     1      -3.213  10.095  18.254  0.00  0.00    +0.000 OA
ATOM     16  HXT UNL     1      -3.223   9.153  18.537  0.00  0.00    +0.000 HD
ENDBRANCH  13  15
ENDBRANCH   3  13
ENDBRANCH   1   2
BRANCH   1  17
ATOM     17  C   UNL     1      -1.142  14.456  19.845  0.00  0.00    +0.000 C 
ATOM     18  O   UNL     1       0.074  14.374  19.654  0.00  0.00    +0.000 OA
ATOM     19  N   UNL     1      -1.800  15.668  19.769  0.00  0.00    +0.000 N 
ATOM     20  H   UNL     1      -2.769  15.695  20.058  0.00  0.00    +0.000 HD
BRANCH  19  21
ATOM     21  C   UNL     1      -1.165  16.972  19.431  0.00  0.00    +0.000 C 
ATOM     22  C   UNL     1      -0.279  16.905  18.167  0.00  0.00    +0.000 C 
ATOM     23  C   UNL     1      -2.290  17.986  19.145  0.00  0.00    +0.000 C 
ATOM     24  C   UNL     1      -0.317  17.499  20.600  0.00  0.00    +0.000 C 
ENDBRANCH  19  21
ENDBRANCH   1  17
BRANCH   1  25
ATOM     25  N   UNL     1      -2.671  13.151  21.330  0.00  0.00    +0.000 N 
ATOM     26  C   UNL     1      -4.012  12.767  21.363  0.00  0.00    +0.000 C 
ATOM     27  O   UNL     1      -4.636  12.351  22.334  0.00  0.00    +0.000 OA
BRANCH  25  29
ATOM     28  C   UNL     1      -2.224  11.747  23.349  0.00  0.00    +0.000 C 
ATOM     29  C   UNL     1      -1.834  13.022  22.582  0.00  0.00    +0.000 C 
BRANCH  29  30
ATOM     30  C   UNL     1      -1.803  14.200  23.616  0.00  0.00    +0.000 A 
ATOM     31  C   UNL     1      -2.638  14.307  24.737  0.00  0.00    +0.000 A 
ATOM     32  C   UNL     1      -2.400  15.272  25.738  0.00  0.00    +0.000 A 
ATOM     33  C   UNL     1      -1.344  16.172  25.624  0.00  0.00    +0.000 A 
ATOM     34 CL   UNL     1      -1.000  17.279  26.899  0.00  0.00    +0.000 Cl
ATOM     35  C   UNL     1      -0.547  16.154  24.486  0.00  0.00    +0.000 A 
ATOM     36  C   UNL     1      -0.795  15.191  23.501  0.00  0.00    +0.000 A 
ENDBRANCH  29  30
ENDBRANCH  25  29
ENDBRANCH   1  25
TORSDOF 8
ENDMDL
MODEL 7
REMARK VINA RESULT:      -6.3      1.381      1.811
REMARK  Name = 
REMARK  12 active torsions:
REMARK  status: ('A' for Active; 'I' for Inactive)
REMARK    1  A    between atoms: C_1  and  C_2
REMARK    2  A    between atoms: C_2  and  C_3
REMARK    3  A    between atoms: C_2  and  N_10
REMARK    4  A    between atoms: N_10  and  C_13
REMARK    5  A    between atoms: C_13  and  C_14
REMARK    6  A    between atoms: C_13  and  C_21
REMARK    7  A    between atoms: N_16  and  C_17
REMARK    8  A    between atoms: C_17  and  C_18
REMARK    9  A    between atoms: C_17  and  C_19
REMARK   10  A    between atoms: C_17  and  C_20
REMARK   11  A    between atoms: CA_22  and  C_23
REMARK   12  A    between atoms: C_23  and  OXT_25
REMARK                            x       y       z     vdW  Elec       q    Type
REMARK                         _______ _______ _______ _____ _____    ______ ____
ROOT
ATOM      1  C   UNL     1      -1.292  13.012  19.579  0.00  0.00    +0.000 C 
ENDROOT
BRANCH   1   2
ATOM      2  C   UNL     1      -2.029  13.466  20.897  0.00  0.00    +0.000 A 
ATOM      3  CA  UNL     1      -1.292  14.443  21.589  0.00  0.00    +0.000 A 
ATOM      4  N   UNL     1      -1.885  15.585  21.009  0.00  0.00    +0.000 N 
ATOM      5  C   UNL     1      -3.159  15.425  21.549  0.00  0.00    +0.000 A 
ATOM      6  C   UNL     1      -3.811  16.293  22.440  0.00  0.00    +0.000 A 
ATOM      7  C   UNL     1      -4.706  15.705  23.319  0.00  0.00    +0.000 A 
ATOM      8 CL   UNL     1      -5.176  16.587  24.730  0.00  0.00    +0.000 Cl
ATOM      9  C   UNL     1      -5.075  14.370  23.156  0.00  0.00    +0.000 A 
ATOM     10  C   UNL     1      -4.470  13.539  22.154  0.00  0.00    +0.000 A 
ATOM     11  C   UNL     1      -3.397  14.041  21.332  0.00  0.00    +0.000 A 
ATOM     12  H   UNL     1      -1.842  15.741  20.012  0.00  0.00    +0.000 HD
BRANCH   3  13
ATOM     13  C   UNL     1      -0.833  14.356  22.945  0.00  0.00    +0.000 C 
ATOM     14  O   UNL     1      -1.408  13.818  23.877  0.00  0.00    +0.000 OA
BRANCH  13  15
ATOM     15  OXT UNL     1       0.218  15.180  23.095  0.00  0.00    +0.000 OA
ATOM     16  HXT UNL     1       0.899  14.609  23.516  0.00  0.00    +0.000 HD
ENDBRANCH  13  15
ENDBRANCH   3  13
ENDBRANCH   1   2
BRANCH   1  17
ATOM     17  C   UNL     1      -2.016  12.211  18.456  0.00  0.00    +0.000 C 
ATOM     18  O   UNL     1      -1.352  11.708  17.546  0.00  0.00    +0.000 OA
ATOM     19  N   UNL     1      -3.353  11.906  18.622  0.00  0.00    +0.000 N 
ATOM     20  H   UNL     1      -3.875  12.443  19.303  0.00  0.00    +0.000 HD
BRANCH  19  21
ATOM     21  C   UNL     1      -4.127  10.949  17.784  0.00  0.00    +0.000 C 
ATOM     22  C   UNL     1      -3.471   9.553  17.697  0.00  0.00    +0.000 C 
ATOM     23  C   UNL     1      -5.512  10.763  18.436  0.00  0.00    +0.000 C 
ATOM     24  C   UNL     1      -4.327  11.490  16.359  0.00  0.00    +0.000 C 
ENDBRANCH  19  21
ENDBRANCH   1  17
BRANCH   1  25
ATOM     25  N   UNL     1      -0.036  12.196  19.981  0.00  0.00    +0.000 N 
ATOM     26  C   UNL     1       1.093  12.935  20.334  0.00  0.00    +0.000 C 
ATOM     27  O   UNL     1       2.045  12.551  21.006  0.00  0.00    +0.000 OA
BRANCH  25  29
ATOM     28  C   UNL     1      -0.168  10.764  22.026  0.00  0.00    +0.000 C 
ATOM     29  C   UNL     1      -0.181  10.779  20.487  0.00  0.00    +0.000 C 
BRANCH  29  30
ATOM     30  C   UNL     1       0.822   9.677  19.999  0.00  0.00    +0.000 A 
ATOM     31  C   UNL     1       1.239   8.577  20.761  0.00  0.00    +0.000 A 
ATOM     32  C   UNL     1       1.961   7.514  20.179  0.00  0.00    +0.000 A 
ATOM     33  C   UNL     1       2.311   7.544  18.831  0.00  0.00    +0.000 A 
ATOM     34 CL   UNL     1       3.102   6.196  18.106  0.00  0.00    +0.000 Cl
ATOM     35  C   UNL     1       1.990   8.657  18.064  0.00  0.00    +0.000 A 
ATOM     36  C   UNL     1       1.274   9.704  18.655  0.00  0.00    +0.000 A 
ENDBRANCH  29  30
ENDBRANCH  25  29
ENDBRANCH   1  25
TORSDOF 8
ENDMDL
MODEL 8
REMARK VINA RESULT:      -6.2      3.068      7.792
REMARK  Name = 
REMARK  12 active torsions:
REMARK  status: ('A' for Active; 'I' for Inactive)
REMARK    1  A    between atoms: C_1  and  C_2
REMARK    2  A    between atoms: C_2  and  C_3
REMARK    3  A    between atoms: C_2  and  N_10
REMARK    4  A    between atoms: N_10  and  C_13
REMARK    5  A    between atoms: C_13  and  C_14
REMARK    6  A    between atoms: C_13  and  C_21
REMARK    7  A    between atoms: N_16  and  C_17
REMARK    8  A    between atoms: C_17  and  C_18
REMARK    9  A    between atoms: C_17  and  C_19
REMARK   10  A    between atoms: C_17  and  C_20
REMARK   11  A    between atoms: CA_22  and  C_23
REMARK   12  A    between atoms: C_23  and  OXT_25
REMARK                            x       y       z     vdW  Elec       q    Type
REMARK                         _______ _______ _______ _____ _____    ______ ____
ROOT
ATOM      1  C   UNL     1      -3.487  13.284  20.184  0.00  0.00    +0.000 C 
ENDROOT
BRANCH   1   2
ATOM      2  C   UNL     1      -2.536  12.115  19.724  0.00  0.00    +0.000 A 
ATOM      3  CA  UNL     1      -2.328  12.136  18.333  0.00  0.00    +0.000 A 
ATOM      4  N   UNL     1      -1.160  12.929  18.320  0.00  0.00    +0.000 N 
ATOM      5  C   UNL     1      -0.314  12.021  18.951  0.00  0.00    +0.000 A 
ATOM      6  C   UNL     1       0.829  11.415  18.405  0.00  0.00    +0.000 A 
ATOM      7  C   UNL     1       1.136  10.151  18.880  0.00  0.00    +0.000 A 
ATOM      8 CL   UNL     1       2.202   9.156  17.950  0.00  0.00    +0.000 Cl
ATOM      9  C   UNL     1       0.462   9.635  19.986  0.00  0.00    +0.000 A 
ATOM     10  C   UNL     1      -0.631  10.338  20.597  0.00  0.00    +0.000 A 
ATOM     11  C   UNL     1      -1.121  11.571  20.031  0.00  0.00    +0.000 A 
ATOM     12  H   UNL     1      -1.167  13.866  18.697  0.00  0.00    +0.000 HD
BRANCH   3  13
ATOM     13  C   UNL     1      -2.604  11.067  17.419  0.00  0.00    +0.000 C 
ATOM     14  O   UNL     1      -2.896   9.917  17.707  0.00  0.00    +0.000 OA
BRANCH  13  15
ATOM     15  OXT UNL     1      -2.246  11.456  16.183  0.00  0.00    +0.000 OA
ATOM     16  HXT UNL     1      -2.345  12.434  16.214  0.00  0.00    +0.000 HD
ENDBRANCH  13  15
ENDBRANCH   3  13
ENDBRANCH   1   2
BRANCH   1  17
ATOM     17  C   UNL     1      -2.948  14.569  20.880  0.00  0.00    +0.000 C 
ATOM     18  O   UNL     1      -3.734  15.473  21.176  0.00  0.00    +0.000 OA
ATOM     19  N   UNL     1      -1.645  14.574  21.336  0.00  0.00    +0.000 N 
ATOM     20  H   UNL     1      -1.014  13.878  20.960  0.00  0.00    +0.000 HD
BRANCH  19  21
ATOM     21  C   UNL     1      -1.050  15.605  22.232  0.00  0.00    +0.000 C 
ATOM     22  C   UNL     1      -1.662  15.599  23.651  0.00  0.00    +0.000 C 
ATOM     23  C   UNL     1       0.452  15.292  22.381  0.00  0.00    +0.000 C 
ATOM     24  C   UNL     1      -1.199  17.014  21.636  0.00  0.00    +0.000 C 
ENDBRANCH  19  21
ENDBRANCH   1  17
BRANCH   1  25
ATOM     25  N   UNL     1      -4.574  12.687  21.116  0.00  0.00    +0.000 N 
ATOM     26  C   UNL     1      -4.245  12.596  22.469  0.00  0.00    +0.000 C 
ATOM     27  O   UNL     1      -5.023  12.506  23.413  0.00  0.00    +0.000 OA
BRANCH  25  29
ATOM     28  C   UNL     1      -6.509  11.322  20.316  0.00  0.00    +0.000 C 
ATOM     29  C   UNL     1      -6.029  12.729  20.711  0.00  0.00    +0.000 C 
BRANCH  29  30
ATOM     30  C   UNL     1      -6.489  13.715  19.581  0.00  0.00    +0.000 A 
ATOM     31  C   UNL     1      -6.714  15.088  19.756  0.00  0.00    +0.000 A 
ATOM     32  C   UNL     1      -6.904  15.946  18.653  0.00  0.00    +0.000 A 
ATOM     33  C   UNL     1      -6.909  15.445  17.353  0.00  0.00    +0.000 A 
ATOM     34 CL   UNL     1      -7.041  16.513  16.008  0.00  0.00    +0.000 Cl
ATOM     35  C   UNL     1      -6.775  14.078  17.145  0.00  0.00    +0.000 A 
ATOM     36  C   UNL     1      -6.587  13.239  18.249  0.00  0.00    +0.000 A 
ENDBRANCH  29  30
ENDBRANCH  25  29
ENDBRANCH   1  25
TORSDOF 8
ENDMDL
MODEL 9
REMARK VINA RESULT:      -6.1      1.364      1.839
REMARK  Name = 
REMARK  12 active torsions:
REMARK  status: ('A' for Active; 'I' for Inactive)
REMARK    1  A    between atoms: C_1  and  C_2
REMARK    2  A    between atoms: C_2  and  C_3
REMARK    3  A    between atoms: C_2  and  N_10
REMARK    4  A    between atoms: N_10  and  C_13
REMARK    5  A    between atoms: C_13  and  C_14
REMARK    6  A    between atoms: C_13  and  C_21
REMARK    7  A    between atoms: N_16  and  C_17
REMARK    8  A    between atoms: C_17  and  C_18
REMARK    9  A    between atoms: C_17  and  C_19
REMARK   10  A    between atoms: C_17  and  C_20
REMARK   11  A    between atoms: CA_22  and  C_23
REMARK   12  A    between atoms: C_23  and  OXT_25
REMARK                            x       y       z     vdW  Elec       q    Type
REMARK                         _______ _______ _______ _____ _____    ______ ____
ROOT
ATOM      1  C   UNL     1      -1.275  13.015  19.585  0.00  0.00    +0.000 C 
ENDROOT
BRANCH   1   2
ATOM      2  C   UNL     1      -1.946  13.474  20.935  0.00  0.00    +0.000 A 
ATOM      3  CA  UNL     1      -1.163  14.436  21.599  0.00  0.00    +0.000 A 
ATOM      4  N   UNL     1      -1.762  15.590  21.051  0.00  0.00    +0.000 N 
ATOM      5  C   UNL     1      -3.013  15.448  21.645  0.00  0.00    +0.000 A 
ATOM      6  C   UNL     1      -3.611  16.322  22.568  0.00  0.00    +0.000 A 
ATOM      7  C   UNL     1      -4.476  15.745  23.483  0.00  0.00    +0.000 A 
ATOM      8 CL   UNL     1      -4.869  16.628  24.916  0.00  0.00    +0.000 Cl
ATOM      9  C   UNL     1      -4.875  14.418  23.330  0.00  0.00    +0.000 A 
ATOM     10  C   UNL     1      -4.329  13.581  22.299  0.00  0.00    +0.000 A 
ATOM     11  C   UNL     1      -3.284  14.070  21.432  0.00  0.00    +0.000 A 
ATOM     12  H   UNL     1      -1.759  15.750  20.054  0.00  0.00    +0.000 HD
BRANCH   3  13
ATOM     13  C   UNL     1      -0.647  14.333  22.933  0.00  0.00    +0.000 C 
ATOM     14  O   UNL     1      -1.055  13.602  23.820  0.00  0.00    +0.000 OA
BRANCH  13  15
ATOM     15  OXT UNL     1       0.203  15.354  23.143  0.00  0.00    +0.000 OA
ATOM     16  HXT UNL     1       0.402  15.675  22.235  0.00  0.00    +0.000 HD
ENDBRANCH  13  15
ENDBRANCH   3  13
ENDBRANCH   1   2
BRANCH   1  17
ATOM     17  C   UNL     1      -2.065  12.244  18.486  0.00  0.00    +0.000 C 
ATOM     18  O   UNL     1      -1.463  11.813  17.498  0.00  0.00    +0.000 OA
ATOM     19  N   UNL     1      -3.370  11.878  18.747  0.00  0.00    +0.000 N 
ATOM     20  H   UNL     1      -3.851  12.359  19.496  0.00  0.00    +0.000 HD
BRANCH  19  21
ATOM     21  C   UNL     1      -4.180  10.934  17.927  0.00  0.00    +0.000 C 
ATOM     22  C   UNL     1      -5.597  10.701  18.495  0.00  0.00    +0.000 C 
ATOM     23  C   UNL     1      -4.347  11.550  16.523  0.00  0.00    +0.000 C 
ATOM     24  C   UNL     1      -3.476   9.575  17.784  0.00  0.00    +0.000 C 
ENDBRANCH  19  21
ENDBRANCH   1  17
BRANCH   1  25
ATOM     25  N   UNL     1      -0.025  12.163  19.928  0.00  0.00    +0.000 N 
ATOM     26  C   UNL     1       1.140  12.870  20.227  0.00  0.00    +0.000 C 
ATOM     27  O   UNL     1       2.111  12.459  20.853  0.00  0.00    +0.000 OA
BRANCH  25  29
ATOM     28  C   UNL     1       0.116  10.700  21.950  0.00  0.00    +0.000 C 
ATOM     29  C   UNL     1      -0.186  10.751  20.442  0.00  0.00    +0.000 C 
BRANCH  29  30
ATOM     30  C   UNL     1       0.614   9.586  19.763  0.00  0.00    +0.000 A 
ATOM     31  C   UNL     1       1.013   9.561  18.420  0.00  0.00    +0.000 A 
ATOM     32  C   UNL     1       1.918   8.592  17.941  0.00  0.00    +0.000 A 
ATOM     33  C   UNL     1       2.416   7.603  18.787  0.00  0.00    +0.000 A 
ATOM     34 CL   UNL     1       3.599   6.485  18.220  0.00  0.00    +0.000 Cl
ATOM     35  C   UNL     1       1.977   7.542  20.104  0.00  0.00    +0.000 A 
ATOM     36  C   UNL     1       1.079   8.512  20.564  0.00  0.00    +0.000 A 
ENDBRANCH  29  30
ENDBRANCH  25  29
ENDBRANCH   1  25
TORSDOF 8
ENDMDL
