MODEL 1
REMARK VINA RESULT:      -7.5      0.000      0.000
REMARK  Name = 
REMARK  0 active torsions:
REMARK  status: ('A' for Active; 'I' for Inactive)
REMARK                            x       y       z     vdW  Elec       q    Type
REMARK                         _______ _______ _______ _____ _____    ______ ____
ROOT
ATOM      1  C   UNL     1       1.901   4.277  20.766  0.00  0.00    +0.000 A 
ATOM      2  C   UNL     1       1.728   2.911  20.939  0.00  0.00    +0.000 A 
ATOM      3  C   UNL     1       1.698   2.184  19.770  0.00  0.00    +0.000 A 
ATOM      4  C   UNL     1       0.958   2.745  18.731  0.00  0.00    +0.000 A 
ATOM      5  C   UNL     1       1.202   4.096  18.485  0.00  0.00    +0.000 A 
ATOM      6  C   UNL     1       1.888   4.827  19.462  0.00  0.00    +0.000 A 
ATOM      7  C   UNL     1       2.942   5.905  19.216  0.00  0.00    +0.000 C 
ATOM      8  C   UNL     1       3.065   6.783  17.950  0.00  0.00    +0.000 C 
ATOM      9  C   UNL     1       4.508   7.043  17.410  0.00  0.00    +0.000 C 
ATOM     10  C   UNL     1       5.038   6.174  16.251  0.00  0.00    +0.000 C 
ATOM     11  C   UNL     1       5.634   4.857  16.731  0.00  0.00    +0.000 C 
ATOM     12  C   UNL     1       4.548   3.800  16.743  0.00  0.00    +0.000 C 
ATOM     13  N   UNL     1       4.736   2.923  17.886  0.00  0.00    +0.000 NA
ATOM     14  C   UNL     1       3.610   1.980  17.939  0.00  0.00    +0.000 C 
ATOM     15  C   UNL     1       3.132   1.689  19.394  0.00  0.00    +0.000 C 
ATOM     16  H   UNL     1       4.724   3.489  18.737  0.00  0.00    +0.000 HD
ENDROOT
TORSDOF 0
ENDMDL
MODEL 2
REMARK VINA RESULT:      -7.4      1.073      1.262
REMARK  Name = 
REMARK  0 active torsions:
REMARK  status: ('A' for Active; 'I' for Inactive)
REMARK                            x       y       z     vdW  Elec       q    Type
REMARK                         _______ _______ _______ _____ _____    ______ ____
ROOT
ATOM      1  C   UNL     1       1.739   5.588  20.107  0.00  0.00    +0.000 A 
ATOM      2  C   UNL     1       1.350   4.374  20.658  0.00  0.00    +0.000 A 
ATOM      3  C   UNL     1       1.628   3.275  19.876  0.00  0.00    +0.000 A 
ATOM      4  C   UNL     1       1.357   3.420  18.517  0.00  0.00    +0.000 A 
ATOM      5  C   UNL     1       1.835   4.593  17.934  0.00  0.00    +0.000 A 
ATOM      6  C   UNL     1       2.235   5.632  18.783  0.00  0.00    +0.000 A 
ATOM      7  C   UNL     1       3.435   6.557  18.584  0.00  0.00    +0.000 C 
ATOM      8  C   UNL     1       4.085   6.921  17.230  0.00  0.00    +0.000 C 
ATOM      9  C   UNL     1       5.646   6.979  17.190  0.00  0.00    +0.000 C 
ATOM     10  C   UNL     1       6.424   5.756  16.666  0.00  0.00    +0.000 C 
ATOM     11  C   UNL     1       6.656   4.703  17.743  0.00  0.00    +0.000 C 
ATOM     12  C   UNL     1       5.509   3.714  17.721  0.00  0.00    +0.000 C 
ATOM     13  N   UNL     1       5.190   3.308  19.078  0.00  0.00    +0.000 NA
ATOM     14  C   UNL     1       4.005   2.440  19.039  0.00  0.00    +0.000 C 
ATOM     15  C   UNL     1       3.032   2.688  20.231  0.00  0.00    +0.000 C 
ATOM     16  H   UNL     1       4.961   4.143  19.624  0.00  0.00    +0.000 HD
ENDROOT
TORSDOF 0
ENDMDL
MODEL 3
REMARK VINA RESULT:      -7.1      1.481      3.094
REMARK  Name = 
REMARK  0 active torsions:
REMARK  status: ('A' for Active; 'I' for Inactive)
REMARK                            x       y       z     vdW  Elec       q    Type
REMARK                         _______ _______ _______ _____ _____    ______ ____
ROOT
ATOM      1  C   UNL     1       1.921   2.037  18.346  0.00  0.00    +0.000 A 
ATOM      2  C   UNL     1       1.085   2.096  19.453  0.00  0.00    +0.000 A 
ATOM      3  C   UNL     1       1.550   2.888  20.480  0.00  0.00    +0.000 A 
ATOM      4  C   UNL     1       2.906   2.762  20.771  0.00  0.00    +0.000 A 
ATOM      5  C   UNL     1       3.761   2.803  19.669  0.00  0.00    +0.000 A 
ATOM      6  C   UNL     1       3.198   2.642  18.397  0.00  0.00    +0.000 A 
ATOM      7  C   UNL     1       3.600   3.389  17.125  0.00  0.00    +0.000 C 
ATOM      8  C   UNL     1       4.984   4.011  16.837  0.00  0.00    +0.000 C 
ATOM      9  C   UNL     1       4.998   5.409  16.141  0.00  0.00    +0.000 C 
ATOM     10  C   UNL     1       5.168   6.672  17.010  0.00  0.00    +0.000 C 
ATOM     11  C   UNL     1       3.851   7.162  17.597  0.00  0.00    +0.000 C 
ATOM     12  C   UNL     1       3.646   6.517  18.953  0.00  0.00    +0.000 C 
ATOM     13  N   UNL     1       2.238   6.213  19.139  0.00  0.00    +0.000 NA
ATOM     14  C   UNL     1       2.082   5.488  20.408  0.00  0.00    +0.000 C 
ATOM     15  C   UNL     1       1.019   4.349  20.329  0.00  0.00    +0.000 C 
ATOM     16  H   UNL     1       1.933   5.601  18.378  0.00  0.00    +0.000 HD
ENDROOT
TORSDOF 0
ENDMDL
MODEL 4
REMARK VINA RESULT:      -7.0      1.098      4.492
REMARK  Name = 
REMARK  0 active torsions:
REMARK  status: ('A' for Active; 'I' for Inactive)
REMARK                            x       y       z     vdW  Elec       q    Type
REMARK                         _______ _______ _______ _____ _____    ______ ____
ROOT
ATOM      1  C   UNL     1       3.972   6.979  17.559  0.00  0.00    +0.000 A 
ATOM      2  C   UNL     1       4.894   6.630  16.581  0.00  0.00    +0.000 A 
ATOM      3  C   UNL     1       5.551   5.441  16.812  0.00  0.00    +0.000 A 
ATOM      4  C   UNL     1       5.973   5.232  18.123  0.00  0.00    +0.000 A 
ATOM      5  C   UNL     1       5.018   5.486  19.108  0.00  0.00    +0.000 A 
ATOM      6  C   UNL     1       3.877   6.210  18.742  0.00  0.00    +0.000 A 
ATOM      7  C   UNL     1       2.448   5.958  19.224  0.00  0.00    +0.000 C 
ATOM      8  C   UNL     1       2.045   5.287  20.557  0.00  0.00    +0.000 C 
ATOM      9  C   UNL     1       0.852   4.281  20.507  0.00  0.00    +0.000 C 
ATOM     10  C   UNL     1       1.153   2.771  20.416  0.00  0.00    +0.000 C 
ATOM     11  C   UNL     1       1.390   2.305  18.985  0.00  0.00    +0.000 C 
ATOM     12  C   UNL     1       2.870   2.401  18.674  0.00  0.00    +0.000 C 
ATOM     13  N   UNL     1       3.050   2.826  17.297  0.00  0.00    +0.000 NA
ATOM     14  C   UNL     1       4.486   3.021  17.055  0.00  0.00    +0.000 C 
ATOM     15  C   UNL     1       4.786   4.252  16.147  0.00  0.00    +0.000 C 
ATOM     16  H   UNL     1       2.576   3.723  17.167  0.00  0.00    +0.000 HD
ENDROOT
TORSDOF 0
ENDMDL
MODEL 5
REMARK VINA RESULT:      -6.5      1.681      5.191
REMARK  Name = 
REMARK  0 active torsions:
REMARK  status: ('A' for Active; 'I' for Inactive)
REMARK                            x       y       z     vdW  Elec       q    Type
REMARK                         _______ _______ _______ _____ _____    ______ ____
ROOT
ATOM      1  C   UNL     1       5.873   4.176  15.390  0.00  0.00    +0.000 A 
ATOM      2  C   UNL     1       7.089   4.786  15.670  0.00  0.00    +0.000 A 
ATOM      3  C   UNL     1       7.049   5.696  16.703  0.00  0.00    +0.000 A 
ATOM      4  C   UNL     1       5.946   6.548  16.712  0.00  0.00    +0.000 A 
ATOM      5  C   UNL     1       4.710   5.928  16.532  0.00  0.00    +0.000 A 
ATOM      6  C   UNL     1       4.700   4.613  16.049  0.00  0.00    +0.000 A 
ATOM      7  C   UNL     1       3.764   3.490  16.492  0.00  0.00    +0.000 C 
ATOM      8  C   UNL     1       2.351   3.670  17.091  0.00  0.00    +0.000 C 
ATOM      9  C   UNL     1       1.968   2.738  18.285  0.00  0.00    +0.000 C 
ATOM     10  C   UNL     1       2.102   3.276  19.724  0.00  0.00    +0.000 C 
ATOM     11  C   UNL     1       3.514   3.127  20.277  0.00  0.00    +0.000 C 
ATOM     12  C   UNL     1       4.301   4.383  19.962  0.00  0.00    +0.000 C 
ATOM     13  N   UNL     1       5.674   4.029  19.645  0.00  0.00    +0.000 NA
ATOM     14  C   UNL     1       6.386   5.247  19.234  0.00  0.00    +0.000 C 
ATOM     15  C   UNL     1       7.383   5.000  18.061  0.00  0.00    +0.000 C 
ATOM     16  H   UNL     1       5.669   3.377  18.857  0.00  0.00    +0.000 HD
ENDROOT
TORSDOF 0
ENDMDL
MODEL 6
REMARK VINA RESULT:      -6.3      1.639      2.084
REMARK  Name = 
REMARK  0 active torsions:
REMARK  status: ('A' for Active; 'I' for Inactive)
REMARK                            x       y       z     vdW  Elec       q    Type
REMARK                         _______ _______ _______ _____ _____    ______ ____
ROOT
ATOM      1  C   UNL     1       1.466   4.674  18.485  0.00  0.00    +0.000 A 
ATOM      2  C   UNL     1       1.191   3.530  19.221  0.00  0.00    +0.000 A 
ATOM      3  C   UNL     1       2.140   2.538  19.114  0.00  0.00    +0.000 A 
ATOM      4  C   UNL     1       2.629   2.309  17.829  0.00  0.00    +0.000 A 
ATOM      5  C   UNL     1       3.003   3.450  17.120  0.00  0.00    +0.000 A 
ATOM      6  C   UNL     1       2.570   4.692  17.600  0.00  0.00    +0.000 A 
ATOM      7  C   UNL     1       3.374   5.992  17.613  0.00  0.00    +0.000 C 
ATOM      8  C   UNL     1       4.529   6.354  16.652  0.00  0.00    +0.000 C 
ATOM      9  C   UNL     1       5.769   7.069  17.277  0.00  0.00    +0.000 C 
ATOM     10  C   UNL     1       7.007   6.228  17.646  0.00  0.00    +0.000 C 
ATOM     11  C   UNL     1       6.891   5.586  19.023  0.00  0.00    +0.000 C 
ATOM     12  C   UNL     1       6.267   4.213  18.875  0.00  0.00    +0.000 C 
ATOM     13  N   UNL     1       5.385   3.957  20.000  0.00  0.00    +0.000 NA
ATOM     14  C   UNL     1       4.707   2.672  19.777  0.00  0.00    +0.000 C 
ATOM     15  C   UNL     1       3.217   2.684  20.236  0.00  0.00    +0.000 C 
ATOM     16  H   UNL     1       4.676   4.694  20.034  0.00  0.00    +0.000 HD
ENDROOT
TORSDOF 0
ENDMDL
MODEL 7
REMARK VINA RESULT:      -6.3      1.586      5.178
REMARK  Name = 
REMARK  0 active torsions:
REMARK  status: ('A' for Active; 'I' for Inactive)
REMARK                            x       y       z     vdW  Elec       q    Type
REMARK                         _______ _______ _______ _____ _____    ______ ____
ROOT
ATOM      1  C   UNL     1       6.579   4.703  18.085  0.00  0.00    +0.000 A 
ATOM      2  C   UNL     1       6.706   5.841  17.299  0.00  0.00    +0.000 A 
ATOM      3  C   UNL     1       5.555   6.213  16.640  0.00  0.00    +0.000 A 
ATOM      4  C   UNL     1       4.830   5.174  16.061  0.00  0.00    +0.000 A 
ATOM      5  C   UNL     1       4.612   4.067  16.881  0.00  0.00    +0.000 A 
ATOM      6  C   UNL     1       5.381   3.953  18.046  0.00  0.00    +0.000 A 
ATOM      7  C   UNL     1       4.897   3.454  19.407  0.00  0.00    +0.000 C 
ATOM      8  C   UNL     1       3.715   2.490  19.653  0.00  0.00    +0.000 C 
ATOM      9  C   UNL     1       2.780   2.815  20.861  0.00  0.00    +0.000 C 
ATOM     10  C   UNL     1       1.460   3.569  20.601  0.00  0.00    +0.000 C 
ATOM     11  C   UNL     1       1.648   5.080  20.553  0.00  0.00    +0.000 C 
ATOM     12  C   UNL     1       1.919   5.497  19.122  0.00  0.00    +0.000 C 
ATOM     13  N   UNL     1       2.890   6.578  19.107  0.00  0.00    +0.000 NA
ATOM     14  C   UNL     1       3.221   6.887  17.709  0.00  0.00    +0.000 C 
ATOM     15  C   UNL     1       4.730   7.220  17.503  0.00  0.00    +0.000 C 
ATOM     16  H   UNL     1       3.740   6.259  19.578  0.00  0.00    +0.000 HD
ENDROOT
TORSDOF 0
ENDMDL
MODEL 8
REMARK VINA RESULT:      -6.0      1.658      2.308
REMARK  Name = 
REMARK  0 active torsions:
REMARK  status: ('A' for Active; 'I' for Inactive)
REMARK                            x       y       z     vdW  Elec       q    Type
REMARK                         _______ _______ _______ _____ _____    ______ ____
ROOT
ATOM      1  C   UNL     1       2.872   2.825  21.333  0.00  0.00    +0.000 A 
ATOM      2  C   UNL     1       1.526   2.507  21.217  0.00  0.00    +0.000 A 
ATOM      3  C   UNL     1       0.823   3.301  20.338  0.00  0.00    +0.000 A 
ATOM      4  C   UNL     1       1.104   4.664  20.402  0.00  0.00    +0.000 A 
ATOM      5  C   UNL     1       2.459   4.996  20.416  0.00  0.00    +0.000 A 
ATOM      6  C   UNL     1       3.380   3.977  20.688  0.00  0.00    +0.000 A 
ATOM      7  C   UNL     1       4.744   3.786  20.026  0.00  0.00    +0.000 C 
ATOM      8  C   UNL     1       5.606   4.897  19.386  0.00  0.00    +0.000 C 
ATOM      9  C   UNL     1       6.323   4.548  18.043  0.00  0.00    +0.000 C 
ATOM     10  C   UNL     1       5.671   4.982  16.715  0.00  0.00    +0.000 C 
ATOM     11  C   UNL     1       4.626   3.990  16.223  0.00  0.00    +0.000 C 
ATOM     12  C   UNL     1       3.271   4.388  16.771  0.00  0.00    +0.000 C 
ATOM     13  N   UNL     1       2.510   3.196  17.103  0.00  0.00    +0.000 NA
ATOM     14  C   UNL     1       1.250   3.608  17.736  0.00  0.00    +0.000 C 
ATOM     15  C   UNL     1       0.825   2.672  18.908  0.00  0.00    +0.000 C 
ATOM     16  H   UNL     1       3.046   2.645  17.778  0.00  0.00    +0.000 HD
ENDROOT
TORSDOF 0
ENDMDL
MODEL 9
REMARK VINA RESULT:      -6.0      1.511      2.243
REMARK  Name = 
REMARK  0 active torsions:
REMARK  status: ('A' for Active; 'I' for Inactive)
REMARK                            x       y       z     vdW  Elec       q    Type
REMARK                         _______ _______ _______ _____ _____    ______ ____
ROOT
ATOM      1  C   UNL     1       2.257   3.471  21.698  0.00  0.00    +0.000 A 
ATOM      2  C   UNL     1       2.689   2.247  21.206  0.00  0.00    +0.000 A 
ATOM      3  C   UNL     1       2.462   2.058  19.860  0.00  0.00    +0.000 A 
ATOM      4  C   UNL     1       1.216   2.473  19.396  0.00  0.00    +0.000 A 
ATOM      5  C   UNL     1       0.819   3.746  19.805  0.00  0.00    +0.000 A 
ATOM      6  C   UNL     1       1.516   4.342  20.864  0.00  0.00    +0.000 A 
ATOM      7  C   UNL     1       1.898   5.816  20.984  0.00  0.00    +0.000 C 
ATOM      8  C   UNL     1       1.165   7.001  20.317  0.00  0.00    +0.000 C 
ATOM      9  C   UNL     1       2.056   8.131  19.710  0.00  0.00    +0.000 C 
ATOM     10  C   UNL     1       2.354   8.114  18.197  0.00  0.00    +0.000 C 
ATOM     11  C   UNL     1       3.535   7.220  17.842  0.00  0.00    +0.000 C 
ATOM     12  C   UNL     1       3.024   5.826  17.540  0.00  0.00    +0.000 C 
ATOM     13  N   UNL     1       3.968   4.843  18.043  0.00  0.00    +0.000 NA
ATOM     14  C   UNL     1       3.398   3.503  17.840  0.00  0.00    +0.000 C 
ATOM     15  C   UNL     1       3.693   2.533  19.024  0.00  0.00    +0.000 C 
ATOM     16  H   UNL     1       4.091   4.992  19.047  0.00  0.00    +0.000 HD
ENDROOT
TORSDOF 0
ENDMDL
