MODEL 1
REMARK VINA RESULT:      -7.9      0.000      0.000
REMARK  Name = 
REMARK  5 active torsions:
REMARK  status: ('A' for Active; 'I' for Inactive)
REMARK    1  A    between atoms: C_1  and  C_2
REMARK    2  A    between atoms: C_2  and  C_3
REMARK    3  A    between atoms: C_2  and  C_4
REMARK    4  A    between atoms: C_2  and  C_11
REMARK    5  A    between atoms: C_4  and  C_5
REMARK                            x       y       z     vdW  Elec       q    Type
REMARK                         _______ _______ _______ _____ _____    ______ ____
ROOT
ATOM      1  C   UNL     1       3.712   6.434  17.972  0.00  0.00    +0.000 C 
ATOM      2  C   UNL     1       4.663   5.236  17.723  0.00  0.00    +0.000 C 
ATOM      3  C   UNL     1       5.687   5.255  18.881  0.00  0.00    +0.000 C 
ENDROOT
BRANCH   2   4
ATOM      4  C   UNL     1       5.487   5.456  16.434  0.00  0.00    +0.000 C 
ATOM      5  O   UNL     1       6.125   6.508  16.301  0.00  0.00    +0.000 OA
ATOM      6  N   UNL     1       5.484   4.421  15.526  0.00  0.00    +0.000 N 
ATOM      7  C   UNL     1       6.183   4.427  14.326  0.00  0.00    +0.000 A 
ATOM      8  N   UNL     1       7.189   5.284  14.125  0.00  0.00    +0.000 NA
ATOM      9  C   UNL     1       7.805   5.249  12.935  0.00  0.00    +0.000 A 
ATOM     10  C   UNL     1       7.448   4.386  11.932  0.00  0.00    +0.000 A 
ATOM     11  C   UNL     1       6.413   3.534  12.234  0.00  0.00    +0.000 A 
ATOM     12  N   UNL     1       5.775   3.521  13.421  0.00  0.00    +0.000 NA
ATOM     13  H   UNL     1       4.773   3.711  15.539  0.00  0.00    +0.000 HD
ENDBRANCH   2   4
BRANCH   2  14
ATOM     14  C   UNL     1       3.861   3.908  17.740  0.00  0.00    +0.000 C 
BRANCH  14  15
ATOM     15  C   UNL     1       2.957   3.615  18.929  0.00  0.00    +0.000 A 
ATOM     16  C   UNL     1       1.610   4.002  19.006  0.00  0.00    +0.000 A 
ATOM     17  C   UNL     1       0.854   3.792  20.158  0.00  0.00    +0.000 A 
ATOM     18  C   UNL     1       1.423   3.154  21.251  0.00  0.00    +0.000 A 
ATOM     19  C   UNL     1       2.740   2.706  21.179  0.00  0.00    +0.000 A 
ATOM     20  C   UNL     1       3.501   2.932  20.028  0.00  0.00    +0.000 A 
ENDBRANCH  14  15
ENDBRANCH   2  14
TORSDOF 3
ENDMDL
MODEL 2
REMARK VINA RESULT:      -7.7      0.577      1.089
REMARK  Name = 
REMARK  5 active torsions:
REMARK  status: ('A' for Active; 'I' for Inactive)
REMARK    1  A    between atoms: C_1  and  C_2
REMARK    2  A    between atoms: C_2  and  C_3
REMARK    3  A    between atoms: C_2  and  C_4
REMARK    4  A    between atoms: C_2  and  C_11
REMARK    5  A    between atoms: C_4  and  C_5
REMARK                            x       y       z     vdW  Elec       q    Type
REMARK                         _______ _______ _______ _____ _____    ______ ____
ROOT
ATOM      1  C   UNL     1       3.766   6.252  17.900  0.00  0.00    +0.000 C 
ATOM      2  C   UNL     1       4.919   5.224  17.771  0.00  0.00    +0.000 C 
ATOM      3  C   UNL     1       5.903   5.539  18.920  0.00  0.00    +0.000 C 
ENDROOT
BRANCH   2   4
ATOM      4  C   UNL     1       5.711   5.460  16.466  0.00  0.00    +0.000 C 
ATOM      5  O   UNL     1       6.365   6.503  16.339  0.00  0.00    +0.000 OA
ATOM      6  N   UNL     1       5.664   4.448  15.534  0.00  0.00    +0.000 N 
ATOM      7  C   UNL     1       6.330   4.471  14.315  0.00  0.00    +0.000 A 
ATOM      8  N   UNL     1       7.346   5.313  14.107  0.00  0.00    +0.000 NA
ATOM      9  C   UNL     1       7.929   5.296  12.900  0.00  0.00    +0.000 A 
ATOM     10  C   UNL     1       7.529   4.464  11.887  0.00  0.00    +0.000 A 
ATOM     11  C   UNL     1       6.486   3.624  12.197  0.00  0.00    +0.000 A 
ATOM     12  N   UNL     1       5.880   3.594  13.400  0.00  0.00    +0.000 NA
ATOM     13  H   UNL     1       4.940   3.751  15.549  0.00  0.00    +0.000 HD
ENDBRANCH   2   4
BRANCH   2  14
ATOM     14  C   UNL     1       4.364   3.783  17.921  0.00  0.00    +0.000 C 
BRANCH  14  15
ATOM     15  C   UNL     1       3.142   3.557  18.799  0.00  0.00    +0.000 A 
ATOM     16  C   UNL     1       3.138   3.714  20.194  0.00  0.00    +0.000 A 
ATOM     17  C   UNL     1       2.017   3.403  20.961  0.00  0.00    +0.000 A 
ATOM     18  C   UNL     1       0.857   2.959  20.342  0.00  0.00    +0.000 A 
ATOM     19  C   UNL     1       0.816   2.852  18.953  0.00  0.00    +0.000 A 
ATOM     20  C   UNL     1       1.947   3.150  18.187  0.00  0.00    +0.000 A 
ENDBRANCH  14  15
ENDBRANCH   2  14
TORSDOF 3
ENDMDL
MODEL 3
REMARK VINA RESULT:      -7.7      2.140      6.946
REMARK  Name = 
REMARK  5 active torsions:
REMARK  status: ('A' for Active; 'I' for Inactive)
REMARK    1  A    between atoms: C_1  and  C_2
REMARK    2  A    between atoms: C_2  and  C_3
REMARK    3  A    between atoms: C_2  and  C_4
REMARK    4  A    between atoms: C_2  and  C_11
REMARK    5  A    between atoms: C_4  and  C_5
REMARK                            x       y       z     vdW  Elec       q    Type
REMARK                         _______ _______ _______ _____ _____    ______ ____
ROOT
ATOM      1  C   UNL     1       7.007   6.709  17.410  0.00  0.00    +0.000 C 
ATOM      2  C   UNL     1       5.949   5.667  16.966  0.00  0.00    +0.000 C 
ATOM      3  C   UNL     1       5.022   6.397  15.968  0.00  0.00    +0.000 C 
ENDROOT
BRANCH   2   4
ATOM      4  C   UNL     1       5.050   5.267  18.156  0.00  0.00    +0.000 C 
ATOM      5  O   UNL     1       5.445   5.484  19.308  0.00  0.00    +0.000 OA
ATOM      6  N   UNL     1       3.825   4.724  17.837  0.00  0.00    +0.000 N 
ATOM      7  C   UNL     1       2.875   4.327  18.770  0.00  0.00    +0.000 A 
ATOM      8  N   UNL     1       2.929   4.768  20.031  0.00  0.00    +0.000 NA
ATOM      9  C   UNL     1       1.993   4.327  20.883  0.00  0.00    +0.000 A 
ATOM     10  C   UNL     1       1.000   3.456  20.518  0.00  0.00    +0.000 A 
ATOM     11  C   UNL     1       1.016   3.069  19.200  0.00  0.00    +0.000 A 
ATOM     12  N   UNL     1       1.927   3.497  18.304  0.00  0.00    +0.000 NA
ATOM     13  H   UNL     1       3.643   4.330  16.931  0.00  0.00    +0.000 HD
ENDBRANCH   2   4
BRANCH   2  14
ATOM     14  C   UNL     1       6.646   4.467  16.270  0.00  0.00    +0.000 C 
BRANCH  14  15
ATOM     15  C   UNL     1       6.750   4.463  14.752  0.00  0.00    +0.000 A 
ATOM     16  C   UNL     1       5.944   3.680  13.910  0.00  0.00    +0.000 A 
ATOM     17  C   UNL     1       6.145   3.643  12.532  0.00  0.00    +0.000 A 
ATOM     18  C   UNL     1       7.141   4.420  11.958  0.00  0.00    +0.000 A 
ATOM     19  C   UNL     1       7.916   5.251  12.763  0.00  0.00    +0.000 A 
ATOM     20  C   UNL     1       7.723   5.275  14.148  0.00  0.00    +0.000 A 
ENDBRANCH  14  15
ENDBRANCH   2  14
TORSDOF 3
ENDMDL
MODEL 4
REMARK VINA RESULT:      -7.7      0.978      1.462
REMARK  Name = 
REMARK  5 active torsions:
REMARK  status: ('A' for Active; 'I' for Inactive)
REMARK    1  A    between atoms: C_1  and  C_2
REMARK    2  A    between atoms: C_2  and  C_3
REMARK    3  A    between atoms: C_2  and  C_4
REMARK    4  A    between atoms: C_2  and  C_11
REMARK    5  A    between atoms: C_4  and  C_5
REMARK                            x       y       z     vdW  Elec       q    Type
REMARK                         _______ _______ _______ _____ _____    ______ ____
ROOT
ATOM      1  C   UNL     1       6.071   5.725  19.146  0.00  0.00    +0.000 C 
ATOM      2  C   UNL     1       5.224   5.169  17.973  0.00  0.00    +0.000 C 
ATOM      3  C   UNL     1       5.195   3.634  18.156  0.00  0.00    +0.000 C 
ENDROOT
BRANCH   2   4
ATOM      4  C   UNL     1       5.936   5.415  16.625  0.00  0.00    +0.000 C 
ATOM      5  O   UNL     1       6.593   6.452  16.472  0.00  0.00    +0.000 OA
ATOM      6  N   UNL     1       5.820   4.416  15.684  0.00  0.00    +0.000 N 
ATOM      7  C   UNL     1       6.409   4.449  14.426  0.00  0.00    +0.000 A 
ATOM      8  N   UNL     1       7.421   5.284  14.167  0.00  0.00    +0.000 NA
ATOM      9  C   UNL     1       7.927   5.278  12.926  0.00  0.00    +0.000 A 
ATOM     10  C   UNL     1       7.455   4.464  11.929  0.00  0.00    +0.000 A 
ATOM     11  C   UNL     1       6.425   3.631  12.292  0.00  0.00    +0.000 A 
ATOM     12  N   UNL     1       5.894   3.590  13.530  0.00  0.00    +0.000 NA
ATOM     13  H   UNL     1       5.090   3.727  15.734  0.00  0.00    +0.000 HD
ENDBRANCH   2   4
BRANCH   2  14
ATOM     14  C   UNL     1       3.784   5.743  18.040  0.00  0.00    +0.000 C 
BRANCH  14  15
ATOM     15  C   UNL     1       2.714   4.950  18.777  0.00  0.00    +0.000 A 
ATOM     16  C   UNL     1       2.468   5.055  20.155  0.00  0.00    +0.000 A 
ATOM     17  C   UNL     1       1.541   4.237  20.797  0.00  0.00    +0.000 A 
ATOM     18  C   UNL     1       0.809   3.313  20.063  0.00  0.00    +0.000 A 
ATOM     19  C   UNL     1       0.991   3.230  18.685  0.00  0.00    +0.000 A 
ATOM     20  C   UNL     1       1.933   4.042  18.046  0.00  0.00    +0.000 A 
ENDBRANCH  14  15
ENDBRANCH   2  14
TORSDOF 3
ENDMDL
MODEL 5
REMARK VINA RESULT:      -7.6      1.365      2.042
REMARK  Name = 
REMARK  5 active torsions:
REMARK  status: ('A' for Active; 'I' for Inactive)
REMARK    1  A    between atoms: C_1  and  C_2
REMARK    2  A    between atoms: C_2  and  C_3
REMARK    3  A    between atoms: C_2  and  C_4
REMARK    4  A    between atoms: C_2  and  C_11
REMARK    5  A    between atoms: C_4  and  C_5
REMARK                            x       y       z     vdW  Elec       q    Type
REMARK                         _______ _______ _______ _____ _____    ______ ____
ROOT
ATOM      1  C   UNL     1       6.294   7.035  17.688  0.00  0.00    +0.000 C 
ATOM      2  C   UNL     1       5.267   5.873  17.667  0.00  0.00    +0.000 C 
ATOM      3  C   UNL     1       5.633   4.958  18.858  0.00  0.00    +0.000 C 
ENDROOT
BRANCH   2   4
ATOM      4  C   UNL     1       5.456   5.006  16.402  0.00  0.00    +0.000 C 
ATOM      5  O   UNL     1       4.906   3.899  16.345  0.00  0.00    +0.000 OA
ATOM      6  N   UNL     1       6.206   5.562  15.390  0.00  0.00    +0.000 N 
ATOM      7  C   UNL     1       6.463   4.944  14.173  0.00  0.00    +0.000 A 
ATOM      8  N   UNL     1       5.712   3.921  13.754  0.00  0.00    +0.000 NA
ATOM      9  C   UNL     1       6.030   3.358  12.579  0.00  0.00    +0.000 A 
ATOM     10  C   UNL     1       7.079   3.783  11.806  0.00  0.00    +0.000 A 
ATOM     11  C   UNL     1       7.785   4.848  12.310  0.00  0.00    +0.000 A 
ATOM     12  N   UNL     1       7.493   5.456  13.477  0.00  0.00    +0.000 NA
ATOM     13  H   UNL     1       6.837   6.325  15.560  0.00  0.00    +0.000 HD
ENDBRANCH   2   4
BRANCH   2  14
ATOM     14  C   UNL     1       3.830   6.431  17.842  0.00  0.00    +0.000 C 
BRANCH  14  15
ATOM     15  C   UNL     1       2.815   5.606  18.620  0.00  0.00    +0.000 A 
ATOM     16  C   UNL     1       2.528   5.793  19.981  0.00  0.00    +0.000 A 
ATOM     17  C   UNL     1       1.659   4.948  20.668  0.00  0.00    +0.000 A 
ATOM     18  C   UNL     1       1.027   3.911  19.994  0.00  0.00    +0.000 A 
ATOM     19  C   UNL     1       1.248   3.741  18.630  0.00  0.00    +0.000 A 
ATOM     20  C   UNL     1       2.132   4.581  17.947  0.00  0.00    +0.000 A 
ENDBRANCH  14  15
ENDBRANCH   2  14
TORSDOF 3
ENDMDL
MODEL 6
REMARK VINA RESULT:      -7.6      1.237      1.756
REMARK  Name = 
REMARK  5 active torsions:
REMARK  status: ('A' for Active; 'I' for Inactive)
REMARK    1  A    between atoms: C_1  and  C_2
REMARK    2  A    between atoms: C_2  and  C_3
REMARK    3  A    between atoms: C_2  and  C_4
REMARK    4  A    between atoms: C_2  and  C_11
REMARK    5  A    between atoms: C_4  and  C_5
REMARK                            x       y       z     vdW  Elec       q    Type
REMARK                         _______ _______ _______ _____ _____    ______ ____
ROOT
ATOM      1  C   UNL     1       4.317   6.142  18.064  0.00  0.00    +0.000 C 
ATOM      2  C   UNL     1       5.326   4.966  18.117  0.00  0.00    +0.000 C 
ATOM      3  C   UNL     1       6.678   5.581  18.545  0.00  0.00    +0.000 C 
ENDROOT
BRANCH   2   4
ATOM      4  C   UNL     1       5.559   4.388  16.703  0.00  0.00    +0.000 C 
ATOM      5  O   UNL     1       5.045   3.303  16.404  0.00  0.00    +0.000 OA
ATOM      6  N   UNL     1       6.307   5.163  15.845  0.00  0.00    +0.000 N 
ATOM      7  C   UNL     1       6.600   4.821  14.531  0.00  0.00    +0.000 A 
ATOM      8  N   UNL     1       5.888   3.888  13.892  0.00  0.00    +0.000 NA
ATOM      9  C   UNL     1       6.240   3.592  12.633  0.00  0.00    +0.000 A 
ATOM     10  C   UNL     1       7.286   4.197  11.987  0.00  0.00    +0.000 A 
ATOM     11  C   UNL     1       7.952   5.152  12.717  0.00  0.00    +0.000 A 
ATOM     12  N   UNL     1       7.624   5.495  13.979  0.00  0.00    +0.000 NA
ATOM     13  H   UNL     1       6.911   5.892  16.183  0.00  0.00    +0.000 HD
ENDBRANCH   2   4
BRANCH   2  14
ATOM     14  C   UNL     1       4.862   3.915  19.160  0.00  0.00    +0.000 C 
BRANCH  14  15
ATOM     15  C   UNL     1       3.372   3.762  19.431  0.00  0.00    +0.000 A 
ATOM     16  C   UNL     1       2.685   4.446  20.447  0.00  0.00    +0.000 A 
ATOM     17  C   UNL     1       1.340   4.198  20.714  0.00  0.00    +0.000 A 
ATOM     18  C   UNL     1       0.640   3.282  19.942  0.00  0.00    +0.000 A 
ATOM     19  C   UNL     1       1.282   2.634  18.889  0.00  0.00    +0.000 A 
ATOM     20  C   UNL     1       2.636   2.872  18.634  0.00  0.00    +0.000 A 
ENDBRANCH  14  15
ENDBRANCH   2  14
TORSDOF 3
ENDMDL
MODEL 7
REMARK VINA RESULT:      -7.6      2.128      6.915
REMARK  Name = 
REMARK  5 active torsions:
REMARK  status: ('A' for Active; 'I' for Inactive)
REMARK    1  A    between atoms: C_1  and  C_2
REMARK    2  A    between atoms: C_2  and  C_3
REMARK    3  A    between atoms: C_2  and  C_4
REMARK    4  A    between atoms: C_2  and  C_11
REMARK    5  A    between atoms: C_4  and  C_5
REMARK                            x       y       z     vdW  Elec       q    Type
REMARK                         _______ _______ _______ _____ _____    ______ ____
ROOT
ATOM      1  C   UNL     1       7.092   6.660  17.433  0.00  0.00    +0.000 C 
ATOM      2  C   UNL     1       6.011   5.656  16.957  0.00  0.00    +0.000 C 
ATOM      3  C   UNL     1       5.148   6.415  15.923  0.00  0.00    +0.000 C 
ENDROOT
BRANCH   2   4
ATOM      4  C   UNL     1       5.055   5.297  18.116  0.00  0.00    +0.000 C 
ATOM      5  O   UNL     1       5.377   5.591  19.274  0.00  0.00    +0.000 OA
ATOM      6  N   UNL     1       3.866   4.699  17.761  0.00  0.00    +0.000 N 
ATOM      7  C   UNL     1       2.875   4.328  18.660  0.00  0.00    +0.000 A 
ATOM      8  N   UNL     1       2.844   4.841  19.894  0.00  0.00    +0.000 NA
ATOM      9  C   UNL     1       1.872   4.422  20.716  0.00  0.00    +0.000 A 
ATOM     10  C   UNL     1       0.926   3.501  20.348  0.00  0.00    +0.000 A 
ATOM     11  C   UNL     1       1.029   3.040  19.058  0.00  0.00    +0.000 A 
ATOM     12  N   UNL     1       1.978   3.444  18.191  0.00  0.00    +0.000 NA
ATOM     13  H   UNL     1       3.748   4.250  16.870  0.00  0.00    +0.000 HD
ENDBRANCH   2   4
BRANCH   2  14
ATOM     14  C   UNL     1       6.686   4.427  16.291  0.00  0.00    +0.000 C 
BRANCH  14  15
ATOM     15  C   UNL     1       6.827   4.401  14.776  0.00  0.00    +0.000 A 
ATOM     16  C   UNL     1       7.745   5.185  14.060  0.00  0.00    +0.000 A 
ATOM     17  C   UNL     1       7.768   5.194  12.666  0.00  0.00    +0.000 A 
ATOM     18  C   UNL     1       6.891   4.386  11.956  0.00  0.00    +0.000 A 
ATOM     19  C   UNL     1       6.011   3.554  12.643  0.00  0.00    +0.000 A 
ATOM     20  C   UNL     1       5.979   3.559  14.041  0.00  0.00    +0.000 A 
ENDBRANCH  14  15
ENDBRANCH   2  14
TORSDOF 3
ENDMDL
MODEL 8
REMARK VINA RESULT:      -7.6      1.328      1.796
REMARK  Name = 
REMARK  5 active torsions:
REMARK  status: ('A' for Active; 'I' for Inactive)
REMARK    1  A    between atoms: C_1  and  C_2
REMARK    2  A    between atoms: C_2  and  C_3
REMARK    3  A    between atoms: C_2  and  C_4
REMARK    4  A    between atoms: C_2  and  C_11
REMARK    5  A    between atoms: C_4  and  C_5
REMARK                            x       y       z     vdW  Elec       q    Type
REMARK                         _______ _______ _______ _____ _____    ______ ____
ROOT
ATOM      1  C   UNL     1       5.683   6.831  17.829  0.00  0.00    +0.000 C 
ATOM      2  C   UNL     1       4.846   5.529  17.745  0.00  0.00    +0.000 C 
ATOM      3  C   UNL     1       5.345   4.626  18.895  0.00  0.00    +0.000 C 
ENDROOT
BRANCH   2   4
ATOM      4  C   UNL     1       5.166   4.763  16.442  0.00  0.00    +0.000 C 
ATOM      5  O   UNL     1       4.666   3.644  16.265  0.00  0.00    +0.000 OA
ATOM      6  N   UNL     1       5.969   5.415  15.534  0.00  0.00    +0.000 N 
ATOM      7  C   UNL     1       6.344   4.895  14.301  0.00  0.00    +0.000 A 
ATOM      8  N   UNL     1       5.669   3.879  13.754  0.00  0.00    +0.000 NA
ATOM      9  C   UNL     1       6.099   3.413  12.573  0.00  0.00    +0.000 A 
ATOM     10  C   UNL     1       7.186   3.928  11.917  0.00  0.00    +0.000 A 
ATOM     11  C   UNL     1       7.809   4.977  12.548  0.00  0.00    +0.000 A 
ATOM     12  N   UNL     1       7.403   5.490  13.727  0.00  0.00    +0.000 NA
ATOM     13  H   UNL     1       6.554   6.185  15.806  0.00  0.00    +0.000 HD
ENDBRANCH   2   4
BRANCH   2  14
ATOM     14  C   UNL     1       3.340   5.853  17.933  0.00  0.00    +0.000 C 
BRANCH  14  15
ATOM     15  C   UNL     1       2.459   4.841  18.650  0.00  0.00    +0.000 A 
ATOM     16  C   UNL     1       1.866   3.733  18.024  0.00  0.00    +0.000 A 
ATOM     17  C   UNL     1       0.990   2.890  18.705  0.00  0.00    +0.000 A 
ATOM     18  C   UNL     1       0.715   3.118  20.046  0.00  0.00    +0.000 A 
ATOM     19  C   UNL     1       1.337   4.175  20.707  0.00  0.00    +0.000 A 
ATOM     20  C   UNL     1       2.203   5.029  20.017  0.00  0.00    +0.000 A 
ENDBRANCH  14  15
ENDBRANCH   2  14
TORSDOF 3
ENDMDL
MODEL 9
REMARK VINA RESULT:      -7.6      1.033      1.343
REMARK  Name = 
REMARK  5 active torsions:
REMARK  status: ('A' for Active; 'I' for Inactive)
REMARK    1  A    between atoms: C_1  and  C_2
REMARK    2  A    between atoms: C_2  and  C_3
REMARK    3  A    between atoms: C_2  and  C_4
REMARK    4  A    between atoms: C_2  and  C_11
REMARK    5  A    between atoms: C_4  and  C_5
REMARK                            x       y       z     vdW  Elec       q    Type
REMARK                         _______ _______ _______ _____ _____    ______ ____
ROOT
ATOM      1  C   UNL     1       6.250   5.868  19.061  0.00  0.00    +0.000 C 
ATOM      2  C   UNL     1       5.363   5.294  17.927  0.00  0.00    +0.000 C 
ATOM      3  C   UNL     1       5.335   3.764  18.138  0.00  0.00    +0.000 C 
ENDROOT
BRANCH   2   4
ATOM      4  C   UNL     1       6.032   5.514  16.552  0.00  0.00    +0.000 C 
ATOM      5  O   UNL     1       6.657   6.563  16.348  0.00  0.00    +0.000 OA
ATOM      6  N   UNL     1       5.916   4.483  15.647  0.00  0.00    +0.000 N 
ATOM      7  C   UNL     1       6.470   4.490  14.373  0.00  0.00    +0.000 A 
ATOM      8  N   UNL     1       7.452   5.341  14.059  0.00  0.00    +0.000 NA
ATOM      9  C   UNL     1       7.924   5.308  12.805  0.00  0.00    +0.000 A 
ATOM     10  C   UNL     1       7.447   4.450  11.848  0.00  0.00    +0.000 A 
ATOM     11  C   UNL     1       6.449   3.604  12.266  0.00  0.00    +0.000 A 
ATOM     12  N   UNL     1       5.953   3.590  13.519  0.00  0.00    +0.000 NA
ATOM     13  H   UNL     1       5.206   3.778  15.740  0.00  0.00    +0.000 HD
ENDBRANCH   2   4
BRANCH   2  14
ATOM     14  C   UNL     1       3.928   5.875  18.031  0.00  0.00    +0.000 C 
BRANCH  14  15
ATOM     15  C   UNL     1       2.851   5.045  18.715  0.00  0.00    +0.000 A 
ATOM     16  C   UNL     1       2.000   4.153  18.042  0.00  0.00    +0.000 A 
ATOM     17  C   UNL     1       0.968   3.489  18.702  0.00  0.00    +0.000 A 
ATOM     18  C   UNL     1       0.787   3.676  20.066  0.00  0.00    +0.000 A 
ATOM     19  C   UNL     1       1.655   4.508  20.768  0.00  0.00    +0.000 A 
ATOM     20  C   UNL     1       2.680   5.186  20.101  0.00  0.00    +0.000 A 
ENDBRANCH  14  15
ENDBRANCH   2  14
TORSDOF 3
ENDMDL
