MODEL 1
REMARK VINA RESULT:      -8.3      0.000      0.000
REMARK  Name = 
REMARK  6 active torsions:
REMARK  status: ('A' for Active; 'I' for Inactive)
REMARK    1  A    between atoms: C_1  and  C_2
REMARK    2  A    between atoms: N_4  and  C_5
REMARK    3  A    between atoms: C_9  and  C_10
REMARK    4  A    between atoms: C_11  and  C_12
REMARK    5  A    between atoms: C_14  and  C_15
REMARK    6  A    between atoms: C_18  and  N_19
REMARK                            x       y       z     vdW  Elec       q    Type
REMARK                         _______ _______ _______ _____ _____    ______ ____
ROOT
ATOM      1  C   UNL     1       3.334   6.752  17.865  0.00  0.00    +0.000 A 
ATOM      2  C   UNL     1       4.421   6.604  17.043  0.00  0.00    +0.000 A 
ATOM      3  C   UNL     1       4.982   5.275  17.084  0.00  0.00    +0.000 A 
ATOM      4  C   UNL     1       4.261   4.469  17.963  0.00  0.00    +0.000 A 
ATOM      5  S   UNL     1       3.014   5.341  18.738  0.00  0.00    +0.000 S 
ENDROOT
BRANCH   4   6
ATOM      6  N   UNL     1       4.457   3.126  18.273  0.00  0.00    +0.000 N 
ATOM      7  C   UNL     1       3.564   2.111  18.005  0.00  0.00    +0.000 C 
ATOM      8  N   UNL     1       4.019   0.884  18.384  0.00  0.00    +0.000 N 
ATOM      9  O   UNL     1       2.475   2.166  17.451  0.00  0.00    +0.000 OA
ATOM     10  H   UNL     1       5.389   2.864  18.570  0.00  0.00    +0.000 HD
ATOM     11  H   UNL     1       4.683   0.780  19.134  0.00  0.00    +0.000 HD
ATOM     12  H   UNL     1       3.320   0.155  18.294  0.00  0.00    +0.000 HD
ENDBRANCH   4   6
BRANCH   3  13
ATOM     13  C   UNL     1       6.135   4.858  16.299  0.00  0.00    +0.000 C 
ATOM     14  N   UNL     1       7.110   5.811  16.152  0.00  0.00    +0.000 N 
ATOM     15  O   UNL     1       6.246   3.748  15.791  0.00  0.00    +0.000 OA
ATOM     16  H   UNL     1       6.953   6.787  16.366  0.00  0.00    +0.000 HD
ATOM     17  H   UNL     1       7.924   5.579  15.600  0.00  0.00    +0.000 HD
ENDBRANCH   3  13
BRANCH   1  19
ATOM     18  C   UNL     1       1.974   8.971  18.125  0.00  0.00    +0.000 C 
ATOM     19  C   UNL     1       2.596   7.951  17.992  0.00  0.00    +0.000 C 
BRANCH  18  24
ATOM     20  C   UNL     1      -0.943  11.268  18.381  0.00  0.00    +0.000 A 
ATOM     21  C   UNL     1      -0.276  12.474  18.613  0.00  0.00    +0.000 A 
ATOM     22  C   UNL     1       1.117  12.520  18.703  0.00  0.00    +0.000 A 
ATOM     23  C   UNL     1       1.859  11.355  18.554  0.00  0.00    +0.000 A 
ATOM     24  C   UNL     1       1.203  10.144  18.341  0.00  0.00    +0.000 A 
ATOM     25  C   UNL     1      -0.196  10.091  18.281  0.00  0.00    +0.000 A 
BRANCH  20  29
ATOM     26  C   UNL     1      -4.515  11.068  17.187  0.00  0.00    +0.000 C 
ATOM     27  C   UNL     1      -3.023  11.131  17.016  0.00  0.00    +0.000 C 
ATOM     28  O   UNL     1      -2.525  11.113  15.894  0.00  0.00    +0.000 OA
ATOM     29  N   UNL     1      -2.346  11.183  18.225  0.00  0.00    +0.000 N 
ATOM     30  H   UNL     1      -2.886  11.021  19.065  0.00  0.00    +0.000 HD
ENDBRANCH  20  29
ENDBRANCH  18  24
ENDBRANCH   1  19
TORSDOF 5
ENDMDL
MODEL 2
REMARK VINA RESULT:      -8.2      6.668      7.844
REMARK  Name = 
REMARK  6 active torsions:
REMARK  status: ('A' for Active; 'I' for Inactive)
REMARK    1  A    between atoms: C_1  and  C_2
REMARK    2  A    between atoms: N_4  and  C_5
REMARK    3  A    between atoms: C_9  and  C_10
REMARK    4  A    between atoms: C_11  and  C_12
REMARK    5  A    between atoms: C_14  and  C_15
REMARK    6  A    between atoms: C_18  and  N_19
REMARK                            x       y       z     vdW  Elec       q    Type
REMARK                         _______ _______ _______ _____ _____    ______ ____
ROOT
ATOM      1  C   UNL     1       7.772   7.238  18.103  0.00  0.00    +0.000 A 
ATOM      2  C   UNL     1       7.377   6.868  16.844  0.00  0.00    +0.000 A 
ATOM      3  C   UNL     1       6.762   5.563  16.806  0.00  0.00    +0.000 A 
ATOM      4  C   UNL     1       6.727   5.005  18.083  0.00  0.00    +0.000 A 
ATOM      5  S   UNL     1       7.479   6.017  19.234  0.00  0.00    +0.000 S 
ENDROOT
BRANCH   4   6
ATOM      6  N   UNL     1       6.200   3.780  18.484  0.00  0.00    +0.000 N 
ATOM      7  C   UNL     1       5.023   3.611  19.179  0.00  0.00    +0.000 C 
ATOM      8  N   UNL     1       4.724   2.303  19.416  0.00  0.00    +0.000 N 
ATOM      9  O   UNL     1       4.221   4.454  19.558  0.00  0.00    +0.000 OA
ATOM     10  H   UNL     1       6.637   2.954  18.094  0.00  0.00    +0.000 HD
ATOM     11  H   UNL     1       5.446   1.604  19.479  0.00  0.00    +0.000 HD
ATOM     12  H   UNL     1       3.922   2.182  20.025  0.00  0.00    +0.000 HD
ENDBRANCH   4   6
BRANCH   3  13
ATOM     13  C   UNL     1       6.250   4.944  15.593  0.00  0.00    +0.000 C 
ATOM     14  N   UNL     1       6.927   5.270  14.447  0.00  0.00    +0.000 N 
ATOM     15  O   UNL     1       5.284   4.190  15.570  0.00  0.00    +0.000 OA
ATOM     16  H   UNL     1       7.575   6.046  14.400  0.00  0.00    +0.000 HD
ATOM     17  H   UNL     1       6.601   4.881  13.572  0.00  0.00    +0.000 HD
ENDBRANCH   3  13
BRANCH   1  19
ATOM     18  C   UNL     1       8.910   9.531  18.643  0.00  0.00    +0.000 C 
ATOM     19  C   UNL     1       8.384   8.476  18.408  0.00  0.00    +0.000 C 
BRANCH  18  24
ATOM     20  C   UNL     1      10.083  12.638  20.322  0.00  0.00    +0.000 A 
ATOM     21  C   UNL     1      10.806  13.216  19.274  0.00  0.00    +0.000 A 
ATOM     22  C   UNL     1      10.919  12.574  18.039  0.00  0.00    +0.000 A 
ATOM     23  C   UNL     1      10.301  11.347  17.837  0.00  0.00    +0.000 A 
ATOM     24  C   UNL     1       9.593  10.754  18.881  0.00  0.00    +0.000 A 
ATOM     25  C   UNL     1       9.504  11.381  20.130  0.00  0.00    +0.000 A 
BRANCH  20  29
ATOM     26  C   UNL     1       8.920  14.631  23.306  0.00  0.00    +0.000 C 
ATOM     27  C   UNL     1       8.817  14.081  21.910  0.00  0.00    +0.000 C 
ATOM     28  O   UNL     1       7.842  14.341  21.211  0.00  0.00    +0.000 OA
ATOM     29  N   UNL     1       9.893  13.276  21.569  0.00  0.00    +0.000 N 
ATOM     30  H   UNL     1      10.534  13.022  22.310  0.00  0.00    +0.000 HD
ENDBRANCH  20  29
ENDBRANCH  18  24
ENDBRANCH   1  19
TORSDOF 5
ENDMDL
MODEL 3
REMARK VINA RESULT:      -8.1      6.380      8.047
REMARK  Name = 
REMARK  6 active torsions:
REMARK  status: ('A' for Active; 'I' for Inactive)
REMARK    1  A    between atoms: C_1  and  C_2
REMARK    2  A    between atoms: N_4  and  C_5
REMARK    3  A    between atoms: C_9  and  C_10
REMARK    4  A    between atoms: C_11  and  C_12
REMARK    5  A    between atoms: C_14  and  C_15
REMARK    6  A    between atoms: C_18  and  N_19
REMARK                            x       y       z     vdW  Elec       q    Type
REMARK                         _______ _______ _______ _____ _____    ______ ____
ROOT
ATOM      1  C   UNL     1       7.542   7.152  17.658  0.00  0.00    +0.000 A 
ATOM      2  C   UNL     1       7.353   6.814  16.342  0.00  0.00    +0.000 A 
ATOM      3  C   UNL     1       6.706   5.535  16.176  0.00  0.00    +0.000 A 
ATOM      4  C   UNL     1       6.435   4.962  17.417  0.00  0.00    +0.000 A 
ATOM      5  S   UNL     1       7.018   5.929  18.698  0.00  0.00    +0.000 S 
ENDROOT
BRANCH   4   6
ATOM      6  N   UNL     1       5.804   3.753  17.700  0.00  0.00    +0.000 N 
ATOM      7  C   UNL     1       4.444   3.578  17.826  0.00  0.00    +0.000 C 
ATOM      8  N   UNL     1       4.092   2.285  18.072  0.00  0.00    +0.000 N 
ATOM      9  O   UNL     1       3.544   4.398  17.706  0.00  0.00    +0.000 OA
ATOM     10  H   UNL     1       6.382   2.922  17.648  0.00  0.00    +0.000 HD
ATOM     11  H   UNL     1       4.722   1.649  18.532  0.00  0.00    +0.000 HD
ATOM     12  H   UNL     1       3.105   2.174  18.279  0.00  0.00    +0.000 HD
ENDBRANCH   4   6
BRANCH   3  13
ATOM     13  C   UNL     1       6.386   4.952  14.882  0.00  0.00    +0.000 C 
ATOM     14  N   UNL     1       7.292   5.215  13.888  0.00  0.00    +0.000 N 
ATOM     15  O   UNL     1       5.384   4.279  14.669  0.00  0.00    +0.000 OA
ATOM     16  H   UNL     1       7.998   5.936  13.973  0.00  0.00    +0.000 HD
ATOM     17  H   UNL     1       7.108   4.850  12.964  0.00  0.00    +0.000 HD
ENDBRANCH   3  13
BRANCH   1  19
ATOM     18  C   UNL     1       8.636   9.383  18.474  0.00  0.00    +0.000 C 
ATOM     19  C   UNL     1       8.137   8.361  18.086  0.00  0.00    +0.000 C 
BRANCH  18  24
ATOM     20  C   UNL     1       9.835  12.905  18.605  0.00  0.00    +0.000 A 
ATOM     21  C   UNL     1      10.331  12.938  19.911  0.00  0.00    +0.000 A 
ATOM     22  C   UNL     1      10.250  11.817  20.740  0.00  0.00    +0.000 A 
ATOM     23  C   UNL     1       9.676  10.645  20.265  0.00  0.00    +0.000 A 
ATOM     24  C   UNL     1       9.161  10.606  18.971  0.00  0.00    +0.000 A 
ATOM     25  C   UNL     1       9.213  11.738  18.148  0.00  0.00    +0.000 A 
BRANCH  20  29
ATOM     26  C   UNL     1      10.914  15.687  16.298  0.00  0.00    +0.000 C 
ATOM     27  C   UNL     1      11.131  14.510  17.208  0.00  0.00    +0.000 C 
ATOM     28  O   UNL     1      12.265  14.089  17.420  0.00  0.00    +0.000 OA
ATOM     29  N   UNL     1       9.946  13.994  17.711  0.00  0.00    +0.000 N 
ATOM     30  H   UNL     1       9.084  14.343  17.312  0.00  0.00    +0.000 HD
ENDBRANCH  20  29
ENDBRANCH  18  24
ENDBRANCH   1  19
TORSDOF 5
ENDMDL
MODEL 4
REMARK VINA RESULT:      -8.1      6.363      7.614
REMARK  Name = 
REMARK  6 active torsions:
REMARK  status: ('A' for Active; 'I' for Inactive)
REMARK    1  A    between atoms: C_1  and  C_2
REMARK    2  A    between atoms: N_4  and  C_5
REMARK    3  A    between atoms: C_9  and  C_10
REMARK    4  A    between atoms: C_11  and  C_12
REMARK    5  A    between atoms: C_14  and  C_15
REMARK    6  A    between atoms: C_18  and  N_19
REMARK                            x       y       z     vdW  Elec       q    Type
REMARK                         _______ _______ _______ _____ _____    ______ ____
ROOT
ATOM      1  C   UNL     1       7.547   6.997  17.686  0.00  0.00    +0.000 A 
ATOM      2  C   UNL     1       7.521   6.580  16.381  0.00  0.00    +0.000 A 
ATOM      3  C   UNL     1       6.862   5.308  16.208  0.00  0.00    +0.000 A 
ATOM      4  C   UNL     1       6.413   4.822  17.434  0.00  0.00    +0.000 A 
ATOM      5  S   UNL     1       6.853   5.856  18.721  0.00  0.00    +0.000 S 
ENDROOT
BRANCH   4   6
ATOM      6  N   UNL     1       5.714   3.649  17.704  0.00  0.00    +0.000 N 
ATOM      7  C   UNL     1       4.347   3.555  17.850  0.00  0.00    +0.000 C 
ATOM      8  N   UNL     1       3.919   2.281  18.076  0.00  0.00    +0.000 N 
ATOM      9  O   UNL     1       3.498   4.432  17.762  0.00  0.00    +0.000 OA
ATOM     10  H   UNL     1       6.237   2.785  17.626  0.00  0.00    +0.000 HD
ATOM     11  H   UNL     1       4.516   1.598  18.512  0.00  0.00    +0.000 HD
ATOM     12  H   UNL     1       2.931   2.227  18.298  0.00  0.00    +0.000 HD
ENDBRANCH   4   6
BRANCH   3  13
ATOM     13  C   UNL     1       6.696   4.651  14.921  0.00  0.00    +0.000 C 
ATOM     14  N   UNL     1       7.320   5.270  13.869  0.00  0.00    +0.000 N 
ATOM     15  O   UNL     1       6.046   3.623  14.761  0.00  0.00    +0.000 OA
ATOM     16  H   UNL     1       7.671   6.218  13.927  0.00  0.00    +0.000 HD
ATOM     17  H   UNL     1       7.221   4.865  12.948  0.00  0.00    +0.000 HD
ENDBRANCH   3  13
BRANCH   1  19
ATOM     18  C   UNL     1       8.628   9.242  18.481  0.00  0.00    +0.000 C 
ATOM     19  C   UNL     1       8.119   8.217  18.116  0.00  0.00    +0.000 C 
BRANCH  18  24
ATOM     20  C   UNL     1       9.732  11.951  20.783  0.00  0.00    +0.000 A 
ATOM     21  C   UNL     1      10.381  12.788  19.871  0.00  0.00    +0.000 A 
ATOM     22  C   UNL     1      10.469  12.448  18.519  0.00  0.00    +0.000 A 
ATOM     23  C   UNL     1       9.898  11.266  18.065  0.00  0.00    +0.000 A 
ATOM     24  C   UNL     1       9.264  10.415  18.969  0.00  0.00    +0.000 A 
ATOM     25  C   UNL     1       9.202  10.739  20.329  0.00  0.00    +0.000 A 
BRANCH  20  29
ATOM     26  C   UNL     1       8.619  13.168  24.175  0.00  0.00    +0.000 C 
ATOM     27  C   UNL     1       8.482  12.947  22.694  0.00  0.00    +0.000 C 
ATOM     28  O   UNL     1       7.475  13.324  22.101  0.00  0.00    +0.000 OA
ATOM     29  N   UNL     1       9.568  12.280  22.148  0.00  0.00    +0.000 N 
ATOM     30  H   UNL     1      10.242  11.887  22.793  0.00  0.00    +0.000 HD
ENDBRANCH  20  29
ENDBRANCH  18  24
ENDBRANCH   1  19
TORSDOF 5
ENDMDL
MODEL 5
REMARK VINA RESULT:      -8.0      6.419      7.438
REMARK  Name = 
REMARK  6 active torsions:
REMARK  status: ('A' for Active; 'I' for Inactive)
REMARK    1  A    between atoms: C_1  and  C_2
REMARK    2  A    between atoms: N_4  and  C_5
REMARK    3  A    between atoms: C_9  and  C_10
REMARK    4  A    between atoms: C_11  and  C_12
REMARK    5  A    between atoms: C_14  and  C_15
REMARK    6  A    between atoms: C_18  and  N_19
REMARK                            x       y       z     vdW  Elec       q    Type
REMARK                         _______ _______ _______ _____ _____    ______ ____
ROOT
ATOM      1  C   UNL     1       7.666   7.387  17.856  0.00  0.00    +0.000 A 
ATOM      2  C   UNL     1       7.076   6.962  16.693  0.00  0.00    +0.000 A 
ATOM      3  C   UNL     1       6.494   5.647  16.803  0.00  0.00    +0.000 A 
ATOM      4  C   UNL     1       6.684   5.137  18.086  0.00  0.00    +0.000 A 
ATOM      5  S   UNL     1       7.593   6.204  19.061  0.00  0.00    +0.000 S 
ENDROOT
BRANCH   4   6
ATOM      6  N   UNL     1       6.260   3.919  18.611  0.00  0.00    +0.000 N 
ATOM      7  C   UNL     1       5.056   3.703  19.246  0.00  0.00    +0.000 C 
ATOM      8  N   UNL     1       4.880   2.409  19.633  0.00  0.00    +0.000 N 
ATOM      9  O   UNL     1       4.142   4.489  19.458  0.00  0.00    +0.000 OA
ATOM     10  H   UNL     1       6.811   3.106  18.363  0.00  0.00    +0.000 HD
ATOM     11  H   UNL     1       5.664   1.811  19.835  0.00  0.00    +0.000 HD
ATOM     12  H   UNL     1       4.050   2.273  20.201  0.00  0.00    +0.000 HD
ENDBRANCH   4   6
BRANCH   3  13
ATOM     13  C   UNL     1       5.803   4.973  15.714  0.00  0.00    +0.000 C 
ATOM     14  N   UNL     1       6.339   5.184  14.470  0.00  0.00    +0.000 N 
ATOM     15  O   UNL     1       4.810   4.271  15.870  0.00  0.00    +0.000 OA
ATOM     16  H   UNL     1       7.009   5.919  14.285  0.00  0.00    +0.000 HD
ATOM     17  H   UNL     1       5.886   4.754  13.675  0.00  0.00    +0.000 HD
ENDBRANCH   3  13
BRANCH   1  19
ATOM     18  C   UNL     1       8.805   9.725  18.128  0.00  0.00    +0.000 C 
ATOM     19  C   UNL     1       8.290   8.645  18.012  0.00  0.00    +0.000 C 
BRANCH  18  24
ATOM     20  C   UNL     1       9.259  13.419  18.053  0.00  0.00    +0.000 A 
ATOM     21  C   UNL     1      10.651  13.489  18.153  0.00  0.00    +0.000 A 
ATOM     22  C   UNL     1      11.424  12.331  18.264  0.00  0.00    +0.000 A 
ATOM     23  C   UNL     1      10.808  11.086  18.269  0.00  0.00    +0.000 A 
ATOM     24  C   UNL     1       9.419  11.005  18.188  0.00  0.00    +0.000 A 
ATOM     25  C   UNL     1       8.640  12.166  18.108  0.00  0.00    +0.000 A 
BRANCH  20  29
ATOM     26  C   UNL     1       7.129  16.514  18.388  0.00  0.00    +0.000 C 
ATOM     27  C   UNL     1       8.006  15.402  18.893  0.00  0.00    +0.000 C 
ATOM     28  O   UNL     1       8.285  15.324  20.086  0.00  0.00    +0.000 OA
ATOM     29  N   UNL     1       8.441  14.559  17.881  0.00  0.00    +0.000 N 
ATOM     30  H   UNL     1       8.264  14.851  16.929  0.00  0.00    +0.000 HD
ENDBRANCH  20  29
ENDBRANCH  18  24
ENDBRANCH   1  19
TORSDOF 5
ENDMDL
MODEL 6
REMARK VINA RESULT:      -7.9      2.917      3.504
REMARK  Name = 
REMARK  6 active torsions:
REMARK  status: ('A' for Active; 'I' for Inactive)
REMARK    1  A    between atoms: C_1  and  C_2
REMARK    2  A    between atoms: N_4  and  C_5
REMARK    3  A    between atoms: C_9  and  C_10
REMARK    4  A    between atoms: C_11  and  C_12
REMARK    5  A    between atoms: C_14  and  C_15
REMARK    6  A    between atoms: C_18  and  N_19
REMARK                            x       y       z     vdW  Elec       q    Type
REMARK                         _______ _______ _______ _____ _____    ______ ____
ROOT
ATOM      1  C   UNL     1       2.752   6.466  19.283  0.00  0.00    +0.000 A 
ATOM      2  C   UNL     1       3.463   6.623  18.121  0.00  0.00    +0.000 A 
ATOM      3  C   UNL     1       4.120   5.412  17.693  0.00  0.00    +0.000 A 
ATOM      4  C   UNL     1       3.859   4.376  18.587  0.00  0.00    +0.000 A 
ATOM      5  S   UNL     1       2.916   4.905  19.908  0.00  0.00    +0.000 S 
ENDROOT
BRANCH   4   6
ATOM      6  N   UNL     1       4.280   3.050  18.531  0.00  0.00    +0.000 N 
ATOM      7  C   UNL     1       3.477   1.973  18.225  0.00  0.00    +0.000 C 
ATOM      8  N   UNL     1       4.152   0.790  18.208  0.00  0.00    +0.000 N 
ATOM      9  O   UNL     1       2.288   1.953  17.936  0.00  0.00    +0.000 OA
ATOM     10  H   UNL     1       5.281   2.895  18.560  0.00  0.00    +0.000 HD
ATOM     11  H   UNL     1       4.983   0.652  18.760  0.00  0.00    +0.000 HD
ATOM     12  H   UNL     1       3.543  -0.014  18.099  0.00  0.00    +0.000 HD
ENDBRANCH   4   6
BRANCH   3  13
ATOM     13  C   UNL     1       4.929   5.313  16.488  0.00  0.00    +0.000 C 
ATOM     14  N   UNL     1       5.502   6.488  16.076  0.00  0.00    +0.000 N 
ATOM     15  O   UNL     1       5.096   4.269  15.866  0.00  0.00    +0.000 OA
ATOM     16  H   UNL     1       5.210   7.389  16.433  0.00  0.00    +0.000 HD
ATOM     17  H   UNL     1       6.059   6.478  15.233  0.00  0.00    +0.000 HD
ENDBRANCH   3  13
BRANCH   1  19
ATOM     18  C   UNL     1       1.386   8.369  20.445  0.00  0.00    +0.000 C 
ATOM     19  C   UNL     1       2.006   7.497  19.900  0.00  0.00    +0.000 C 
BRANCH  18  24
ATOM     20  C   UNL     1      -0.050  11.658  21.434  0.00  0.00    +0.000 A 
ATOM     21  C   UNL     1      -0.690  11.290  22.621  0.00  0.00    +0.000 A 
ATOM     22  C   UNL     1      -0.662   9.969  23.074  0.00  0.00    +0.000 A 
ATOM     23  C   UNL     1       0.015   9.001  22.343  0.00  0.00    +0.000 A 
ATOM     24  C   UNL     1       0.641   9.353  21.149  0.00  0.00    +0.000 A 
ATOM     25  C   UNL     1       0.589  10.671  20.678  0.00  0.00    +0.000 A 
BRANCH  20  29
ATOM     26  C   UNL     1       0.806  15.214  20.511  0.00  0.00    +0.000 C 
ATOM     27  C   UNL     1       1.078  13.853  21.090  0.00  0.00    +0.000 C 
ATOM     28  O   UNL     1       2.172  13.595  21.584  0.00  0.00    +0.000 OA
ATOM     29  N   UNL     1      -0.002  12.991  20.967  0.00  0.00    +0.000 N 
ATOM     30  H   UNL     1      -0.773  13.297  20.387  0.00  0.00    +0.000 HD
ENDBRANCH  20  29
ENDBRANCH  18  24
ENDBRANCH   1  19
TORSDOF 5
ENDMDL
MODEL 7
REMARK VINA RESULT:      -7.9      1.550      2.683
REMARK  Name = 
REMARK  6 active torsions:
REMARK  status: ('A' for Active; 'I' for Inactive)
REMARK    1  A    between atoms: C_1  and  C_2
REMARK    2  A    between atoms: N_4  and  C_5
REMARK    3  A    between atoms: C_9  and  C_10
REMARK    4  A    between atoms: C_11  and  C_12
REMARK    5  A    between atoms: C_14  and  C_15
REMARK    6  A    between atoms: C_18  and  N_19
REMARK                            x       y       z     vdW  Elec       q    Type
REMARK                         _______ _______ _______ _____ _____    ______ ____
ROOT
ATOM      1  C   UNL     1       2.905   7.149  18.019  0.00  0.00    +0.000 A 
ATOM      2  C   UNL     1       2.476   5.872  18.272  0.00  0.00    +0.000 A 
ATOM      3  C   UNL     1       3.494   4.877  18.029  0.00  0.00    +0.000 A 
ATOM      4  C   UNL     1       4.670   5.482  17.593  0.00  0.00    +0.000 A 
ATOM      5  S   UNL     1       4.488   7.172  17.429  0.00  0.00    +0.000 S 
ENDROOT
BRANCH   4   6
ATOM      6  N   UNL     1       5.889   4.888  17.273  0.00  0.00    +0.000 N 
ATOM      7  C   UNL     1       6.976   4.804  18.115  0.00  0.00    +0.000 C 
ATOM      8  N   UNL     1       8.031   4.142  17.562  0.00  0.00    +0.000 N 
ATOM      9  O   UNL     1       7.093   5.196  19.268  0.00  0.00    +0.000 OA
ATOM     10  H   UNL     1       5.913   4.343  16.420  0.00  0.00    +0.000 HD
ATOM     11  H   UNL     1       8.168   4.115  16.565  0.00  0.00    +0.000 HD
ATOM     12  H   UNL     1       8.868   4.180  18.134  0.00  0.00    +0.000 HD
ENDBRANCH   4   6
BRANCH   3  13
ATOM     13  C   UNL     1       3.294   3.450  18.229  0.00  0.00    +0.000 C 
ATOM     14  N   UNL     1       2.095   2.964  17.776  0.00  0.00    +0.000 N 
ATOM     15  O   UNL     1       4.118   2.717  18.765  0.00  0.00    +0.000 OA
ATOM     16  H   UNL     1       1.319   3.568  17.536  0.00  0.00    +0.000 HD
ATOM     17  H   UNL     1       1.897   1.981  17.907  0.00  0.00    +0.000 HD
ENDBRANCH   3  13
BRANCH   1  19
ATOM     18  C   UNL     1       1.429   9.287  18.321  0.00  0.00    +0.000 C 
ATOM     19  C   UNL     1       2.104   8.301  18.196  0.00  0.00    +0.000 C 
BRANCH  18  24
ATOM     20  C   UNL     1      -1.411  11.693  18.281  0.00  0.00    +0.000 A 
ATOM     21  C   UNL     1      -0.718  12.882  18.524  0.00  0.00    +0.000 A 
ATOM     22  C   UNL     1       0.665  12.882  18.718  0.00  0.00    +0.000 A 
ATOM     23  C   UNL     1       1.371  11.688  18.663  0.00  0.00    +0.000 A 
ATOM     24  C   UNL     1       0.688  10.494  18.440  0.00  0.00    +0.000 A 
ATOM     25  C   UNL     1      -0.703  10.488  18.276  0.00  0.00    +0.000 A 
BRANCH  20  29
ATOM     26  C   UNL     1      -4.888  11.425  16.844  0.00  0.00    +0.000 C 
ATOM     27  C   UNL     1      -3.386  11.369  16.798  0.00  0.00    +0.000 C 
ATOM     28  O   UNL     1      -2.807  11.075  15.755  0.00  0.00    +0.000 OA
ATOM     29  N   UNL     1      -2.800  11.650  18.022  0.00  0.00    +0.000 N 
ATOM     30  H   UNL     1      -3.413  11.709  18.826  0.00  0.00    +0.000 HD
ENDBRANCH  20  29
ENDBRANCH  18  24
ENDBRANCH   1  19
TORSDOF 5
ENDMDL
MODEL 8
REMARK VINA RESULT:      -7.8      1.948      2.891
REMARK  Name = 
REMARK  6 active torsions:
REMARK  status: ('A' for Active; 'I' for Inactive)
REMARK    1  A    between atoms: C_1  and  C_2
REMARK    2  A    between atoms: N_4  and  C_5
REMARK    3  A    between atoms: C_9  and  C_10
REMARK    4  A    between atoms: C_11  and  C_12
REMARK    5  A    between atoms: C_14  and  C_15
REMARK    6  A    between atoms: C_18  and  N_19
REMARK                            x       y       z     vdW  Elec       q    Type
REMARK                         _______ _______ _______ _____ _____    ______ ____
ROOT
ATOM      1  C   UNL     1       3.238   6.727  17.914  0.00  0.00    +0.000 A 
ATOM      2  C   UNL     1       4.371   6.642  17.146  0.00  0.00    +0.000 A 
ATOM      3  C   UNL     1       5.011   5.351  17.225  0.00  0.00    +0.000 A 
ATOM      4  C   UNL     1       4.300   4.507  18.076  0.00  0.00    +0.000 A 
ATOM      5  S   UNL     1       2.965   5.303  18.783  0.00  0.00    +0.000 S 
ENDROOT
BRANCH   4   6
ATOM      6  N   UNL     1       4.563   3.181  18.406  0.00  0.00    +0.000 N 
ATOM      7  C   UNL     1       3.726   2.117  18.150  0.00  0.00    +0.000 C 
ATOM      8  N   UNL     1       4.242   0.921  18.549  0.00  0.00    +0.000 N 
ATOM      9  O   UNL     1       2.637   2.107  17.592  0.00  0.00    +0.000 OA
ATOM     10  H   UNL     1       5.507   2.972  18.710  0.00  0.00    +0.000 HD
ATOM     11  H   UNL     1       4.907   0.863  19.302  0.00  0.00    +0.000 HD
ATOM     12  H   UNL     1       3.582   0.155  18.467  0.00  0.00    +0.000 HD
ENDBRANCH   4   6
BRANCH   3  13
ATOM     13  C   UNL     1       6.223   5.004  16.500  0.00  0.00    +0.000 C 
ATOM     14  N   UNL     1       7.113   6.033  16.332  0.00  0.00    +0.000 N 
ATOM     15  O   UNL     1       6.452   3.884  16.055  0.00  0.00    +0.000 OA
ATOM     16  H   UNL     1       6.861   7.000  16.489  0.00  0.00    +0.000 HD
ATOM     17  H   UNL     1       7.964   5.850  15.819  0.00  0.00    +0.000 HD
ENDBRANCH   3  13
BRANCH   1  19
ATOM     18  C   UNL     1       1.729   8.856  18.090  0.00  0.00    +0.000 C 
ATOM     19  C   UNL     1       2.421   7.878  17.995  0.00  0.00    +0.000 C 
BRANCH  18  24
ATOM     20  C   UNL     1       0.461  12.203  19.111  0.00  0.00    +0.000 A 
ATOM     21  C   UNL     1      -0.870  12.087  18.702  0.00  0.00    +0.000 A 
ATOM     22  C   UNL     1      -1.333  10.926  18.079  0.00  0.00    +0.000 A 
ATOM     23  C   UNL     1      -0.466   9.862  17.866  0.00  0.00    +0.000 A 
ATOM     24  C   UNL     1       0.868   9.974  18.253  0.00  0.00    +0.000 A 
ATOM     25  C   UNL     1       1.342  11.149  18.850  0.00  0.00    +0.000 A 
BRANCH  20  29
ATOM     26  C   UNL     1       1.495  14.860  21.580  0.00  0.00    +0.000 C 
ATOM     27  C   UNL     1       0.894  13.546  21.164  0.00  0.00    +0.000 C 
ATOM     28  O   UNL     1       0.432  12.780  22.005  0.00  0.00    +0.000 OA
ATOM     29  N   UNL     1       0.961  13.335  19.795  0.00  0.00    +0.000 N 
ATOM     30  H   UNL     1       1.520  13.982  19.254  0.00  0.00    +0.000 HD
ENDBRANCH  20  29
ENDBRANCH  18  24
ENDBRANCH   1  19
TORSDOF 5
ENDMDL
MODEL 9
REMARK VINA RESULT:      -7.8      1.257      1.257
REMARK  Name = 
REMARK  6 active torsions:
REMARK  status: ('A' for Active; 'I' for Inactive)
REMARK    1  A    between atoms: C_1  and  C_2
REMARK    2  A    between atoms: N_4  and  C_5
REMARK    3  A    between atoms: C_9  and  C_10
REMARK    4  A    between atoms: C_11  and  C_12
REMARK    5  A    between atoms: C_14  and  C_15
REMARK    6  A    between atoms: C_18  and  N_19
REMARK                            x       y       z     vdW  Elec       q    Type
REMARK                         _______ _______ _______ _____ _____    ______ ____
ROOT
ATOM      1  C   UNL     1       3.196   6.764  17.897  0.00  0.00    +0.000 A 
ATOM      2  C   UNL     1       4.549   6.762  17.675  0.00  0.00    +0.000 A 
ATOM      3  C   UNL     1       5.107   5.433  17.601  0.00  0.00    +0.000 A 
ATOM      4  C   UNL     1       4.108   4.477  17.775  0.00  0.00    +0.000 A 
ATOM      5  S   UNL     1       2.592   5.198  18.084  0.00  0.00    +0.000 S 
ENDROOT
BRANCH   4   6
ATOM      6  N   UNL     1       4.218   3.089  17.751  0.00  0.00    +0.000 N 
ATOM      7  C   UNL     1       4.144   2.267  18.854  0.00  0.00    +0.000 C 
ATOM      8  N   UNL     1       4.250   0.944  18.544  0.00  0.00    +0.000 N 
ATOM      9  O   UNL     1       3.959   2.562  20.027  0.00  0.00    +0.000 OA
ATOM     10  H   UNL     1       4.188   2.651  16.837  0.00  0.00    +0.000 HD
ATOM     11  H   UNL     1       4.746   0.636  17.724  0.00  0.00    +0.000 HD
ATOM     12  H   UNL     1       4.312   0.347  19.361  0.00  0.00    +0.000 HD
ENDBRANCH   4   6
BRANCH   3  13
ATOM     13  C   UNL     1       6.516   5.158  17.366  0.00  0.00    +0.000 C 
ATOM     14  N   UNL     1       7.070   5.834  16.310  0.00  0.00    +0.000 N 
ATOM     15  O   UNL     1       7.179   4.381  18.044  0.00  0.00    +0.000 OA
ATOM     16  H   UNL     1       6.509   6.303  15.610  0.00  0.00    +0.000 HD
ATOM     17  H   UNL     1       8.042   5.666  16.092  0.00  0.00    +0.000 HD
ENDBRANCH   3  13
BRANCH   1  19
ATOM     18  C   UNL     1       1.745   8.930  18.100  0.00  0.00    +0.000 C 
ATOM     19  C   UNL     1       2.413   7.937  17.993  0.00  0.00    +0.000 C 
BRANCH  18  24
ATOM     20  C   UNL     1      -1.238  11.153  17.977  0.00  0.00    +0.000 A 
ATOM     21  C   UNL     1      -0.673  12.335  18.462  0.00  0.00    +0.000 A 
ATOM     22  C   UNL     1       0.669  12.388  18.843  0.00  0.00    +0.000 A 
ATOM     23  C   UNL     1       1.464  11.254  18.734  0.00  0.00    +0.000 A 
ATOM     24  C   UNL     1       0.907  10.065  18.269  0.00  0.00    +0.000 A 
ATOM     25  C   UNL     1      -0.447  10.002  17.916  0.00  0.00    +0.000 A 
BRANCH  20  29
ATOM     26  C   UNL     1      -4.977  11.244  17.483  0.00  0.00    +0.000 C 
ATOM     27  C   UNL     1      -3.693  11.498  18.225  0.00  0.00    +0.000 C 
ATOM     28  O   UNL     1      -3.708  12.053  19.320  0.00  0.00    +0.000 OA
ATOM     29  N   UNL     1      -2.576  11.067  17.526  0.00  0.00    +0.000 N 
ATOM     30  H   UNL     1      -2.713  10.782  16.565  0.00  0.00    +0.000 HD
ENDBRANCH  20  29
ENDBRANCH  18  24
ENDBRANCH   1  19
TORSDOF 5
ENDMDL
