MODEL 1
REMARK VINA RESULT:      -9.0      0.000      0.000
REMARK  Name = 
REMARK  8 active torsions:
REMARK  status: ('A' for Active; 'I' for Inactive)
REMARK    1  A    between atoms: C_2  and  C_3
REMARK    2  A    between atoms: C_2  and  C_10
REMARK    3  A    between atoms: N_13  and  C_14
REMARK    4  A    between atoms: C_14  and  C_15
REMARK    5  A    between atoms: C_15  and  C_16
REMARK    6  A    between atoms: C_16  and  O_17
REMARK    7  A    between atoms: O_17  and  C_18
REMARK    8  A    between atoms: C_25  and  C_26
REMARK                            x       y       z     vdW  Elec       q    Type
REMARK                         _______ _______ _______ _____ _____    ______ ____
ROOT
ATOM      1  C   UNL     1       8.725   9.206  18.668  0.00  0.00    +0.000 C 
ENDROOT
BRANCH   1   2
ATOM      2  C   UNL     1       7.895   8.307  17.761  0.00  0.00    +0.000 C 
BRANCH   2   3
ATOM      3  C   UNL     1       7.879   6.852  18.251  0.00  0.00    +0.000 C 
BRANCH   3   7
ATOM      4  C   UNL     1       4.270   4.931  16.891  0.00  0.00    +0.000 C 
ATOM      5  C   UNL     1       5.298   4.101  17.668  0.00  0.00    +0.000 C 
ATOM      6  C   UNL     1       6.357   4.961  18.366  0.00  0.00    +0.000 C 
ATOM      7  N   UNL     1       7.002   5.944  17.478  0.00  0.00    +0.000 NA
ATOM      8  C   UNL     1       6.028   6.744  16.722  0.00  0.00    +0.000 C 
ATOM      9  C   UNL     1       5.031   5.873  15.955  0.00  0.00    +0.000 C 
BRANCH   4  11
ATOM     10  O   UNL     1       3.108   6.884  17.727  0.00  0.00    +0.000 OA
ATOM     11  C   UNL     1       3.327   5.678  17.842  0.00  0.00    +0.000 C 
BRANCH  11  12
ATOM     12  C   UNL     1       2.607   4.952  18.934  0.00  0.00    +0.000 A 
ATOM     13  C   UNL     1       1.651   3.990  18.555  0.00  0.00    +0.000 A 
ATOM     14  C   UNL     1       1.017   3.201  19.513  0.00  0.00    +0.000 A 
ATOM     15  C   UNL     1       1.331   3.379  20.851  0.00  0.00    +0.000 A 
ATOM     16  F   UNL     1       0.764   2.591  21.772  0.00  0.00    +0.000 F 
ATOM     17  C   UNL     1       2.234   4.359  21.252  0.00  0.00    +0.000 A 
ATOM     18  C   UNL     1       2.868   5.157  20.294  0.00  0.00    +0.000 A 
ENDBRANCH  11  12
ENDBRANCH   4  11
ENDBRANCH   3   7
ENDBRANCH   2   3
ENDBRANCH   1   2
BRANCH   1  19
ATOM     19  O   UNL     1       9.285  10.271  17.892  0.00  0.00    +0.000 OA
BRANCH  19  20
ATOM     20  C   UNL     1       9.488  11.449  18.563  0.00  0.00    +0.000 A 
ATOM     21  C   UNL     1       9.987  12.623  17.991  0.00  0.00    +0.000 A 
ATOM     22  C   UNL     1      10.145  13.774  18.764  0.00  0.00    +0.000 A 
ATOM     23  C   UNL     1       9.796  13.744  20.113  0.00  0.00    +0.000 A 
ATOM     24  C   UNL     1       9.950  14.945  20.945  0.00  0.00    +0.000 A 
ATOM     25  O   UNL     1      10.412  15.991  20.511  0.00  0.00    +0.000 OA
ATOM     26  C   UNL     1       9.502  14.834  22.336  0.00  0.00    +0.000 A 
ATOM     27  C   UNL     1       8.998  13.674  22.782  0.00  0.00    +0.000 A 
ATOM     28  O   UNL     1       8.912  12.519  22.011  0.00  0.00    +0.000 OA
ATOM     29  C   UNL     1       9.294  12.585  20.693  0.00  0.00    +0.000 A 
ATOM     30  C   UNL     1       9.147  11.432  19.921  0.00  0.00    +0.000 A 
BRANCH  27  31
ATOM     31  C   UNL     1       8.501  13.534  24.163  0.00  0.00    +0.000 A 
ATOM     32  C   UNL     1       8.433  14.639  25.030  0.00  0.00    +0.000 A 
ATOM     33  C   UNL     1       7.968  14.502  26.340  0.00  0.00    +0.000 A 
ATOM     34  C   UNL     1       7.550  13.259  26.801  0.00  0.00    +0.000 A 
ATOM     35  C   UNL     1       7.591  12.154  25.954  0.00  0.00    +0.000 A 
ATOM     36  C   UNL     1       8.061  12.290  24.644  0.00  0.00    +0.000 A 
ENDBRANCH  27  31
ENDBRANCH  19  20
ENDBRANCH   1  19
TORSDOF 8
ENDMDL
MODEL 2
REMARK VINA RESULT:      -8.7      3.120      3.266
REMARK  Name = 
REMARK  8 active torsions:
REMARK  status: ('A' for Active; 'I' for Inactive)
REMARK    1  A    between atoms: C_2  and  C_3
REMARK    2  A    between atoms: C_2  and  C_10
REMARK    3  A    between atoms: N_13  and  C_14
REMARK    4  A    between atoms: C_14  and  C_15
REMARK    5  A    between atoms: C_15  and  C_16
REMARK    6  A    between atoms: C_16  and  O_17
REMARK    7  A    between atoms: O_17  and  C_18
REMARK    8  A    between atoms: C_25  and  C_26
REMARK                            x       y       z     vdW  Elec       q    Type
REMARK                         _______ _______ _______ _____ _____    ______ ____
ROOT
ATOM      1  C   UNL     1       8.617   9.906  18.599  0.00  0.00    +0.000 C 
ENDROOT
BRANCH   1   2
ATOM      2  C   UNL     1       7.966   8.851  17.713  0.00  0.00    +0.000 C 
BRANCH   2   3
ATOM      3  C   UNL     1       8.048   7.449  18.335  0.00  0.00    +0.000 C 
BRANCH   3   7
ATOM      4  C   UNL     1       4.726   5.078  16.955  0.00  0.00    +0.000 C 
ATOM      5  C   UNL     1       5.774   4.420  17.858  0.00  0.00    +0.000 C 
ATOM      6  C   UNL     1       6.703   5.435  18.534  0.00  0.00    +0.000 C 
ATOM      7  N   UNL     1       7.309   6.398  17.598  0.00  0.00    +0.000 NA
ATOM      8  C   UNL     1       6.316   7.033  16.722  0.00  0.00    +0.000 C 
ATOM      9  C   UNL     1       5.454   6.007  15.982  0.00  0.00    +0.000 C 
BRANCH   4  11
ATOM     10  O   UNL     1       3.420   7.004  17.625  0.00  0.00    +0.000 OA
ATOM     11  C   UNL     1       3.659   5.807  17.781  0.00  0.00    +0.000 C 
BRANCH  11  12
ATOM     12  C   UNL     1       2.840   5.071  18.794  0.00  0.00    +0.000 A 
ATOM     13  C   UNL     1       2.059   3.991  18.338  0.00  0.00    +0.000 A 
ATOM     14  C   UNL     1       1.352   3.195  19.238  0.00  0.00    +0.000 A 
ATOM     15  C   UNL     1       1.418   3.483  20.593  0.00  0.00    +0.000 A 
ATOM     16  F   UNL     1       0.784   2.692  21.467  0.00  0.00    +0.000 F 
ATOM     17  C   UNL     1       2.142   4.576  21.059  0.00  0.00    +0.000 A 
ATOM     18  C   UNL     1       2.847   5.381  20.160  0.00  0.00    +0.000 A 
ENDBRANCH  11  12
ENDBRANCH   4  11
ENDBRANCH   3   7
ENDBRANCH   2   3
ENDBRANCH   1   2
BRANCH   1  19
ATOM     19  O   UNL     1       9.777  10.426  17.938  0.00  0.00    +0.000 OA
BRANCH  19  20
ATOM     20  C   UNL     1       9.875  11.792  17.903  0.00  0.00    +0.000 A 
ATOM     21  C   UNL     1      10.905  12.507  17.286  0.00  0.00    +0.000 A 
ATOM     22  C   UNL     1      10.904  13.903  17.299  0.00  0.00    +0.000 A 
ATOM     23  C   UNL     1       9.861  14.579  17.931  0.00  0.00    +0.000 A 
ATOM     24  C   UNL     1       9.837  16.047  17.953  0.00  0.00    +0.000 A 
ATOM     25  O   UNL     1      10.726  16.727  17.460  0.00  0.00    +0.000 OA
ATOM     26  C   UNL     1       8.672  16.668  18.589  0.00  0.00    +0.000 A 
ATOM     27  C   UNL     1       7.712  15.895  19.119  0.00  0.00    +0.000 A 
ATOM     28  O   UNL     1       7.768  14.506  19.153  0.00  0.00    +0.000 OA
ATOM     29  C   UNL     1       8.828  13.880  18.544  0.00  0.00    +0.000 A 
ATOM     30  C   UNL     1       8.837  12.484  18.539  0.00  0.00    +0.000 A 
BRANCH  27  31
ATOM     31  C   UNL     1       6.507  16.482  19.732  0.00  0.00    +0.000 A 
ATOM     32  C   UNL     1       6.482  17.821  20.158  0.00  0.00    +0.000 A 
ATOM     33  C   UNL     1       5.340  18.372  20.746  0.00  0.00    +0.000 A 
ATOM     34  C   UNL     1       4.198  17.595  20.903  0.00  0.00    +0.000 A 
ATOM     35  C   UNL     1       4.194  16.271  20.471  0.00  0.00    +0.000 A 
ATOM     36  C   UNL     1       5.338  15.718  19.887  0.00  0.00    +0.000 A 
ENDBRANCH  27  31
ENDBRANCH  19  20
ENDBRANCH   1  19
TORSDOF 8
ENDMDL
MODEL 3
REMARK VINA RESULT:      -8.7      1.546      2.099
REMARK  Name = 
REMARK  8 active torsions:
REMARK  status: ('A' for Active; 'I' for Inactive)
REMARK    1  A    between atoms: C_2  and  C_3
REMARK    2  A    between atoms: C_2  and  C_10
REMARK    3  A    between atoms: N_13  and  C_14
REMARK    4  A    between atoms: C_14  and  C_15
REMARK    5  A    between atoms: C_15  and  C_16
REMARK    6  A    between atoms: C_16  and  O_17
REMARK    7  A    between atoms: O_17  and  C_18
REMARK    8  A    between atoms: C_25  and  C_26
REMARK                            x       y       z     vdW  Elec       q    Type
REMARK                         _______ _______ _______ _____ _____    ______ ____
ROOT
ATOM      1  C   UNL     1       8.834  10.292  18.247  0.00  0.00    +0.000 C 
ENDROOT
BRANCH   1   2
ATOM      2  C   UNL     1       8.418   8.830  18.346  0.00  0.00    +0.000 C 
BRANCH   2   3
ATOM      3  C   UNL     1       7.202   8.518  17.461  0.00  0.00    +0.000 C 
BRANCH   3   7
ATOM      4  C   UNL     1       6.099   4.353  17.417  0.00  0.00    +0.000 C 
ATOM      5  C   UNL     1       7.569   4.722  17.636  0.00  0.00    +0.000 C 
ATOM      6  C   UNL     1       7.772   6.208  17.955  0.00  0.00    +0.000 C 
ATOM      7  N   UNL     1       7.114   7.114  16.998  0.00  0.00    +0.000 NA
ATOM      8  C   UNL     1       5.704   6.769  16.774  0.00  0.00    +0.000 C 
ATOM      9  C   UNL     1       5.522   5.305  16.367  0.00  0.00    +0.000 C 
BRANCH   4  11
ATOM     10  O   UNL     1       5.791   4.867  19.764  0.00  0.00    +0.000 OA
ATOM     11  C   UNL     1       5.316   4.384  18.736  0.00  0.00    +0.000 C 
BRANCH  11  12
ATOM     12  C   UNL     1       3.920   3.852  18.811  0.00  0.00    +0.000 A 
ATOM     13  C   UNL     1       3.043   4.176  17.758  0.00  0.00    +0.000 A 
ATOM     14  C   UNL     1       1.761   3.631  17.706  0.00  0.00    +0.000 A 
ATOM     15  C   UNL     1       1.351   2.769  18.712  0.00  0.00    +0.000 A 
ATOM     16  F   UNL     1       0.141   2.203  18.642  0.00  0.00    +0.000 F 
ATOM     17  C   UNL     1       2.183   2.475  19.788  0.00  0.00    +0.000 A 
ATOM     18  C   UNL     1       3.467   3.025  19.847  0.00  0.00    +0.000 A 
ENDBRANCH  11  12
ENDBRANCH   4  11
ENDBRANCH   3   7
ENDBRANCH   2   3
ENDBRANCH   1   2
BRANCH   1  19
ATOM     19  O   UNL     1       9.942  10.527  19.124  0.00  0.00    +0.000 OA
BRANCH  19  20
ATOM     20  C   UNL     1       9.787  11.562  20.009  0.00  0.00    +0.000 A 
ATOM     21  C   UNL     1      10.157  12.888  19.766  0.00  0.00    +0.000 A 
ATOM     22  C   UNL     1       9.944  13.871  20.733  0.00  0.00    +0.000 A 
ATOM     23  C   UNL     1       9.354  13.519  21.946  0.00  0.00    +0.000 A 
ATOM     24  C   UNL     1       9.116  14.537  22.978  0.00  0.00    +0.000 A 
ATOM     25  O   UNL     1       9.448  15.705  22.836  0.00  0.00    +0.000 OA
ATOM     26  C   UNL     1       8.438  14.083  24.195  0.00  0.00    +0.000 A 
ATOM     27  C   UNL     1       8.085  12.795  24.319  0.00  0.00    +0.000 A 
ATOM     28  O   UNL     1       8.368  11.819  23.368  0.00  0.00    +0.000 OA
ATOM     29  C   UNL     1       8.977  12.205  22.199  0.00  0.00    +0.000 A 
ATOM     30  C   UNL     1       9.200  11.221  21.234  0.00  0.00    +0.000 A 
BRANCH  27  31
ATOM     31  C   UNL     1       7.366  12.309  25.511  0.00  0.00    +0.000 A 
ATOM     32  C   UNL     1       7.662  12.801  26.794  0.00  0.00    +0.000 A 
ATOM     33  C   UNL     1       6.985  12.333  27.922  0.00  0.00    +0.000 A 
ATOM     34  C   UNL     1       5.989  11.372  27.784  0.00  0.00    +0.000 A 
ATOM     35  C   UNL     1       5.666  10.884  26.520  0.00  0.00    +0.000 A 
ATOM     36  C   UNL     1       6.347  11.349  25.391  0.00  0.00    +0.000 A 
ENDBRANCH  27  31
ENDBRANCH  19  20
ENDBRANCH   1  19
TORSDOF 8
ENDMDL
MODEL 4
REMARK VINA RESULT:      -8.7      1.325      1.857
REMARK  Name = 
REMARK  8 active torsions:
REMARK  status: ('A' for Active; 'I' for Inactive)
REMARK    1  A    between atoms: C_2  and  C_3
REMARK    2  A    between atoms: C_2  and  C_10
REMARK    3  A    between atoms: N_13  and  C_14
REMARK    4  A    between atoms: C_14  and  C_15
REMARK    5  A    between atoms: C_15  and  C_16
REMARK    6  A    between atoms: C_16  and  O_17
REMARK    7  A    between atoms: O_17  and  C_18
REMARK    8  A    between atoms: C_25  and  C_26
REMARK                            x       y       z     vdW  Elec       q    Type
REMARK                         _______ _______ _______ _____ _____    ______ ____
ROOT
ATOM      1  C   UNL     1       8.897  10.077  18.010  0.00  0.00    +0.000 C 
ENDROOT
BRANCH   1   2
ATOM      2  C   UNL     1       7.761   9.065  17.919  0.00  0.00    +0.000 C 
BRANCH   2   3
ATOM      3  C   UNL     1       8.179   7.684  18.446  0.00  0.00    +0.000 C 
BRANCH   3   7
ATOM      4  C   UNL     1       5.036   5.059  17.105  0.00  0.00    +0.000 C 
ATOM      5  C   UNL     1       6.044   4.534  18.132  0.00  0.00    +0.000 C 
ATOM      6  C   UNL     1       6.892   5.646  18.760  0.00  0.00    +0.000 C 
ATOM      7  N   UNL     1       7.525   6.538  17.773  0.00  0.00    +0.000 NA
ATOM      8  C   UNL     1       6.571   7.045  16.778  0.00  0.00    +0.000 C 
ATOM      9  C   UNL     1       5.795   5.919  16.092  0.00  0.00    +0.000 C 
BRANCH   4  11
ATOM     10  O   UNL     1       3.672   7.010  17.554  0.00  0.00    +0.000 OA
ATOM     11  C   UNL     1       3.893   5.821  17.788  0.00  0.00    +0.000 C 
BRANCH  11  12
ATOM     12  C   UNL     1       2.977   5.130  18.747  0.00  0.00    +0.000 A 
ATOM     13  C   UNL     1       2.109   4.151  18.226  0.00  0.00    +0.000 A 
ATOM     14  C   UNL     1       1.301   3.393  19.072  0.00  0.00    +0.000 A 
ATOM     15  C   UNL     1       1.354   3.618  20.439  0.00  0.00    +0.000 A 
ATOM     16  F   UNL     1       0.621   2.859  21.262  0.00  0.00    +0.000 F 
ATOM     17  C   UNL     1       2.167   4.615  20.970  0.00  0.00    +0.000 A 
ATOM     18  C   UNL     1       2.973   5.383  20.124  0.00  0.00    +0.000 A 
ENDBRANCH  11  12
ENDBRANCH   4  11
ENDBRANCH   3   7
ENDBRANCH   2   3
ENDBRANCH   1   2
BRANCH   1  19
ATOM     19  O   UNL     1       9.566   9.921  19.267  0.00  0.00    +0.000 OA
BRANCH  19  20
ATOM     20  C   UNL     1       9.437  10.971  20.140  0.00  0.00    +0.000 A 
ATOM     21  C   UNL     1       9.878  12.274  19.899  0.00  0.00    +0.000 A 
ATOM     22  C   UNL     1       9.686  13.274  20.854  0.00  0.00    +0.000 A 
ATOM     23  C   UNL     1       9.044  12.961  22.051  0.00  0.00    +0.000 A 
ATOM     24  C   UNL     1       8.827  13.997  23.068  0.00  0.00    +0.000 A 
ATOM     25  O   UNL     1       9.220  15.147  22.929  0.00  0.00    +0.000 OA
ATOM     26  C   UNL     1       8.092  13.587  24.268  0.00  0.00    +0.000 A 
ATOM     27  C   UNL     1       7.673  12.319  24.390  0.00  0.00    +0.000 A 
ATOM     28  O   UNL     1       7.934  11.323  23.454  0.00  0.00    +0.000 OA
ATOM     29  C   UNL     1       8.596  11.669  22.301  0.00  0.00    +0.000 A 
ATOM     30  C   UNL     1       8.798  10.668  21.349  0.00  0.00    +0.000 A 
BRANCH  27  31
ATOM     31  C   UNL     1       6.897  11.878  25.563  0.00  0.00    +0.000 A 
ATOM     32  C   UNL     1       7.310  12.187  26.871  0.00  0.00    +0.000 A 
ATOM     33  C   UNL     1       6.577  11.761  27.981  0.00  0.00    +0.000 A 
ATOM     34  C   UNL     1       5.408  11.029  27.800  0.00  0.00    +0.000 A 
ATOM     35  C   UNL     1       4.970  10.727  26.513  0.00  0.00    +0.000 A 
ATOM     36  C   UNL     1       5.706  11.150  25.402  0.00  0.00    +0.000 A 
ENDBRANCH  27  31
ENDBRANCH  19  20
ENDBRANCH   1  19
TORSDOF 8
ENDMDL
MODEL 5
REMARK VINA RESULT:      -8.4      6.927      9.491
REMARK  Name = 
REMARK  8 active torsions:
REMARK  status: ('A' for Active; 'I' for Inactive)
REMARK    1  A    between atoms: C_2  and  C_3
REMARK    2  A    between atoms: C_2  and  C_10
REMARK    3  A    between atoms: N_13  and  C_14
REMARK    4  A    between atoms: C_14  and  C_15
REMARK    5  A    between atoms: C_15  and  C_16
REMARK    6  A    between atoms: C_16  and  O_17
REMARK    7  A    between atoms: O_17  and  C_18
REMARK    8  A    between atoms: C_25  and  C_26
REMARK                            x       y       z     vdW  Elec       q    Type
REMARK                         _______ _______ _______ _____ _____    ______ ____
ROOT
ATOM      1  C   UNL     1       1.011   9.448  18.250  0.00  0.00    +0.000 C 
ENDROOT
BRANCH   1   2
ATOM      2  C   UNL     1       1.962   8.279  18.026  0.00  0.00    +0.000 C 
BRANCH   2   3
ATOM      3  C   UNL     1       2.310   7.562  19.339  0.00  0.00    +0.000 C 
BRANCH   3   7
ATOM      4  C   UNL     1       3.775   3.745  17.977  0.00  0.00    +0.000 C 
ATOM      5  C   UNL     1       2.338   4.148  17.629  0.00  0.00    +0.000 C 
ATOM      6  C   UNL     1       2.056   5.634  17.881  0.00  0.00    +0.000 C 
ATOM      7  N   UNL     1       2.446   6.091  19.226  0.00  0.00    +0.000 NA
ATOM      8  C   UNL     1       3.820   5.707  19.575  0.00  0.00    +0.000 C 
ATOM      9  C   UNL     1       4.064   4.206  19.407  0.00  0.00    +0.000 C 
BRANCH   4  11
ATOM     10  O   UNL     1       4.662   4.104  15.752  0.00  0.00    +0.000 OA
ATOM     11  C   UNL     1       4.773   4.314  16.960  0.00  0.00    +0.000 C 
BRANCH  11  12
ATOM     12  C   UNL     1       5.908   5.180  17.403  0.00  0.00    +0.000 A 
ATOM     13  C   UNL     1       5.916   6.518  16.964  0.00  0.00    +0.000 A 
ATOM     14  C   UNL     1       6.884   7.412  17.420  0.00  0.00    +0.000 A 
ATOM     15  C   UNL     1       7.851   6.966  18.309  0.00  0.00    +0.000 A 
ATOM     16  F   UNL     1       8.752   7.830  18.790  0.00  0.00    +0.000 F 
ATOM     17  C   UNL     1       7.892   5.636  18.716  0.00  0.00    +0.000 A 
ATOM     18  C   UNL     1       6.927   4.735  18.255  0.00  0.00    +0.000 A 
ENDBRANCH  11  12
ENDBRANCH   4  11
ENDBRANCH   3   7
ENDBRANCH   2   3
ENDBRANCH   1   2
BRANCH   1  19
ATOM     19  O   UNL     1      -0.086   9.345  17.334  0.00  0.00    +0.000 OA
BRANCH  19  20
ATOM     20  C   UNL     1      -1.216  10.038  17.684  0.00  0.00    +0.000 A 
ATOM     21  C   UNL     1      -2.424  10.010  16.982  0.00  0.00    +0.000 A 
ATOM     22  C   UNL     1      -3.520  10.747  17.432  0.00  0.00    +0.000 A 
ATOM     23  C   UNL     1      -3.401  11.510  18.593  0.00  0.00    +0.000 A 
ATOM     24  C   UNL     1      -4.543  12.290  19.087  0.00  0.00    +0.000 A 
ATOM     25  O   UNL     1      -5.614  12.332  18.499  0.00  0.00    +0.000 OA
ATOM     26  C   UNL     1      -4.339  13.014  20.345  0.00  0.00    +0.000 A 
ATOM     27  C   UNL     1      -3.153  12.947  20.967  0.00  0.00    +0.000 A 
ATOM     28  O   UNL     1      -2.053  12.259  20.465  0.00  0.00    +0.000 OA
ATOM     29  C   UNL     1      -2.206  11.543  19.302  0.00  0.00    +0.000 A 
ATOM     30  C   UNL     1      -1.108  10.814  18.845  0.00  0.00    +0.000 A 
BRANCH  27  31
ATOM     31  C   UNL     1      -2.923  13.628  22.254  0.00  0.00    +0.000 A 
ATOM     32  C   UNL     1      -1.648  13.658  22.847  0.00  0.00    +0.000 A 
ATOM     33  C   UNL     1      -1.435  14.297  24.070  0.00  0.00    +0.000 A 
ATOM     34  C   UNL     1      -2.491  14.932  24.714  0.00  0.00    +0.000 A 
ATOM     35  C   UNL     1      -3.758  14.931  24.136  0.00  0.00    +0.000 A 
ATOM     36  C   UNL     1      -3.973  14.287  22.914  0.00  0.00    +0.000 A 
ENDBRANCH  27  31
ENDBRANCH  19  20
ENDBRANCH   1  19
TORSDOF 8
ENDMDL
MODEL 6
REMARK VINA RESULT:      -8.4      6.853      9.846
REMARK  Name = 
REMARK  8 active torsions:
REMARK  status: ('A' for Active; 'I' for Inactive)
REMARK    1  A    between atoms: C_2  and  C_3
REMARK    2  A    between atoms: C_2  and  C_10
REMARK    3  A    between atoms: N_13  and  C_14
REMARK    4  A    between atoms: C_14  and  C_15
REMARK    5  A    between atoms: C_15  and  C_16
REMARK    6  A    between atoms: C_16  and  O_17
REMARK    7  A    between atoms: O_17  and  C_18
REMARK    8  A    between atoms: C_25  and  C_26
REMARK                            x       y       z     vdW  Elec       q    Type
REMARK                         _______ _______ _______ _____ _____    ______ ____
ROOT
ATOM      1  C   UNL     1       2.464   8.983  18.018  0.00  0.00    +0.000 C 
ENDROOT
BRANCH   1   2
ATOM      2  C   UNL     1       1.783   7.626  18.139  0.00  0.00    +0.000 C 
BRANCH   2   3
ATOM      3  C   UNL     1       2.190   6.893  19.426  0.00  0.00    +0.000 C 
BRANCH   3   7
ATOM      4  C   UNL     1       4.188   3.412  17.859  0.00  0.00    +0.000 C 
ATOM      5  C   UNL     1       2.697   3.600  17.561  0.00  0.00    +0.000 C 
ATOM      6  C   UNL     1       2.196   5.012  17.887  0.00  0.00    +0.000 C 
ATOM      7  N   UNL     1       2.548   5.468  19.244  0.00  0.00    +0.000 NA
ATOM      8  C   UNL     1       3.975   5.288  19.545  0.00  0.00    +0.000 C 
ATOM      9  C   UNL     1       4.443   3.851  19.303  0.00  0.00    +0.000 C 
BRANCH   4  11
ATOM     10  O   UNL     1       4.905   4.044  15.634  0.00  0.00    +0.000 OA
ATOM     11  C   UNL     1       5.057   4.171  16.849  0.00  0.00    +0.000 C 
BRANCH  11  12
ATOM     12  C   UNL     1       6.110   5.128  17.311  0.00  0.00    +0.000 A 
ATOM     13  C   UNL     1       5.982   6.475  16.917  0.00  0.00    +0.000 A 
ATOM     14  C   UNL     1       6.865   7.442  17.394  0.00  0.00    +0.000 A 
ATOM     15  C   UNL     1       7.882   7.063  18.257  0.00  0.00    +0.000 A 
ATOM     16  F   UNL     1       8.701   7.994  18.759  0.00  0.00    +0.000 F 
ATOM     17  C   UNL     1       8.057   5.731  18.618  0.00  0.00    +0.000 A 
ATOM     18  C   UNL     1       7.178   4.756  18.136  0.00  0.00    +0.000 A 
ENDBRANCH  11  12
ENDBRANCH   4  11
ENDBRANCH   3   7
ENDBRANCH   2   3
ENDBRANCH   1   2
BRANCH   1  19
ATOM     19  O   UNL     1       1.510   9.949  17.559  0.00  0.00    +0.000 OA
BRANCH  19  20
ATOM     20  C   UNL     1       0.794  10.585  18.539  0.00  0.00    +0.000 A 
ATOM     21  C   UNL     1       1.328  11.073  19.734  0.00  0.00    +0.000 A 
ATOM     22  C   UNL     1       0.510  11.718  20.663  0.00  0.00    +0.000 A 
ATOM     23  C   UNL     1      -0.847  11.876  20.385  0.00  0.00    +0.000 A 
ATOM     24  C   UNL     1      -1.726  12.555  21.346  0.00  0.00    +0.000 A 
ATOM     25  O   UNL     1      -1.324  12.974  22.422  0.00  0.00    +0.000 OA
ATOM     26  C   UNL     1      -3.124  12.725  20.940  0.00  0.00    +0.000 A 
ATOM     27  C   UNL     1      -3.533  12.256  19.752  0.00  0.00    +0.000 A 
ATOM     28  O   UNL     1      -2.714  11.557  18.871  0.00  0.00    +0.000 OA
ATOM     29  C   UNL     1      -1.390  11.399  19.198  0.00  0.00    +0.000 A 
ATOM     30  C   UNL     1      -0.572  10.745  18.275  0.00  0.00    +0.000 A 
BRANCH  27  31
ATOM     31  C   UNL     1      -4.922  12.442  19.292  0.00  0.00    +0.000 A 
ATOM     32  C   UNL     1      -5.465  11.646  18.268  0.00  0.00    +0.000 A 
ATOM     33  C   UNL     1      -6.778  11.830  17.829  0.00  0.00    +0.000 A 
ATOM     34  C   UNL     1      -7.576  12.806  18.417  0.00  0.00    +0.000 A 
ATOM     35  C   UNL     1      -7.064  13.594  19.446  0.00  0.00    +0.000 A 
ATOM     36  C   UNL     1      -5.748  13.413  19.882  0.00  0.00    +0.000 A 
ENDBRANCH  27  31
ENDBRANCH  19  20
ENDBRANCH   1  19
TORSDOF 8
ENDMDL
MODEL 7
REMARK VINA RESULT:      -8.4      7.473     10.179
REMARK  Name = 
REMARK  8 active torsions:
REMARK  status: ('A' for Active; 'I' for Inactive)
REMARK    1  A    between atoms: C_2  and  C_3
REMARK    2  A    between atoms: C_2  and  C_10
REMARK    3  A    between atoms: N_13  and  C_14
REMARK    4  A    between atoms: C_14  and  C_15
REMARK    5  A    between atoms: C_15  and  C_16
REMARK    6  A    between atoms: C_16  and  O_17
REMARK    7  A    between atoms: O_17  and  C_18
REMARK    8  A    between atoms: C_25  and  C_26
REMARK                            x       y       z     vdW  Elec       q    Type
REMARK                         _______ _______ _______ _____ _____    ______ ____
ROOT
ATOM      1  C   UNL     1       1.018   9.822  19.894  0.00  0.00    +0.000 C 
ENDROOT
BRANCH   1   2
ATOM      2  C   UNL     1       1.073   8.427  20.505  0.00  0.00    +0.000 C 
BRANCH   2   3
ATOM      3  C   UNL     1       2.275   7.622  19.992  0.00  0.00    +0.000 C 
BRANCH   3   7
ATOM      4  C   UNL     1       2.887   3.581  18.626  0.00  0.00    +0.000 C 
ATOM      5  C   UNL     1       2.318   4.610  17.645  0.00  0.00    +0.000 C 
ATOM      6  C   UNL     1       2.457   6.053  18.144  0.00  0.00    +0.000 C 
ATOM      7  N   UNL     1       1.951   6.258  19.512  0.00  0.00    +0.000 NA
ATOM      8  C   UNL     1       2.484   5.274  20.464  0.00  0.00    +0.000 C 
ATOM      9  C   UNL     1       2.258   3.834  19.998  0.00  0.00    +0.000 C 
BRANCH   4  11
ATOM     10  O   UNL     1       5.062   3.278  19.650  0.00  0.00    +0.000 OA
ATOM     11  C   UNL     1       4.420   3.634  18.661  0.00  0.00    +0.000 C 
BRANCH  11  12
ATOM     12  C   UNL     1       5.197   4.095  17.469  0.00  0.00    +0.000 A 
ATOM     13  C   UNL     1       6.146   5.117  17.667  0.00  0.00    +0.000 A 
ATOM     14  C   UNL     1       6.980   5.524  16.627  0.00  0.00    +0.000 A 
ATOM     15  C   UNL     1       6.860   4.918  15.386  0.00  0.00    +0.000 A 
ATOM     16  F   UNL     1       7.691   5.269  14.398  0.00  0.00    +0.000 F 
ATOM     17  C   UNL     1       5.895   3.942  15.155  0.00  0.00    +0.000 A 
ATOM     18  C   UNL     1       5.052   3.535  16.194  0.00  0.00    +0.000 A 
ENDBRANCH  11  12
ENDBRANCH   4  11
ENDBRANCH   3   7
ENDBRANCH   2   3
ENDBRANCH   1   2
BRANCH   1  19
ATOM     19  O   UNL     1       0.518   9.729  18.555  0.00  0.00    +0.000 OA
BRANCH  19  20
ATOM     20  C   UNL     1      -0.757  10.194  18.367  0.00  0.00    +0.000 A 
ATOM     21  C   UNL     1      -1.578   9.871  17.283  0.00  0.00    +0.000 A 
ATOM     22  C   UNL     1      -2.870  10.391  17.193  0.00  0.00    +0.000 A 
ATOM     23  C   UNL     1      -3.337  11.236  18.199  0.00  0.00    +0.000 A 
ATOM     24  C   UNL     1      -4.694  11.793  18.128  0.00  0.00    +0.000 A 
ATOM     25  O   UNL     1      -5.446  11.573  17.188  0.00  0.00    +0.000 OA
ATOM     26  C   UNL     1      -5.116  12.624  19.259  0.00  0.00    +0.000 A 
ATOM     27  C   UNL     1      -4.269  12.844  20.275  0.00  0.00    +0.000 A 
ATOM     28  O   UNL     1      -2.962  12.369  20.311  0.00  0.00    +0.000 OA
ATOM     29  C   UNL     1      -2.533  11.563  19.285  0.00  0.00    +0.000 A 
ATOM     30  C   UNL     1      -1.237  11.049  19.367  0.00  0.00    +0.000 A 
BRANCH  27  31
ATOM     31  C   UNL     1      -4.670  13.641  21.449  0.00  0.00    +0.000 A 
ATOM     32  C   UNL     1      -3.714  14.248  22.281  0.00  0.00    +0.000 A 
ATOM     33  C   UNL     1      -4.097  14.995  23.397  0.00  0.00    +0.000 A 
ATOM     34  C   UNL     1      -5.446  15.161  23.691  0.00  0.00    +0.000 A 
ATOM     35  C   UNL     1      -6.412  14.584  22.869  0.00  0.00    +0.000 A 
ATOM     36  C   UNL     1      -6.028  13.832  21.754  0.00  0.00    +0.000 A 
ENDBRANCH  27  31
ENDBRANCH  19  20
ENDBRANCH   1  19
TORSDOF 8
ENDMDL
MODEL 8
REMARK VINA RESULT:      -8.3      7.169      9.207
REMARK  Name = 
REMARK  8 active torsions:
REMARK  status: ('A' for Active; 'I' for Inactive)
REMARK    1  A    between atoms: C_2  and  C_3
REMARK    2  A    between atoms: C_2  and  C_10
REMARK    3  A    between atoms: N_13  and  C_14
REMARK    4  A    between atoms: C_14  and  C_15
REMARK    5  A    between atoms: C_15  and  C_16
REMARK    6  A    between atoms: C_16  and  O_17
REMARK    7  A    between atoms: O_17  and  C_18
REMARK    8  A    between atoms: C_25  and  C_26
REMARK                            x       y       z     vdW  Elec       q    Type
REMARK                         _______ _______ _______ _____ _____    ______ ____
ROOT
ATOM      1  C   UNL     1       1.990   9.389  18.162  0.00  0.00    +0.000 C 
ENDROOT
BRANCH   1   2
ATOM      2  C   UNL     1       2.221   7.897  17.954  0.00  0.00    +0.000 C 
BRANCH   2   3
ATOM      3  C   UNL     1       2.168   7.118  19.277  0.00  0.00    +0.000 C 
BRANCH   3   7
ATOM      4  C   UNL     1       4.107   3.520  17.912  0.00  0.00    +0.000 C 
ATOM      5  C   UNL     1       2.632   3.739  17.562  0.00  0.00    +0.000 C 
ATOM      6  C   UNL     1       2.164   5.176  17.815  0.00  0.00    +0.000 C 
ATOM      7  N   UNL     1       2.489   5.677  19.162  0.00  0.00    +0.000 NA
ATOM      8  C   UNL     1       3.900   5.468  19.514  0.00  0.00    +0.000 C 
ATOM      9  C   UNL     1       4.332   4.011  19.344  0.00  0.00    +0.000 C 
BRANCH   4  11
ATOM     10  O   UNL     1       4.906   4.040  15.686  0.00  0.00    +0.000 OA
ATOM     11  C   UNL     1       5.027   4.212  16.899  0.00  0.00    +0.000 C 
BRANCH  11  12
ATOM     12  C   UNL     1       6.095   5.156  17.354  0.00  0.00    +0.000 A 
ATOM     13  C   UNL     1       6.003   6.495  16.929  0.00  0.00    +0.000 A 
ATOM     14  C   UNL     1       6.901   7.454  17.396  0.00  0.00    +0.000 A 
ATOM     15  C   UNL     1       7.897   7.072  18.282  0.00  0.00    +0.000 A 
ATOM     16  F   UNL     1       8.730   7.996  18.775  0.00  0.00    +0.000 F 
ATOM     17  C   UNL     1       8.037   5.745  18.675  0.00  0.00    +0.000 A 
ATOM     18  C   UNL     1       7.143   4.779  18.203  0.00  0.00    +0.000 A 
ENDBRANCH  11  12
ENDBRANCH   4  11
ENDBRANCH   3   7
ENDBRANCH   2   3
ENDBRANCH   1   2
BRANCH   1  19
ATOM     19  O   UNL     1       1.266   9.587  19.383  0.00  0.00    +0.000 OA
BRANCH  19  20
ATOM     20  C   UNL     1       0.701  10.826  19.540  0.00  0.00    +0.000 A 
ATOM     21  C   UNL     1       1.243  12.023  19.065  0.00  0.00    +0.000 A 
ATOM     22  C   UNL     1       0.578  13.232  19.270  0.00  0.00    +0.000 A 
ATOM     23  C   UNL     1      -0.638  13.235  19.952  0.00  0.00    +0.000 A 
ATOM     24  C   UNL     1      -1.358  14.496  20.177  0.00  0.00    +0.000 A 
ATOM     25  O   UNL     1      -0.918  15.578  19.814  0.00  0.00    +0.000 OA
ATOM     26  C   UNL     1      -2.656  14.392  20.851  0.00  0.00    +0.000 A 
ATOM     27  C   UNL     1      -3.112  13.190  21.234  0.00  0.00    +0.000 A 
ATOM     28  O   UNL     1      -2.399  12.005  21.078  0.00  0.00    +0.000 OA
ATOM     29  C   UNL     1      -1.191  12.052  20.426  0.00  0.00    +0.000 A 
ATOM     30  C   UNL     1      -0.519  10.844  20.229  0.00  0.00    +0.000 A 
BRANCH  27  31
ATOM     31  C   UNL     1      -4.429  13.040  21.879  0.00  0.00    +0.000 A 
ATOM     32  C   UNL     1      -4.635  13.420  23.217  0.00  0.00    +0.000 A 
ATOM     33  C   UNL     1      -5.882  13.270  23.828  0.00  0.00    +0.000 A 
ATOM     34  C   UNL     1      -6.950  12.750  23.105  0.00  0.00    +0.000 A 
ATOM     35  C   UNL     1      -6.774  12.385  21.772  0.00  0.00    +0.000 A 
ATOM     36  C   UNL     1      -5.524  12.531  21.162  0.00  0.00    +0.000 A 
ENDBRANCH  27  31
ENDBRANCH  19  20
ENDBRANCH   1  19
TORSDOF 8
ENDMDL
MODEL 9
REMARK VINA RESULT:      -8.2      5.014      7.025
REMARK  Name = 
REMARK  8 active torsions:
REMARK  status: ('A' for Active; 'I' for Inactive)
REMARK    1  A    between atoms: C_2  and  C_3
REMARK    2  A    between atoms: C_2  and  C_10
REMARK    3  A    between atoms: N_13  and  C_14
REMARK    4  A    between atoms: C_14  and  C_15
REMARK    5  A    between atoms: C_15  and  C_16
REMARK    6  A    between atoms: C_16  and  O_17
REMARK    7  A    between atoms: O_17  and  C_18
REMARK    8  A    between atoms: C_25  and  C_26
REMARK                            x       y       z     vdW  Elec       q    Type
REMARK                         _______ _______ _______ _____ _____    ______ ____
ROOT
ATOM      1  C   UNL     1       1.603   8.756  19.219  0.00  0.00    +0.000 C 
ENDROOT
BRANCH   1   2
ATOM      2  C   UNL     1       2.255   7.469  18.729  0.00  0.00    +0.000 C 
BRANCH   2   3
ATOM      3  C   UNL     1       2.285   6.389  19.820  0.00  0.00    +0.000 C 
BRANCH   3   7
ATOM      4  C   UNL     1       4.141   3.297  17.461  0.00  0.00    +0.000 C 
ATOM      5  C   UNL     1       2.631   3.519  17.326  0.00  0.00    +0.000 C 
ATOM      6  C   UNL     1       2.161   4.836  17.954  0.00  0.00    +0.000 C 
ATOM      7  N   UNL     1       2.624   5.030  19.340  0.00  0.00    +0.000 NA
ATOM      8  C   UNL     1       4.070   4.815  19.485  0.00  0.00    +0.000 C 
ATOM      9  C   UNL     1       4.514   3.457  18.936  0.00  0.00    +0.000 C 
BRANCH   4  11
ATOM     10  O   UNL     1       4.688   4.336  15.342  0.00  0.00    +0.000 OA
ATOM     11  C   UNL     1       4.926   4.247  16.547  0.00  0.00    +0.000 C 
BRANCH  11  12
ATOM     12  C   UNL     1       5.998   5.131  17.101  0.00  0.00    +0.000 A 
ATOM     13  C   UNL     1       5.889   6.514  16.860  0.00  0.00    +0.000 A 
ATOM     14  C   UNL     1       6.792   7.409  17.432  0.00  0.00    +0.000 A 
ATOM     15  C   UNL     1       7.809   6.922  18.238  0.00  0.00    +0.000 A 
ATOM     16  F   UNL     1       8.648   7.779  18.832  0.00  0.00    +0.000 F 
ATOM     17  C   UNL     1       7.965   5.555  18.448  0.00  0.00    +0.000 A 
ATOM     18  C   UNL     1       7.066   4.653  17.871  0.00  0.00    +0.000 A 
ENDBRANCH  11  12
ENDBRANCH   4  11
ENDBRANCH   3   7
ENDBRANCH   2   3
ENDBRANCH   1   2
BRANCH   1  19
ATOM     19  O   UNL     1       1.163   9.520  18.090  0.00  0.00    +0.000 OA
BRANCH  19  20
ATOM     20  C   UNL     1       1.108  10.877  18.278  0.00  0.00    +0.000 A 
ATOM     21  C   UNL     1      -0.048  11.598  18.585  0.00  0.00    +0.000 A 
ATOM     22  C   UNL     1       0.009  12.981  18.769  0.00  0.00    +0.000 A 
ATOM     23  C   UNL     1       1.233  13.636  18.647  0.00  0.00    +0.000 A 
ATOM     24  C   UNL     1       1.318  15.090  18.840  0.00  0.00    +0.000 A 
ATOM     25  O   UNL     1       0.336  15.780  19.077  0.00  0.00    +0.000 OA
ATOM     26  C   UNL     1       2.656  15.681  18.749  0.00  0.00    +0.000 A 
ATOM     27  C   UNL     1       3.713  14.897  18.489  0.00  0.00    +0.000 A 
ATOM     28  O   UNL     1       3.622  13.530  18.244  0.00  0.00    +0.000 OA
ATOM     29  C   UNL     1       2.392  12.929  18.346  0.00  0.00    +0.000 A 
ATOM     30  C   UNL     1       2.330  11.548  18.153  0.00  0.00    +0.000 A 
BRANCH  27  31
ATOM     31  C   UNL     1       5.079  15.448  18.429  0.00  0.00    +0.000 A 
ATOM     32  C   UNL     1       5.376  16.723  18.941  0.00  0.00    +0.000 A 
ATOM     33  C   UNL     1       6.669  17.245  18.876  0.00  0.00    +0.000 A 
ATOM     34  C   UNL     1       7.693  16.493  18.310  0.00  0.00    +0.000 A 
ATOM     35  C   UNL     1       7.426  15.220  17.814  0.00  0.00    +0.000 A 
ATOM     36  C   UNL     1       6.130  14.698  17.875  0.00  0.00    +0.000 A 
ENDBRANCH  27  31
ENDBRANCH  19  20
ENDBRANCH   1  19
TORSDOF 8
ENDMDL
