MODEL 1
REMARK VINA RESULT:      -8.3      0.000      0.000
REMARK  Name = 
REMARK  0 active torsions:
REMARK  status: ('A' for Active; 'I' for Inactive)
REMARK                            x       y       z     vdW  Elec       q    Type
REMARK                         _______ _______ _______ _____ _____    ______ ____
ROOT
ATOM      1  O   UNL     1       0.814  10.959  18.471  0.00  0.00    +0.000 OA
ATOM      2  C   UNL     1       0.911  10.084  19.329  0.00  0.00    +0.000 A 
ATOM      3  C   UNL     1       0.312  10.293  20.658  0.00  0.00    +0.000 A 
ATOM      4  C   UNL     1      -0.301  11.506  20.996  0.00  0.00    +0.000 A 
ATOM      5  C   UNL     1      -0.859  11.664  22.264  0.00  0.00    +0.000 A 
ATOM      6  C   UNL     1      -0.806  10.615  23.183  0.00  0.00    +0.000 A 
ATOM      7  C   UNL     1      -0.195   9.410  22.832  0.00  0.00    +0.000 A 
ATOM      8  C   UNL     1       0.369   9.239  21.566  0.00  0.00    +0.000 A 
ATOM      9  N   UNL     1       0.969   8.015  21.259  0.00  0.00    +0.000 NA
ATOM     10  C   UNL     1       1.526   7.864  20.099  0.00  0.00    +0.000 A 
ATOM     11  N   UNL     1       1.550   8.864  19.130  0.00  0.00    +0.000 N 
ATOM     12  C   UNL     1       2.072   8.579  17.798  0.00  0.00    +0.000 C 
ATOM     13  C   UNL     1       3.323   7.711  17.845  0.00  0.00    +0.000 C 
ATOM     14  C   UNL     1       3.060   6.485  18.673  0.00  0.00    +0.000 A 
ATOM     15  C   UNL     1       3.717   5.278  18.404  0.00  0.00    +0.000 A 
ATOM     16  C   UNL     1       3.494   4.163  19.215  0.00  0.00    +0.000 A 
ATOM     17  C   UNL     1       2.627   4.256  20.303  0.00  0.00    +0.000 A 
ATOM     18 BR   UNL     1       2.340   2.748  21.405  0.00  0.00    +0.000 Br
ATOM     19  C   UNL     1       1.977   5.454  20.589  0.00  0.00    +0.000 A 
ATOM     20  C   UNL     1       2.193   6.570  19.773  0.00  0.00    +0.000 A 
ENDROOT
TORSDOF 0
ENDMDL
MODEL 2
REMARK VINA RESULT:      -8.2      2.637      5.903
REMARK  Name = 
REMARK  0 active torsions:
REMARK  status: ('A' for Active; 'I' for Inactive)
REMARK                            x       y       z     vdW  Elec       q    Type
REMARK                         _______ _______ _______ _____ _____    ______ ____
ROOT
ATOM      1  O   UNL     1       4.304   5.587  17.626  0.00  0.00    +0.000 OA
ATOM      2  C   UNL     1       3.489   5.750  18.531  0.00  0.00    +0.000 A 
ATOM      3  C   UNL     1       3.217   4.654  19.477  0.00  0.00    +0.000 A 
ATOM      4  C   UNL     1       3.811   3.395  19.320  0.00  0.00    +0.000 A 
ATOM      5  C   UNL     1       3.530   2.383  20.237  0.00  0.00    +0.000 A 
ATOM      6  C   UNL     1       2.666   2.632  21.305  0.00  0.00    +0.000 A 
ATOM      7  C   UNL     1       2.084   3.893  21.452  0.00  0.00    +0.000 A 
ATOM      8  C   UNL     1       2.356   4.914  20.539  0.00  0.00    +0.000 A 
ATOM      9  N   UNL     1       1.751   6.160  20.727  0.00  0.00    +0.000 NA
ATOM     10  C   UNL     1       1.970   7.099  19.863  0.00  0.00    +0.000 A 
ATOM     11  N   UNL     1       2.792   6.934  18.751  0.00  0.00    +0.000 N 
ATOM     12  C   UNL     1       3.103   8.074  17.896  0.00  0.00    +0.000 C 
ATOM     13  C   UNL     1       1.889   8.964  17.662  0.00  0.00    +0.000 C 
ATOM     14  C   UNL     1       1.273   9.340  18.978  0.00  0.00    +0.000 A 
ATOM     15  C   UNL     1       0.606  10.561  19.142  0.00  0.00    +0.000 A 
ATOM     16  C   UNL     1      -0.002  10.869  20.360  0.00  0.00    +0.000 A 
ATOM     17  C   UNL     1       0.042   9.955  21.412  0.00  0.00    +0.000 A 
ATOM     18 BR   UNL     1      -0.794  10.373  23.055  0.00  0.00    +0.000 Br
ATOM     19  C   UNL     1       0.690   8.732  21.259  0.00  0.00    +0.000 A 
ATOM     20  C   UNL     1       1.306   8.424  20.041  0.00  0.00    +0.000 A 
ENDROOT
TORSDOF 0
ENDMDL
MODEL 3
REMARK VINA RESULT:      -8.1      5.187      6.803
REMARK  Name = 
REMARK  0 active torsions:
REMARK  status: ('A' for Active; 'I' for Inactive)
REMARK                            x       y       z     vdW  Elec       q    Type
REMARK                         _______ _______ _______ _____ _____    ______ ____
ROOT
ATOM      1  O   UNL     1       3.669   6.409  19.688  0.00  0.00    +0.000 OA
ATOM      2  C   UNL     1       3.678   5.516  18.844  0.00  0.00    +0.000 A 
ATOM      3  C   UNL     1       2.704   4.414  18.935  0.00  0.00    +0.000 A 
ATOM      4  C   UNL     1       1.814   4.318  20.012  0.00  0.00    +0.000 A 
ATOM      5  C   UNL     1       0.905   3.261  20.060  0.00  0.00    +0.000 A 
ATOM      6  C   UNL     1       0.887   2.312  19.037  0.00  0.00    +0.000 A 
ATOM      7  C   UNL     1       1.777   2.422  17.967  0.00  0.00    +0.000 A 
ATOM      8  C   UNL     1       2.693   3.475  17.907  0.00  0.00    +0.000 A 
ATOM      9  N   UNL     1       3.564   3.544  16.817  0.00  0.00    +0.000 NA
ATOM     10  C   UNL     1       4.440   4.497  16.775  0.00  0.00    +0.000 A 
ATOM     11  N   UNL     1       4.554   5.470  17.764  0.00  0.00    +0.000 N 
ATOM     12  C   UNL     1       5.469   6.592  17.585  0.00  0.00    +0.000 C 
ATOM     13  C   UNL     1       6.792   6.160  16.964  0.00  0.00    +0.000 C 
ATOM     14  C   UNL     1       6.532   5.378  15.709  0.00  0.00    +0.000 A 
ATOM     15  C   UNL     1       7.444   5.395  14.645  0.00  0.00    +0.000 A 
ATOM     16  C   UNL     1       7.206   4.623  13.507  0.00  0.00    +0.000 A 
ATOM     17  C   UNL     1       6.068   3.821  13.434  0.00  0.00    +0.000 A 
ATOM     18 BR   UNL     1       5.759   2.767  11.895  0.00  0.00    +0.000 Br
ATOM     19  C   UNL     1       5.160   3.784  14.489  0.00  0.00    +0.000 A 
ATOM     20  C   UNL     1       5.392   4.563  15.628  0.00  0.00    +0.000 A 
ENDROOT
TORSDOF 0
ENDMDL
MODEL 4
REMARK VINA RESULT:      -8.0      3.704      7.276
REMARK  Name = 
REMARK  0 active torsions:
REMARK  status: ('A' for Active; 'I' for Inactive)
REMARK                            x       y       z     vdW  Elec       q    Type
REMARK                         _______ _______ _______ _____ _____    ______ ____
ROOT
ATOM      1  O   UNL     1       3.780   2.530  18.033  0.00  0.00    +0.000 OA
ATOM      2  C   UNL     1       3.861   3.742  17.842  0.00  0.00    +0.000 A 
ATOM      3  C   UNL     1       4.720   4.256  16.762  0.00  0.00    +0.000 A 
ATOM      4  C   UNL     1       5.512   3.396  15.991  0.00  0.00    +0.000 A 
ATOM      5  C   UNL     1       6.310   3.921  14.975  0.00  0.00    +0.000 A 
ATOM      6  C   UNL     1       6.310   5.295  14.731  0.00  0.00    +0.000 A 
ATOM      7  C   UNL     1       5.512   6.142  15.504  0.00  0.00    +0.000 A 
ATOM      8  C   UNL     1       4.710   5.628  16.526  0.00  0.00    +0.000 A 
ATOM      9  N   UNL     1       3.928   6.513  17.272  0.00  0.00    +0.000 NA
ATOM     10  C   UNL     1       3.210   6.047  18.245  0.00  0.00    +0.000 A 
ATOM     11  N   UNL     1       3.170   4.697  18.582  0.00  0.00    +0.000 N 
ATOM     12  C   UNL     1       2.236   4.224  19.598  0.00  0.00    +0.000 C 
ATOM     13  C   UNL     1       2.146   5.177  20.783  0.00  0.00    +0.000 C 
ATOM     14  C   UNL     1       1.864   6.569  20.295  0.00  0.00    +0.000 A 
ATOM     15  C   UNL     1       1.138   7.476  21.078  0.00  0.00    +0.000 A 
ATOM     16  C   UNL     1       0.928   8.780  20.627  0.00  0.00    +0.000 A 
ATOM     17  C   UNL     1       1.453   9.185  19.400  0.00  0.00    +0.000 A 
ATOM     18 BR   UNL     1       1.177  10.956  18.800  0.00  0.00    +0.000 Br
ATOM     19  C   UNL     1       2.188   8.298  18.617  0.00  0.00    +0.000 A 
ATOM     20  C   UNL     1       2.393   6.989  19.065  0.00  0.00    +0.000 A 
ENDROOT
TORSDOF 0
ENDMDL
MODEL 5
REMARK VINA RESULT:      -7.4      0.837      1.003
REMARK  Name = 
REMARK  0 active torsions:
REMARK  status: ('A' for Active; 'I' for Inactive)
REMARK                            x       y       z     vdW  Elec       q    Type
REMARK                         _______ _______ _______ _____ _____    ______ ____
ROOT
ATOM      1  O   UNL     1       1.900  10.393  17.619  0.00  0.00    +0.000 OA
ATOM      2  C   UNL     1       1.761   9.648  18.587  0.00  0.00    +0.000 A 
ATOM      3  C   UNL     1       1.031  10.122  19.775  0.00  0.00    +0.000 A 
ATOM      4  C   UNL     1       0.557  11.437  19.861  0.00  0.00    +0.000 A 
ATOM      5  C   UNL     1      -0.132  11.847  21.002  0.00  0.00    +0.000 A 
ATOM      6  C   UNL     1      -0.346  10.946  22.046  0.00  0.00    +0.000 A 
ATOM      7  C   UNL     1       0.129   9.636  21.946  0.00  0.00    +0.000 A 
ATOM      8  C   UNL     1       0.821   9.214  20.809  0.00  0.00    +0.000 A 
ATOM      9  N   UNL     1       1.277   7.894  20.754  0.00  0.00    +0.000 NA
ATOM     10  C   UNL     1       1.952   7.508  19.718  0.00  0.00    +0.000 A 
ATOM     11  N   UNL     1       2.241   8.343  18.643  0.00  0.00    +0.000 N 
ATOM     12  C   UNL     1       2.885   7.804  17.450  0.00  0.00    +0.000 C 
ATOM     13  C   UNL     1       3.984   6.807  17.792  0.00  0.00    +0.000 C 
ATOM     14  C   UNL     1       3.446   5.757  18.722  0.00  0.00    +0.000 A 
ATOM     15  C   UNL     1       3.955   4.452  18.711  0.00  0.00    +0.000 A 
ATOM     16  C   UNL     1       3.475   3.505  19.616  0.00  0.00    +0.000 A 
ATOM     17  C   UNL     1       2.496   3.862  20.543  0.00  0.00    +0.000 A 
ATOM     18 BR   UNL     1       1.859   2.578  21.776  0.00  0.00    +0.000 Br
ATOM     19  C   UNL     1       1.990   5.159  20.575  0.00  0.00    +0.000 A 
ATOM     20  C   UNL     1       2.465   6.108  19.663  0.00  0.00    +0.000 A 
ENDROOT
TORSDOF 0
ENDMDL
MODEL 6
REMARK VINA RESULT:      -7.1      2.502      3.751
REMARK  Name = 
REMARK  0 active torsions:
REMARK  status: ('A' for Active; 'I' for Inactive)
REMARK                            x       y       z     vdW  Elec       q    Type
REMARK                         _______ _______ _______ _____ _____    ______ ____
ROOT
ATOM      1  O   UNL     1       0.889   7.766  21.767  0.00  0.00    +0.000 OA
ATOM      2  C   UNL     1       1.373   7.840  20.640  0.00  0.00    +0.000 A 
ATOM      3  C   UNL     1       1.333   9.119  19.910  0.00  0.00    +0.000 A 
ATOM      4  C   UNL     1       0.682  10.239  20.440  0.00  0.00    +0.000 A 
ATOM      5  C   UNL     1       0.669  11.433  19.719  0.00  0.00    +0.000 A 
ATOM      6  C   UNL     1       1.306  11.503  18.480  0.00  0.00    +0.000 A 
ATOM      7  C   UNL     1       1.955  10.380  17.964  0.00  0.00    +0.000 A 
ATOM      8  C   UNL     1       1.974   9.178  18.675  0.00  0.00    +0.000 A 
ATOM      9  N   UNL     1       2.637   8.081  18.119  0.00  0.00    +0.000 NA
ATOM     10  C   UNL     1       2.626   6.954  18.758  0.00  0.00    +0.000 A 
ATOM     11  N   UNL     1       1.992   6.780  19.984  0.00  0.00    +0.000 N 
ATOM     12  C   UNL     1       2.137   5.523  20.711  0.00  0.00    +0.000 C 
ATOM     13  C   UNL     1       2.073   4.315  19.787  0.00  0.00    +0.000 C 
ATOM     14  C   UNL     1       3.052   4.484  18.661  0.00  0.00    +0.000 A 
ATOM     15  C   UNL     1       3.661   3.375  18.059  0.00  0.00    +0.000 A 
ATOM     16  C   UNL     1       4.532   3.552  16.983  0.00  0.00    +0.000 A 
ATOM     17  C   UNL     1       4.784   4.834  16.495  0.00  0.00    +0.000 A 
ATOM     18 BR   UNL     1       5.953   5.066  15.028  0.00  0.00    +0.000 Br
ATOM     19  C   UNL     1       4.175   5.944  17.074  0.00  0.00    +0.000 A 
ATOM     20  C   UNL     1       3.308   5.770  18.158  0.00  0.00    +0.000 A 
ENDROOT
TORSDOF 0
ENDMDL
MODEL 7
REMARK VINA RESULT:      -7.0      4.904      8.136
REMARK  Name = 
REMARK  0 active torsions:
REMARK  status: ('A' for Active; 'I' for Inactive)
REMARK                            x       y       z     vdW  Elec       q    Type
REMARK                         _______ _______ _______ _____ _____    ______ ____
ROOT
ATOM      1  O   UNL     1       7.917   6.301  15.814  0.00  0.00    +0.000 OA
ATOM      2  C   UNL     1       6.883   5.647  15.697  0.00  0.00    +0.000 A 
ATOM      3  C   UNL     1       6.630   4.893  14.458  0.00  0.00    +0.000 A 
ATOM      4  C   UNL     1       7.509   4.967  13.370  0.00  0.00    +0.000 A 
ATOM      5  C   UNL     1       7.236   4.236  12.214  0.00  0.00    +0.000 A 
ATOM      6  C   UNL     1       6.095   3.435  12.151  0.00  0.00    +0.000 A 
ATOM      7  C   UNL     1       5.229   3.367  13.245  0.00  0.00    +0.000 A 
ATOM      8  C   UNL     1       5.490   4.095  14.407  0.00  0.00    +0.000 A 
ATOM      9  N   UNL     1       4.595   3.995  15.476  0.00  0.00    +0.000 NA
ATOM     10  C   UNL     1       4.813   4.697  16.542  0.00  0.00    +0.000 A 
ATOM     11  N   UNL     1       5.907   5.546  16.685  0.00  0.00    +0.000 N 
ATOM     12  C   UNL     1       6.164   6.200  17.963  0.00  0.00    +0.000 C 
ATOM     13  C   UNL     1       4.884   6.698  18.621  0.00  0.00    +0.000 C 
ATOM     14  C   UNL     1       3.884   5.581  18.697  0.00  0.00    +0.000 A 
ATOM     15  C   UNL     1       2.942   5.523  19.733  0.00  0.00    +0.000 A 
ATOM     16  C   UNL     1       1.991   4.502  19.759  0.00  0.00    +0.000 A 
ATOM     17  C   UNL     1       1.968   3.546  18.745  0.00  0.00    +0.000 A 
ATOM     18 BR   UNL     1       0.668   2.173  18.778  0.00  0.00    +0.000 Br
ATOM     19  C   UNL     1       2.889   3.599  17.701  0.00  0.00    +0.000 A 
ATOM     20  C   UNL     1       3.848   4.617  17.678  0.00  0.00    +0.000 A 
ENDROOT
TORSDOF 0
ENDMDL
MODEL 8
REMARK VINA RESULT:      -6.3      5.520      8.110
REMARK  Name = 
REMARK  0 active torsions:
REMARK  status: ('A' for Active; 'I' for Inactive)
REMARK                            x       y       z     vdW  Elec       q    Type
REMARK                         _______ _______ _______ _____ _____    ______ ____
ROOT
ATOM      1  O   UNL     1      -0.077   9.936  18.825  0.00  0.00    +0.000 OA
ATOM      2  C   UNL     1      -1.058  10.661  18.981  0.00  0.00    +0.000 A 
ATOM      3  C   UNL     1      -2.100  10.716  17.942  0.00  0.00    +0.000 A 
ATOM      4  C   UNL     1      -1.961  10.019  16.735  0.00  0.00    +0.000 A 
ATOM      5  C   UNL     1      -2.971  10.094  15.777  0.00  0.00    +0.000 A 
ATOM      6  C   UNL     1      -4.111  10.859  16.027  0.00  0.00    +0.000 A 
ATOM      7  C   UNL     1      -4.239  11.547  17.236  0.00  0.00    +0.000 A 
ATOM      8  C   UNL     1      -3.234  11.480  18.203  0.00  0.00    +0.000 A 
ATOM      9  N   UNL     1      -3.406  12.185  19.398  0.00  0.00    +0.000 NA
ATOM     10  C   UNL     1      -2.460  12.156  20.283  0.00  0.00    +0.000 A 
ATOM     11  N   UNL     1      -1.276  11.446  20.109  0.00  0.00    +0.000 N 
ATOM     12  C   UNL     1      -0.315  11.346  21.203  0.00  0.00    +0.000 C 
ATOM     13  C   UNL     1      -0.162  12.662  21.954  0.00  0.00    +0.000 C 
ATOM     14  C   UNL     1      -1.513  13.168  22.373  0.00  0.00    +0.000 A 
ATOM     15  C   UNL     1      -1.670  13.934  23.535  0.00  0.00    +0.000 A 
ATOM     16  C   UNL     1      -2.926  14.434  23.881  0.00  0.00    +0.000 A 
ATOM     17  C   UNL     1      -4.025  14.185  23.059  0.00  0.00    +0.000 A 
ATOM     18 BR   UNL     1      -5.721  14.877  23.525  0.00  0.00    +0.000 Br
ATOM     19  C   UNL     1      -3.881  13.436  21.893  0.00  0.00    +0.000 A 
ATOM     20  C   UNL     1      -2.624  12.927  21.550  0.00  0.00    +0.000 A 
ENDROOT
TORSDOF 0
ENDMDL
