MODEL 1
REMARK VINA RESULT:      -8.1      0.000      0.000
REMARK  Name = 
REMARK  13 active torsions:
REMARK  status: ('A' for Active; 'I' for Inactive)
REMARK    1  A    between atoms: C_1  and  C_2
REMARK    2  A    between atoms: C_2  and  C_3
REMARK    3  A    between atoms: C_3  and  C_4
REMARK    4  A    between atoms: C_4  and  C_5
REMARK    5  A    between atoms: C_5  and  C_6
REMARK    6  A    between atoms: C_6  and  C_7
REMARK    7  A    between atoms: C_9  and  O_10
REMARK    8  A    between atoms: O_10  and  C_11
REMARK    9  A    between atoms: C_11  and  C_12
REMARK   10  A    between atoms: C_12  and  C_13
REMARK   11  A    between atoms: C_13  and  C_14
REMARK   12  A    between atoms: C_16  and  C_17
REMARK   13  A    between atoms: C_17  and  N_18
REMARK                            x       y       z     vdW  Elec       q    Type
REMARK                         _______ _______ _______ _____ _____    ______ ____
ROOT
ATOM      1  C   UNL     1       7.565   6.364  17.561  0.00  0.00    +0.000 C 
ATOM      2  O   UNL     1       7.424   6.126  16.181  0.00  0.00    +0.000 OA
ATOM      3  C   UNL     1       6.347   5.333  15.712  0.00  0.00    +0.000 C 
ATOM      4  C   UNL     1       5.515   4.641  16.744  0.00  0.00    +0.000 C 
ATOM      5  C   UNL     1       5.695   4.675  18.073  0.00  0.00    +0.000 C 
ATOM      6  C   UNL     1       6.849   5.447  18.559  0.00  0.00    +0.000 C 
ATOM      7  O   UNL     1       7.201   5.362  19.735  0.00  0.00    +0.000 OA
ENDROOT
BRANCH   1   8
ATOM      8  C   UNL     1       7.240   7.847  17.798  0.00  0.00    +0.000 C 
BRANCH   8   9
ATOM      9  C   UNL     1       8.433   8.637  18.319  0.00  0.00    +0.000 C 
BRANCH   9  10
ATOM     10  C   UNL     1       8.328  10.132  18.052  0.00  0.00    +0.000 C 
BRANCH  10  11
ATOM     11  C   UNL     1       9.525  10.831  18.694  0.00  0.00    +0.000 C 
BRANCH  11  13
ATOM     12  C   UNL     1       9.277  12.063  20.857  0.00  0.00    +0.000 C 
ATOM     13  C   UNL     1       9.505  10.705  20.211  0.00  0.00    +0.000 C 
ENDBRANCH  11  13
ENDBRANCH  10  11
ENDBRANCH   9  10
ENDBRANCH   8   9
ENDBRANCH   1   8
BRANCH   3  14
ATOM     14  O   UNL     1       6.865   4.308  14.864  0.00  0.00    +0.000 OA
BRANCH  14  15
ATOM     15  C   UNL     1       5.838   3.758  14.041  0.00  0.00    +0.000 C 
BRANCH  15  16
ATOM     16  C   UNL     1       6.347   3.634  12.614  0.00  0.00    +0.000 C 
BRANCH  16  17
ATOM     17  C   UNL     1       5.486   2.646  11.833  0.00  0.00    +0.000 C 
ATOM     18  C   UNL     1       4.199   3.281  11.343  0.00  0.00    +0.000 C 
ENDBRANCH  16  17
ENDBRANCH  15  16
ENDBRANCH  14  15
ENDBRANCH   3  14
BRANCH   5  19
ATOM     19  C   UNL     1       4.881   3.941  19.107  0.00  0.00    +0.000 C 
BRANCH  19  20
ATOM     20  N   UNL     1       3.413   4.122  19.016  0.00  0.00    +0.000 NA
ATOM     21  C   UNL     1       2.764   2.815  18.786  0.00  0.00    +0.000 C 
ATOM     22  C   UNL     1       1.240   2.891  18.846  0.00  0.00    +0.000 C 
ATOM     23  C   UNL     1       0.777   3.485  20.169  0.00  0.00    +0.000 C 
ATOM     24  C   UNL     1       1.426   4.849  20.361  0.00  0.00    +0.000 C 
ATOM     25  C   UNL     1       2.948   4.750  20.268  0.00  0.00    +0.000 C 
ENDBRANCH  19  20
ENDBRANCH   5  19
TORSDOF 11
ENDMDL
MODEL 2
REMARK VINA RESULT:      -7.8      0.938      1.183
REMARK  Name = 
REMARK  13 active torsions:
REMARK  status: ('A' for Active; 'I' for Inactive)
REMARK    1  A    between atoms: C_1  and  C_2
REMARK    2  A    between atoms: C_2  and  C_3
REMARK    3  A    between atoms: C_3  and  C_4
REMARK    4  A    between atoms: C_4  and  C_5
REMARK    5  A    between atoms: C_5  and  C_6
REMARK    6  A    between atoms: C_6  and  C_7
REMARK    7  A    between atoms: C_9  and  O_10
REMARK    8  A    between atoms: O_10  and  C_11
REMARK    9  A    between atoms: C_11  and  C_12
REMARK   10  A    between atoms: C_12  and  C_13
REMARK   11  A    between atoms: C_13  and  C_14
REMARK   12  A    between atoms: C_16  and  C_17
REMARK   13  A    between atoms: C_17  and  N_18
REMARK                            x       y       z     vdW  Elec       q    Type
REMARK                         _______ _______ _______ _____ _____    ______ ____
ROOT
ATOM      1  C   UNL     1       7.338   6.124  17.239  0.00  0.00    +0.000 C 
ATOM      2  O   UNL     1       7.317   6.180  15.832  0.00  0.00    +0.000 OA
ATOM      3  C   UNL     1       6.327   5.463  15.117  0.00  0.00    +0.000 C 
ATOM      4  C   UNL     1       5.460   4.533  15.905  0.00  0.00    +0.000 C 
ATOM      5  C   UNL     1       5.536   4.290  17.222  0.00  0.00    +0.000 C 
ATOM      6  C   UNL     1       6.603   4.986  17.957  0.00  0.00    +0.000 C 
ATOM      7  O   UNL     1       6.869   4.667  19.115  0.00  0.00    +0.000 OA
ENDROOT
BRANCH   1   8
ATOM      8  C   UNL     1       6.910   7.508  17.752  0.00  0.00    +0.000 C 
BRANCH   8   9
ATOM      9  C   UNL     1       7.928   8.596  17.434  0.00  0.00    +0.000 C 
BRANCH   9  10
ATOM     10  C   UNL     1       8.600   9.171  18.673  0.00  0.00    +0.000 C 
BRANCH  10  11
ATOM     11  C   UNL     1       9.136  10.561  18.340  0.00  0.00    +0.000 C 
BRANCH  11  13
ATOM     12  C   UNL     1      11.344  11.702  18.629  0.00  0.00    +0.000 C 
ATOM     13  C   UNL     1      10.189  11.016  19.341  0.00  0.00    +0.000 C 
ENDBRANCH  11  13
ENDBRANCH  10  11
ENDBRANCH   9  10
ENDBRANCH   8   9
ENDBRANCH   1   8
BRANCH   3  14
ATOM     14  O   UNL     1       6.966   4.665  14.121  0.00  0.00    +0.000 OA
BRANCH  14  15
ATOM     15  C   UNL     1       6.074   3.678  13.606  0.00  0.00    +0.000 C 
BRANCH  15  16
ATOM     16  C   UNL     1       6.382   3.438  12.136  0.00  0.00    +0.000 C 
BRANCH  16  17
ATOM     17  C   UNL     1       5.515   2.304  11.596  0.00  0.00    +0.000 C 
ATOM     18  C   UNL     1       6.348   1.123  11.138  0.00  0.00    +0.000 C 
ENDBRANCH  16  17
ENDBRANCH  15  16
ENDBRANCH  14  15
ENDBRANCH   3  14
BRANCH   5  19
ATOM     19  C   UNL     1       4.690   3.319  18.005  0.00  0.00    +0.000 C 
BRANCH  19  20
ATOM     20  N   UNL     1       3.404   3.852  18.511  0.00  0.00    +0.000 NA
ATOM     21  C   UNL     1       2.282   3.171  17.834  0.00  0.00    +0.000 C 
ATOM     22  C   UNL     1       0.921   3.544  18.419  0.00  0.00    +0.000 C 
ATOM     23  C   UNL     1       0.879   3.271  19.916  0.00  0.00    +0.000 C 
ATOM     24  C   UNL     1       2.018   4.018  20.595  0.00  0.00    +0.000 C 
ATOM     25  C   UNL     1       3.364   3.649  19.973  0.00  0.00    +0.000 C 
ENDBRANCH  19  20
ENDBRANCH   5  19
TORSDOF 11
ENDMDL
MODEL 3
REMARK VINA RESULT:      -7.7      1.069      1.403
REMARK  Name = 
REMARK  13 active torsions:
REMARK  status: ('A' for Active; 'I' for Inactive)
REMARK    1  A    between atoms: C_1  and  C_2
REMARK    2  A    between atoms: C_2  and  C_3
REMARK    3  A    between atoms: C_3  and  C_4
REMARK    4  A    between atoms: C_4  and  C_5
REMARK    5  A    between atoms: C_5  and  C_6
REMARK    6  A    between atoms: C_6  and  C_7
REMARK    7  A    between atoms: C_9  and  O_10
REMARK    8  A    between atoms: O_10  and  C_11
REMARK    9  A    between atoms: C_11  and  C_12
REMARK   10  A    between atoms: C_12  and  C_13
REMARK   11  A    between atoms: C_13  and  C_14
REMARK   12  A    between atoms: C_16  and  C_17
REMARK   13  A    between atoms: C_17  and  N_18
REMARK                            x       y       z     vdW  Elec       q    Type
REMARK                         _______ _______ _______ _____ _____    ______ ____
ROOT
ATOM      1  C   UNL     1       7.686   6.569  17.841  0.00  0.00    +0.000 C 
ATOM      2  O   UNL     1       7.131   6.940  16.601  0.00  0.00    +0.000 OA
ATOM      3  C   UNL     1       5.733   6.832  16.399  0.00  0.00    +0.000 C 
ATOM      4  C   UNL     1       4.943   6.151  17.470  0.00  0.00    +0.000 C 
ATOM      5  C   UNL     1       5.424   5.611  18.600  0.00  0.00    +0.000 C 
ATOM      6  C   UNL     1       6.882   5.667  18.785  0.00  0.00    +0.000 C 
ATOM      7  O   UNL     1       7.420   5.022  19.684  0.00  0.00    +0.000 OA
ENDROOT
BRANCH   1   8
ATOM      8  C   UNL     1       8.155   7.860  18.529  0.00  0.00    +0.000 C 
BRANCH   8   9
ATOM      9  C   UNL     1       7.924   9.102  17.676  0.00  0.00    +0.000 C 
BRANCH   9  10
ATOM     10  C   UNL     1       8.894  10.233  17.986  0.00  0.00    +0.000 C 
BRANCH  10  11
ATOM     11  C   UNL     1       9.273  10.163  19.464  0.00  0.00    +0.000 C 
BRANCH  11  13
ATOM     12  C   UNL     1      10.713  12.030  18.627  0.00  0.00    +0.000 C 
ATOM     13  C   UNL     1      10.213  11.294  19.860  0.00  0.00    +0.000 C 
ENDBRANCH  11  13
ENDBRANCH  10  11
ENDBRANCH   9  10
ENDBRANCH   8   9
ENDBRANCH   1   8
BRANCH   3  14
ATOM     14  O   UNL     1       5.498   6.093  15.199  0.00  0.00    +0.000 OA
BRANCH  14  15
ATOM     15  C   UNL     1       5.175   4.734  15.491  0.00  0.00    +0.000 C 
BRANCH  15  16
ATOM     16  C   UNL     1       6.238   3.825  14.894  0.00  0.00    +0.000 C 
BRANCH  16  17
ATOM     17  C   UNL     1       6.593   4.286  13.484  0.00  0.00    +0.000 C 
ATOM     18  C   UNL     1       6.007   3.372  12.425  0.00  0.00    +0.000 C 
ENDBRANCH  16  17
ENDBRANCH  15  16
ENDBRANCH  14  15
ENDBRANCH   3  14
BRANCH   5  19
ATOM     19  C   UNL     1       4.631   4.886  19.657  0.00  0.00    +0.000 C 
BRANCH  19  20
ATOM     20  N   UNL     1       3.206   4.641  19.334  0.00  0.00    +0.000 NA
ATOM     21  C   UNL     1       3.067   3.338  18.653  0.00  0.00    +0.000 C 
ATOM     22  C   UNL     1       1.610   2.934  18.435  0.00  0.00    +0.000 C 
ATOM     23  C   UNL     1       0.846   2.926  19.752  0.00  0.00    +0.000 C 
ATOM     24  C   UNL     1       0.969   4.292  20.412  0.00  0.00    +0.000 C 
ATOM     25  C   UNL     1       2.434   4.684  20.592  0.00  0.00    +0.000 C 
ENDBRANCH  19  20
ENDBRANCH   5  19
TORSDOF 11
ENDMDL
MODEL 4
REMARK VINA RESULT:      -7.7      1.095      1.629
REMARK  Name = 
REMARK  13 active torsions:
REMARK  status: ('A' for Active; 'I' for Inactive)
REMARK    1  A    between atoms: C_1  and  C_2
REMARK    2  A    between atoms: C_2  and  C_3
REMARK    3  A    between atoms: C_3  and  C_4
REMARK    4  A    between atoms: C_4  and  C_5
REMARK    5  A    between atoms: C_5  and  C_6
REMARK    6  A    between atoms: C_6  and  C_7
REMARK    7  A    between atoms: C_9  and  O_10
REMARK    8  A    between atoms: O_10  and  C_11
REMARK    9  A    between atoms: C_11  and  C_12
REMARK   10  A    between atoms: C_12  and  C_13
REMARK   11  A    between atoms: C_13  and  C_14
REMARK   12  A    between atoms: C_16  and  C_17
REMARK   13  A    between atoms: C_17  and  N_18
REMARK                            x       y       z     vdW  Elec       q    Type
REMARK                         _______ _______ _______ _____ _____    ______ ____
ROOT
ATOM      1  C   UNL     1       7.303   5.613  17.967  0.00  0.00    +0.000 C 
ATOM      2  O   UNL     1       7.611   5.417  16.608  0.00  0.00    +0.000 OA
ATOM      3  C   UNL     1       6.588   5.527  15.634  0.00  0.00    +0.000 C 
ATOM      4  C   UNL     1       5.187   5.670  16.135  0.00  0.00    +0.000 C 
ATOM      5  C   UNL     1       4.792   5.686  17.417  0.00  0.00    +0.000 C 
ATOM      6  C   UNL     1       5.844   5.510  18.429  0.00  0.00    +0.000 C 
ATOM      7  O   UNL     1       5.546   5.310  19.606  0.00  0.00    +0.000 OA
ENDROOT
BRANCH   1   8
ATOM      8  C   UNL     1       7.955   6.938  18.391  0.00  0.00    +0.000 C 
BRANCH   8   9
ATOM      9  C   UNL     1       7.788   8.038  17.350  0.00  0.00    +0.000 C 
BRANCH   9  10
ATOM     10  C   UNL     1       7.988   9.437  17.916  0.00  0.00    +0.000 C 
BRANCH  10  11
ATOM     11  C   UNL     1       9.153   9.405  18.903  0.00  0.00    +0.000 C 
BRANCH  11  13
ATOM     12  C   UNL     1       9.941  11.578  17.948  0.00  0.00    +0.000 C 
ATOM     13  C   UNL     1       9.659  10.804  19.226  0.00  0.00    +0.000 C 
ENDBRANCH  11  13
ENDBRANCH  10  11
ENDBRANCH   9  10
ENDBRANCH   8   9
ENDBRANCH   1   8
BRANCH   3  14
ATOM     14  O   UNL     1       6.603   4.355  14.818  0.00  0.00    +0.000 OA
BRANCH  14  15
ATOM     15  C   UNL     1       7.239   4.610  13.567  0.00  0.00    +0.000 C 
BRANCH  15  16
ATOM     16  C   UNL     1       6.606   3.741  12.493  0.00  0.00    +0.000 C 
BRANCH  16  17
ATOM     17  C   UNL     1       5.110   3.589  12.754  0.00  0.00    +0.000 C 
ATOM     18  C   UNL     1       4.334   3.345  11.474  0.00  0.00    +0.000 C 
ENDBRANCH  16  17
ENDBRANCH  15  16
ENDBRANCH  14  15
ENDBRANCH   3  14
BRANCH   5  19
ATOM     19  C   UNL     1       3.374   5.786  17.918  0.00  0.00    +0.000 C 
BRANCH  19  20
ATOM     20  N   UNL     1       2.890   4.631  18.710  0.00  0.00    +0.000 NA
ATOM     21  C   UNL     1       1.963   5.102  19.759  0.00  0.00    +0.000 C 
ATOM     22  C   UNL     1       1.290   3.956  20.513  0.00  0.00    +0.000 C 
ATOM     23  C   UNL     1       0.571   3.020  19.552  0.00  0.00    +0.000 C 
ATOM     24  C   UNL     1       1.558   2.517  18.508  0.00  0.00    +0.000 C 
ATOM     25  C   UNL     1       2.237   3.681  17.789  0.00  0.00    +0.000 C 
ENDBRANCH  19  20
ENDBRANCH   5  19
TORSDOF 11
ENDMDL
MODEL 5
REMARK VINA RESULT:      -7.7      1.170      1.430
REMARK  Name = 
REMARK  13 active torsions:
REMARK  status: ('A' for Active; 'I' for Inactive)
REMARK    1  A    between atoms: C_1  and  C_2
REMARK    2  A    between atoms: C_2  and  C_3
REMARK    3  A    between atoms: C_3  and  C_4
REMARK    4  A    between atoms: C_4  and  C_5
REMARK    5  A    between atoms: C_5  and  C_6
REMARK    6  A    between atoms: C_6  and  C_7
REMARK    7  A    between atoms: C_9  and  O_10
REMARK    8  A    between atoms: O_10  and  C_11
REMARK    9  A    between atoms: C_11  and  C_12
REMARK   10  A    between atoms: C_12  and  C_13
REMARK   11  A    between atoms: C_13  and  C_14
REMARK   12  A    between atoms: C_16  and  C_17
REMARK   13  A    between atoms: C_17  and  N_18
REMARK                            x       y       z     vdW  Elec       q    Type
REMARK                         _______ _______ _______ _____ _____    ______ ____
ROOT
ATOM      1  C   UNL     1       7.271   5.648  16.990  0.00  0.00    +0.000 C 
ATOM      2  O   UNL     1       7.192   5.453  15.598  0.00  0.00    +0.000 OA
ATOM      3  C   UNL     1       6.106   4.725  15.052  0.00  0.00    +0.000 C 
ATOM      4  C   UNL     1       5.190   4.046  16.019  0.00  0.00    +0.000 C 
ATOM      5  C   UNL     1       5.301   4.037  17.356  0.00  0.00    +0.000 C 
ATOM      6  C   UNL     1       6.462   4.741  17.923  0.00  0.00    +0.000 C 
ATOM      7  O   UNL     1       6.747   4.609  19.113  0.00  0.00    +0.000 OA
ENDROOT
BRANCH   1   8
ATOM      8  C   UNL     1       7.001   7.139  17.251  0.00  0.00    +0.000 C 
BRANCH   8   9
ATOM      9  C   UNL     1       8.015   7.764  18.201  0.00  0.00    +0.000 C 
BRANCH   9  10
ATOM     10  C   UNL     1       8.244   9.247  17.946  0.00  0.00    +0.000 C 
BRANCH  10  11
ATOM     11  C   UNL     1       9.180   9.791  19.023  0.00  0.00    +0.000 C 
BRANCH  11  13
ATOM     12  C   UNL     1      10.803  11.648  19.445  0.00  0.00    +0.000 C 
ATOM     13  C   UNL     1       9.465  11.274  18.827  0.00  0.00    +0.000 C 
ENDBRANCH  11  13
ENDBRANCH  10  11
ENDBRANCH   9  10
ENDBRANCH   8   9
ENDBRANCH   1   8
BRANCH   3  14
ATOM     14  O   UNL     1       6.620   3.699  14.203  0.00  0.00    +0.000 OA
BRANCH  14  15
ATOM     15  C   UNL     1       6.330   3.975  12.834  0.00  0.00    +0.000 C 
BRANCH  15  16
ATOM     16  C   UNL     1       4.856   3.715  12.569  0.00  0.00    +0.000 C 
BRANCH  16  17
ATOM     17  C   UNL     1       4.688   2.892  11.295  0.00  0.00    +0.000 C 
ATOM     18  C   UNL     1       3.406   3.239  10.562  0.00  0.00    +0.000 C 
ENDBRANCH  16  17
ENDBRANCH  15  16
ENDBRANCH  14  15
ENDBRANCH   3  14
BRANCH   5  19
ATOM     19  C   UNL     1       4.401   3.316  18.326  0.00  0.00    +0.000 C 
BRANCH  19  20
ATOM     20  N   UNL     1       3.799   4.155  19.389  0.00  0.00    +0.000 NA
ATOM     21  C   UNL     1       2.978   5.219  18.778  0.00  0.00    +0.000 C 
ATOM     22  C   UNL     1       2.189   6.025  19.808  0.00  0.00    +0.000 C 
ATOM     23  C   UNL     1       1.321   5.113  20.663  0.00  0.00    +0.000 C 
ATOM     24  C   UNL     1       2.196   4.053  21.315  0.00  0.00    +0.000 C 
ATOM     25  C   UNL     1       2.995   3.281  20.266  0.00  0.00    +0.000 C 
ENDBRANCH  19  20
ENDBRANCH   5  19
TORSDOF 11
ENDMDL
MODEL 6
REMARK VINA RESULT:      -7.5      1.237      1.616
REMARK  Name = 
REMARK  13 active torsions:
REMARK  status: ('A' for Active; 'I' for Inactive)
REMARK    1  A    between atoms: C_1  and  C_2
REMARK    2  A    between atoms: C_2  and  C_3
REMARK    3  A    between atoms: C_3  and  C_4
REMARK    4  A    between atoms: C_4  and  C_5
REMARK    5  A    between atoms: C_5  and  C_6
REMARK    6  A    between atoms: C_6  and  C_7
REMARK    7  A    between atoms: C_9  and  O_10
REMARK    8  A    between atoms: O_10  and  C_11
REMARK    9  A    between atoms: C_11  and  C_12
REMARK   10  A    between atoms: C_12  and  C_13
REMARK   11  A    between atoms: C_13  and  C_14
REMARK   12  A    between atoms: C_16  and  C_17
REMARK   13  A    between atoms: C_17  and  N_18
REMARK                            x       y       z     vdW  Elec       q    Type
REMARK                         _______ _______ _______ _____ _____    ______ ____
ROOT
ATOM      1  C   UNL     1       7.390   5.967  17.910  0.00  0.00    +0.000 C 
ATOM      2  O   UNL     1       7.186   6.320  16.562  0.00  0.00    +0.000 OA
ATOM      3  C   UNL     1       5.892   6.699  16.125  0.00  0.00    +0.000 C 
ATOM      4  C   UNL     1       4.770   6.527  17.098  0.00  0.00    +0.000 C 
ATOM      5  C   UNL     1       4.856   6.029  18.341  0.00  0.00    +0.000 C 
ATOM      6  C   UNL     1       6.187   5.577  18.776  0.00  0.00    +0.000 C 
ATOM      7  O   UNL     1       6.313   4.927  19.813  0.00  0.00    +0.000 OA
ENDROOT
BRANCH   1   8
ATOM      8  C   UNL     1       8.226   7.087  18.547  0.00  0.00    +0.000 C 
BRANCH   8   9
ATOM      9  C   UNL     1       8.094   8.415  17.810  0.00  0.00    +0.000 C 
BRANCH   9  10
ATOM     10  C   UNL     1       8.495   9.615  18.656  0.00  0.00    +0.000 C 
BRANCH  10  11
ATOM     11  C   UNL     1       9.504  10.452  17.872  0.00  0.00    +0.000 C 
BRANCH  11  13
ATOM     12  C   UNL     1      11.193  11.641  19.283  0.00  0.00    +0.000 C 
ATOM     13  C   UNL     1       9.842  11.749  18.593  0.00  0.00    +0.000 C 
ENDBRANCH  11  13
ENDBRANCH  10  11
ENDBRANCH   9  10
ENDBRANCH   8   9
ENDBRANCH   1   8
BRANCH   3  14
ATOM     14  O   UNL     1       5.549   5.922  14.977  0.00  0.00    +0.000 OA
BRANCH  14  15
ATOM     15  C   UNL     1       6.625   5.065  14.599  0.00  0.00    +0.000 C 
BRANCH  15  16
ATOM     16  C   UNL     1       6.066   3.731  14.130  0.00  0.00    +0.000 C 
BRANCH  16  17
ATOM     17  C   UNL     1       6.222   3.599  12.618  0.00  0.00    +0.000 C 
ATOM     18  C   UNL     1       4.890   3.371  11.929  0.00  0.00    +0.000 C 
ENDBRANCH  16  17
ENDBRANCH  15  16
ENDBRANCH  14  15
ENDBRANCH   3  14
BRANCH   5  19
ATOM     19  C   UNL     1       3.716   5.815  19.303  0.00  0.00    +0.000 C 
BRANCH  19  20
ATOM     20  N   UNL     1       3.148   4.447  19.332  0.00  0.00    +0.000 NA
ATOM     21  C   UNL     1       2.557   4.182  20.659  0.00  0.00    +0.000 C 
ATOM     22  C   UNL     1       1.803   2.854  20.719  0.00  0.00    +0.000 C 
ATOM     23  C   UNL     1       0.732   2.789  19.640  0.00  0.00    +0.000 C 
ATOM     24  C   UNL     1       1.373   3.023  18.280  0.00  0.00    +0.000 C 
ATOM     25  C   UNL     1       2.143   4.342  18.256  0.00  0.00    +0.000 C 
ENDBRANCH  19  20
ENDBRANCH   5  19
TORSDOF 11
ENDMDL
MODEL 7
REMARK VINA RESULT:      -7.4      1.169      1.537
REMARK  Name = 
REMARK  13 active torsions:
REMARK  status: ('A' for Active; 'I' for Inactive)
REMARK    1  A    between atoms: C_1  and  C_2
REMARK    2  A    between atoms: C_2  and  C_3
REMARK    3  A    between atoms: C_3  and  C_4
REMARK    4  A    between atoms: C_4  and  C_5
REMARK    5  A    between atoms: C_5  and  C_6
REMARK    6  A    between atoms: C_6  and  C_7
REMARK    7  A    between atoms: C_9  and  O_10
REMARK    8  A    between atoms: O_10  and  C_11
REMARK    9  A    between atoms: C_11  and  C_12
REMARK   10  A    between atoms: C_12  and  C_13
REMARK   11  A    between atoms: C_13  and  C_14
REMARK   12  A    between atoms: C_16  and  C_17
REMARK   13  A    between atoms: C_17  and  N_18
REMARK                            x       y       z     vdW  Elec       q    Type
REMARK                         _______ _______ _______ _____ _____    ______ ____
ROOT
ATOM      1  C   UNL     1       7.344   5.486  18.072  0.00  0.00    +0.000 C 
ATOM      2  O   UNL     1       7.637   5.184  16.729  0.00  0.00    +0.000 OA
ATOM      3  C   UNL     1       6.606   5.231  15.758  0.00  0.00    +0.000 C 
ATOM      4  C   UNL     1       5.211   5.429  16.260  0.00  0.00    +0.000 C 
ATOM      5  C   UNL     1       4.829   5.546  17.540  0.00  0.00    +0.000 C 
ATOM      6  C   UNL     1       5.889   5.436  18.554  0.00  0.00    +0.000 C 
ATOM      7  O   UNL     1       5.601   5.329  19.745  0.00  0.00    +0.000 OA
ENDROOT
BRANCH   1   8
ATOM      8  C   UNL     1       8.015   6.832  18.388  0.00  0.00    +0.000 C 
BRANCH   8   9
ATOM      9  C   UNL     1       7.371   8.000  17.650  0.00  0.00    +0.000 C 
BRANCH   9  10
ATOM     10  C   UNL     1       8.269   9.226  17.568  0.00  0.00    +0.000 C 
BRANCH  10  11
ATOM     11  C   UNL     1       8.810   9.533  18.963  0.00  0.00    +0.000 C 
BRANCH  11  13
ATOM     12  C   UNL     1       9.173  11.939  18.382  0.00  0.00    +0.000 C 
ATOM     13  C   UNL     1       9.813  10.678  18.941  0.00  0.00    +0.000 C 
ENDBRANCH  11  13
ENDBRANCH  10  11
ENDBRANCH   9  10
ENDBRANCH   8   9
ENDBRANCH   1   8
BRANCH   3  14
ATOM     14  O   UNL     1       6.599   4.000  15.034  0.00  0.00    +0.000 OA
BRANCH  14  15
ATOM     15  C   UNL     1       6.518   4.235  13.629  0.00  0.00    +0.000 C 
BRANCH  15  16
ATOM     16  C   UNL     1       5.182   3.726  13.110  0.00  0.00    +0.000 C 
BRANCH  16  17
ATOM     17  C   UNL     1       5.378   2.988  11.789  0.00  0.00    +0.000 C 
ATOM     18  C   UNL     1       6.825   2.584  11.575  0.00  0.00    +0.000 C 
ENDBRANCH  16  17
ENDBRANCH  15  16
ENDBRANCH  14  15
ENDBRANCH   3  14
BRANCH   5  19
ATOM     19  C   UNL     1       3.417   5.701  18.045  0.00  0.00    +0.000 C 
BRANCH  19  20
ATOM     20  N   UNL     1       2.568   4.489  17.958  0.00  0.00    +0.000 NA
ATOM     21  C   UNL     1       3.423   3.290  17.850  0.00  0.00    +0.000 C 
ATOM     22  C   UNL     1       2.629   1.987  17.925  0.00  0.00    +0.000 C 
ATOM     23  C   UNL     1       1.796   1.930  19.197  0.00  0.00    +0.000 C 
ATOM     24  C   UNL     1       0.894   3.154  19.262  0.00  0.00    +0.000 C 
ATOM     25  C   UNL     1       1.709   4.442  19.158  0.00  0.00    +0.000 C 
ENDBRANCH  19  20
ENDBRANCH   5  19
TORSDOF 11
ENDMDL
MODEL 8
REMARK VINA RESULT:      -7.3      3.457      7.075
REMARK  Name = 
REMARK  13 active torsions:
REMARK  status: ('A' for Active; 'I' for Inactive)
REMARK    1  A    between atoms: C_1  and  C_2
REMARK    2  A    between atoms: C_2  and  C_3
REMARK    3  A    between atoms: C_3  and  C_4
REMARK    4  A    between atoms: C_4  and  C_5
REMARK    5  A    between atoms: C_5  and  C_6
REMARK    6  A    between atoms: C_6  and  C_7
REMARK    7  A    between atoms: C_9  and  O_10
REMARK    8  A    between atoms: O_10  and  C_11
REMARK    9  A    between atoms: C_11  and  C_12
REMARK   10  A    between atoms: C_12  and  C_13
REMARK   11  A    between atoms: C_13  and  C_14
REMARK   12  A    between atoms: C_16  and  C_17
REMARK   13  A    between atoms: C_17  and  N_18
REMARK                            x       y       z     vdW  Elec       q    Type
REMARK                         _______ _______ _______ _____ _____    ______ ____
ROOT
ATOM      1  C   UNL     1       5.300   4.617  16.301  0.00  0.00    +0.000 C 
ATOM      2  O   UNL     1       4.549   3.557  16.844  0.00  0.00    +0.000 OA
ATOM      3  C   UNL     1       3.331   3.832  17.514  0.00  0.00    +0.000 C 
ATOM      4  C   UNL     1       3.002   5.269  17.762  0.00  0.00    +0.000 C 
ATOM      5  C   UNL     1       3.753   6.331  17.434  0.00  0.00    +0.000 C 
ATOM      6  C   UNL     1       5.047   6.047  16.794  0.00  0.00    +0.000 C 
ATOM      7  O   UNL     1       5.877   6.943  16.648  0.00  0.00    +0.000 OA
ENDROOT
BRANCH   1   8
ATOM      8  C   UNL     1       5.200   4.503  14.772  0.00  0.00    +0.000 C 
BRANCH   8   9
ATOM      9  C   UNL     1       6.358   3.723  14.162  0.00  0.00    +0.000 C 
BRANCH   9  10
ATOM     10  C   UNL     1       6.465   3.888  12.652  0.00  0.00    +0.000 C 
BRANCH  10  11
ATOM     11  C   UNL     1       5.298   3.154  11.995  0.00  0.00    +0.000 C 
BRANCH  11  13
ATOM     12  C   UNL     1       7.186   1.807  11.058  0.00  0.00    +0.000 C 
ATOM     13  C   UNL     1       5.719   1.794  11.455  0.00  0.00    +0.000 C 
ENDBRANCH  11  13
ENDBRANCH  10  11
ENDBRANCH   9  10
ENDBRANCH   8   9
ENDBRANCH   1   8
BRANCH   3  14
ATOM     14  O   UNL     1       3.359   3.201  18.795  0.00  0.00    +0.000 OA
BRANCH  14  15
ATOM     15  C   UNL     1       2.415   2.133  18.859  0.00  0.00    +0.000 C 
BRANCH  15  16
ATOM     16  C   UNL     1       1.022   2.704  19.070  0.00  0.00    +0.000 C 
BRANCH  16  17
ATOM     17  C   UNL     1       0.947   3.424  20.414  0.00  0.00    +0.000 C 
ATOM     18  C   UNL     1       1.584   2.614  21.526  0.00  0.00    +0.000 C 
ENDBRANCH  16  17
ENDBRANCH  15  16
ENDBRANCH  14  15
ENDBRANCH   3  14
BRANCH   5  19
ATOM     19  C   UNL     1       3.440   7.776  17.725  0.00  0.00    +0.000 C 
BRANCH  19  20
ATOM     20  N   UNL     1       2.110   8.036  18.325  0.00  0.00    +0.000 NA
ATOM     21  C   UNL     1       2.202   7.943  19.797  0.00  0.00    +0.000 C 
ATOM     22  C   UNL     1       0.911   8.362  20.499  0.00  0.00    +0.000 C 
ATOM     23  C   UNL     1       0.497   9.766  20.083  0.00  0.00    +0.000 C 
ATOM     24  C   UNL     1       0.368   9.824  18.567  0.00  0.00    +0.000 C 
ATOM     25  C   UNL     1       1.662   9.373  17.890  0.00  0.00    +0.000 C 
ENDBRANCH  19  20
ENDBRANCH   5  19
TORSDOF 11
ENDMDL
MODEL 9
REMARK VINA RESULT:      -7.2      1.013      1.320
REMARK  Name = 
REMARK  13 active torsions:
REMARK  status: ('A' for Active; 'I' for Inactive)
REMARK    1  A    between atoms: C_1  and  C_2
REMARK    2  A    between atoms: C_2  and  C_3
REMARK    3  A    between atoms: C_3  and  C_4
REMARK    4  A    between atoms: C_4  and  C_5
REMARK    5  A    between atoms: C_5  and  C_6
REMARK    6  A    between atoms: C_6  and  C_7
REMARK    7  A    between atoms: C_9  and  O_10
REMARK    8  A    between atoms: O_10  and  C_11
REMARK    9  A    between atoms: C_11  and  C_12
REMARK   10  A    between atoms: C_12  and  C_13
REMARK   11  A    between atoms: C_13  and  C_14
REMARK   12  A    between atoms: C_16  and  C_17
REMARK   13  A    between atoms: C_17  and  N_18
REMARK                            x       y       z     vdW  Elec       q    Type
REMARK                         _______ _______ _______ _____ _____    ______ ____
ROOT
ATOM      1  C   UNL     1       7.302   6.388  17.331  0.00  0.00    +0.000 C 
ATOM      2  O   UNL     1       6.976   6.002  16.017  0.00  0.00    +0.000 OA
ATOM      3  C   UNL     1       5.655   5.588  15.715  0.00  0.00    +0.000 C 
ATOM      4  C   UNL     1       4.719   5.413  16.868  0.00  0.00    +0.000 C 
ATOM      5  C   UNL     1       5.005   5.589  18.166  0.00  0.00    +0.000 C 
ATOM      6  C   UNL     1       6.392   5.960  18.488  0.00  0.00    +0.000 C 
ATOM      7  O   UNL     1       6.785   5.940  19.654  0.00  0.00    +0.000 OA
ENDROOT
BRANCH   1   8
ATOM      8  C   UNL     1       7.539   7.906  17.309  0.00  0.00    +0.000 C 
BRANCH   8   9
ATOM      9  C   UNL     1       8.437   8.380  18.445  0.00  0.00    +0.000 C 
BRANCH   9  10
ATOM     10  C   UNL     1       8.794   9.857  18.353  0.00  0.00    +0.000 C 
BRANCH  10  11
ATOM     11  C   UNL     1       9.434  10.290  19.671  0.00  0.00    +0.000 C 
BRANCH  11  13
ATOM     12  C   UNL     1       9.942  12.437  18.493  0.00  0.00    +0.000 C 
ATOM     13  C   UNL     1      10.465  11.389  19.464  0.00  0.00    +0.000 C 
ENDBRANCH  11  13
ENDBRANCH  10  11
ENDBRANCH   9  10
ENDBRANCH   8   9
ENDBRANCH   1   8
BRANCH   3  14
ATOM     14  O   UNL     1       5.710   4.325  15.051  0.00  0.00    +0.000 OA
BRANCH  14  15
ATOM     15  C   UNL     1       6.631   4.360  13.962  0.00  0.00    +0.000 C 
BRANCH  15  16
ATOM     16  C   UNL     1       6.153   3.418  12.868  0.00  0.00    +0.000 C 
BRANCH  16  17
ATOM     17  C   UNL     1       4.686   3.687  12.546  0.00  0.00    +0.000 C 
ATOM     18  C   UNL     1       4.292   3.127  11.193  0.00  0.00    +0.000 C 
ENDBRANCH  16  17
ENDBRANCH  15  16
ENDBRANCH  14  15
ENDBRANCH   3  14
BRANCH   5  19
ATOM     19  C   UNL     1       4.072   5.370  19.329  0.00  0.00    +0.000 C 
BRANCH  19  20
ATOM     20  N   UNL     1       3.289   4.112  19.295  0.00  0.00    +0.000 NA
ATOM     21  C   UNL     1       2.693   3.861  20.623  0.00  0.00    +0.000 C 
ATOM     22  C   UNL     1       1.734   2.672  20.628  0.00  0.00    +0.000 C 
ATOM     23  C   UNL     1       0.641   2.851  19.584  0.00  0.00    +0.000 C 
ATOM     24  C   UNL     1       1.280   3.065  18.219  0.00  0.00    +0.000 C 
ATOM     25  C   UNL     1       2.255   4.241  18.249  0.00  0.00    +0.000 C 
ENDBRANCH  19  20
ENDBRANCH   5  19
TORSDOF 11
ENDMDL
