MODEL 1
REMARK VINA RESULT:      -8.6      0.000      0.000
REMARK  Name = 
REMARK  6 active torsions:
REMARK  status: ('A' for Active; 'I' for Inactive)
REMARK    1  A    between atoms: S_2  and  N_4
REMARK    2  A    between atoms: S_2  and  C_20
REMARK    3  A    between atoms: N_4  and  C_5
REMARK    4  A    between atoms: C_5  and  C_6
REMARK    5  A    between atoms: C_6  and  C_7
REMARK    6  A    between atoms: C_6  and  N_13
REMARK                            x       y       z     vdW  Elec       q    Type
REMARK                         _______ _______ _______ _____ _____    ______ ____
ROOT
ATOM      1  C   UNL     1       3.942   6.283  17.842  0.00  0.00    +0.000 C 
ENDROOT
BRANCH   1   2
ATOM      2  N   UNL     1       5.374   6.550  18.099  0.00  0.00    +0.000 NA
ATOM      3  H   UNL     1       5.753   7.428  17.750  0.00  0.00    +0.000 HD
BRANCH   2   5
ATOM      4  O   UNL     1       7.758   5.756  18.317  0.00  0.00    +0.000 OA
ATOM      5  S   UNL     1       6.426   5.250  18.094  0.00  0.00    +0.000 S 
ATOM      6  O   UNL     1       5.851   4.198  18.913  0.00  0.00    +0.000 OA
BRANCH   5   7
ATOM      7  C   UNL     1       6.340   4.720  16.399  0.00  0.00    +0.000 A 
ATOM      8  C   UNL     1       5.387   3.778  15.993  0.00  0.00    +0.000 A 
ATOM      9  C   UNL     1       5.337   3.399  14.651  0.00  0.00    +0.000 A 
ATOM     10  C   UNL     1       6.225   3.964  13.736  0.00  0.00    +0.000 A 
ATOM     11  F   UNL     1       6.156   3.582  12.453  0.00  0.00    +0.000 F 
ATOM     12  C   UNL     1       7.164   4.912  14.146  0.00  0.00    +0.000 A 
ATOM     13 CL   UNL     1       8.244   5.628  13.016  0.00  0.00    +0.000 Cl
ATOM     14  C   UNL     1       7.227   5.293  15.483  0.00  0.00    +0.000 A 
ENDBRANCH   5   7
ENDBRANCH   2   5
ENDBRANCH   1   2
BRANCH   1  15
ATOM     15  C   UNL     1       3.040   6.439  19.114  0.00  0.00    +0.000 C 
BRANCH  15  16
ATOM     16  N   UNL     1       2.201   5.217  19.426  0.00  0.00    +0.000 NA
ATOM     17  C   UNL     1       2.436   4.154  18.426  0.00  0.00    +0.000 C 
ATOM     18  C   UNL     1       1.330   3.098  18.311  0.00  0.00    +0.000 C 
ATOM     19  C   UNL     1       1.369   2.002  19.360  0.00  0.00    +0.000 C 
ATOM     20  C   UNL     1       1.202   2.530  20.775  0.00  0.00    +0.000 C 
ATOM     21  C   UNL     1       2.429   3.304  21.223  0.00  0.00    +0.000 C 
ATOM     22  C   UNL     1       2.449   4.784  20.823  0.00  0.00    +0.000 C 
ENDBRANCH  15  16
BRANCH  15  23
ATOM     23  C   UNL     1       2.263   7.767  19.023  0.00  0.00    +0.000 A 
ATOM     24  C   UNL     1       2.246   8.532  17.849  0.00  0.00    +0.000 A 
ATOM     25  C   UNL     1       1.621   9.784  17.814  0.00  0.00    +0.000 A 
ATOM     26  C   UNL     1       0.958  10.266  18.937  0.00  0.00    +0.000 A 
ATOM     27  C   UNL     1       0.901   9.493  20.091  0.00  0.00    +0.000 A 
ATOM     28  C   UNL     1       1.557   8.258  20.142  0.00  0.00    +0.000 A 
ENDBRANCH  15  23
ENDBRANCH   1  15
TORSDOF 6
ENDMDL
MODEL 2
REMARK VINA RESULT:      -8.3      4.951      7.801
REMARK  Name = 
REMARK  6 active torsions:
REMARK  status: ('A' for Active; 'I' for Inactive)
REMARK    1  A    between atoms: S_2  and  N_4
REMARK    2  A    between atoms: S_2  and  C_20
REMARK    3  A    between atoms: N_4  and  C_5
REMARK    4  A    between atoms: C_5  and  C_6
REMARK    5  A    between atoms: C_6  and  C_7
REMARK    6  A    between atoms: C_6  and  N_13
REMARK                            x       y       z     vdW  Elec       q    Type
REMARK                         _______ _______ _______ _____ _____    ______ ____
ROOT
ATOM      1  C   UNL     1       2.343   7.424  17.911  0.00  0.00    +0.000 C 
ENDROOT
BRANCH   1   2
ATOM      2  N   UNL     1       2.606   8.851  18.197  0.00  0.00    +0.000 NA
ATOM      3  H   UNL     1       3.402   9.066  18.793  0.00  0.00    +0.000 HD
BRANCH   2   5
ATOM      4  O   UNL     1       1.761  11.227  18.157  0.00  0.00    +0.000 OA
ATOM      5  S   UNL     1       1.291   9.876  18.340  0.00  0.00    +0.000 S 
ATOM      6  O   UNL     1       0.198   9.324  17.560  0.00  0.00    +0.000 OA
BRANCH   5   7
ATOM      7  C   UNL     1       0.873   9.691  20.059  0.00  0.00    +0.000 A 
ATOM      8  C   UNL     1       1.452   8.674  20.828  0.00  0.00    +0.000 A 
ATOM      9  C   UNL     1       1.114   8.570  22.179  0.00  0.00    +0.000 A 
ATOM     10  C   UNL     1       0.217   9.477  22.742  0.00  0.00    +0.000 A 
ATOM     11  F   UNL     1      -0.092   9.355  24.040  0.00  0.00    +0.000 F 
ATOM     12  C   UNL     1      -0.347  10.495  21.971  0.00  0.00    +0.000 A 
ATOM     13 CL   UNL     1      -1.435  11.630  22.668  0.00  0.00    +0.000 Cl
ATOM     14  C   UNL     1      -0.022  10.605  20.622  0.00  0.00    +0.000 A 
ENDBRANCH   5   7
ENDBRANCH   2   5
ENDBRANCH   1   2
BRANCH   1  15
ATOM     15  C   UNL     1       3.236   6.445  18.747  0.00  0.00    +0.000 C 
BRANCH  15  16
ATOM     16  N   UNL     1       4.606   6.201  18.149  0.00  0.00    +0.000 NA
ATOM     17  C   UNL     1       5.427   5.363  19.049  0.00  0.00    +0.000 C 
ATOM     18  C   UNL     1       6.943   5.452  18.838  0.00  0.00    +0.000 C 
ATOM     19  C   UNL     1       7.488   4.613  17.697  0.00  0.00    +0.000 C 
ATOM     20  C   UNL     1       6.923   5.012  16.345  0.00  0.00    +0.000 C 
ATOM     21  C   UNL     1       5.461   4.622  16.222  0.00  0.00    +0.000 C 
ATOM     22  C   UNL     1       4.463   5.641  16.782  0.00  0.00    +0.000 C 
ENDBRANCH  15  16
BRANCH  15  23
ATOM     23  C   UNL     1       2.424   5.177  19.077  0.00  0.00    +0.000 A 
ATOM     24  C   UNL     1       1.965   4.314  18.073  0.00  0.00    +0.000 A 
ATOM     25  C   UNL     1       1.143   3.223  18.382  0.00  0.00    +0.000 A 
ATOM     26  C   UNL     1       0.814   2.948  19.704  0.00  0.00    +0.000 A 
ATOM     27  C   UNL     1       1.316   3.750  20.722  0.00  0.00    +0.000 A 
ATOM     28  C   UNL     1       2.106   4.863  20.415  0.00  0.00    +0.000 A 
ENDBRANCH  15  23
ENDBRANCH   1  15
TORSDOF 6
ENDMDL
MODEL 3
REMARK VINA RESULT:      -8.2      4.840      7.986
REMARK  Name = 
REMARK  6 active torsions:
REMARK  status: ('A' for Active; 'I' for Inactive)
REMARK    1  A    between atoms: S_2  and  N_4
REMARK    2  A    between atoms: S_2  and  C_20
REMARK    3  A    between atoms: N_4  and  C_5
REMARK    4  A    between atoms: C_5  and  C_6
REMARK    5  A    between atoms: C_6  and  C_7
REMARK    6  A    between atoms: C_6  and  N_13
REMARK                            x       y       z     vdW  Elec       q    Type
REMARK                         _______ _______ _______ _____ _____    ______ ____
ROOT
ATOM      1  C   UNL     1       2.638   7.086  18.026  0.00  0.00    +0.000 C 
ENDROOT
BRANCH   1   2
ATOM      2  N   UNL     1       2.071   8.115  18.924  0.00  0.00    +0.000 NA
ATOM      3  H   UNL     1       1.635   7.791  19.785  0.00  0.00    +0.000 HD
BRANCH   2   5
ATOM      4  O   UNL     1       2.448  10.281  17.688  0.00  0.00    +0.000 OA
ATOM      5  S   UNL     1       1.383   9.471  18.226  0.00  0.00    +0.000 S 
ATOM      6  O   UNL     1       0.254   9.042  17.420  0.00  0.00    +0.000 OA
BRANCH   5   7
ATOM      7  C   UNL     1       0.738  10.323  19.647  0.00  0.00    +0.000 A 
ATOM      8  C   UNL     1       0.293  11.647  19.543  0.00  0.00    +0.000 A 
ATOM      9  C   UNL     1      -0.224  12.279  20.675  0.00  0.00    +0.000 A 
ATOM     10  C   UNL     1      -0.298  11.587  21.884  0.00  0.00    +0.000 A 
ATOM     11  F   UNL     1      -0.798  12.217  22.956  0.00  0.00    +0.000 F 
ATOM     12  C   UNL     1       0.136  10.264  21.976  0.00  0.00    +0.000 A 
ATOM     13 CL   UNL     1       0.025   9.400  23.459  0.00  0.00    +0.000 Cl
ATOM     14  C   UNL     1       0.659   9.625  20.855  0.00  0.00    +0.000 A 
ENDBRANCH   5   7
ENDBRANCH   2   5
ENDBRANCH   1   2
BRANCH   1  15
ATOM     15  C   UNL     1       3.465   5.988  18.779  0.00  0.00    +0.000 C 
BRANCH  15  16
ATOM     16  N   UNL     1       4.597   5.402  17.959  0.00  0.00    +0.000 NA
ATOM     17  C   UNL     1       4.853   6.226  16.759  0.00  0.00    +0.000 C 
ATOM     18  C   UNL     1       5.585   5.517  15.613  0.00  0.00    +0.000 C 
ATOM     19  C   UNL     1       7.092   5.424  15.767  0.00  0.00    +0.000 C 
ATOM     20  C   UNL     1       7.515   4.635  16.993  0.00  0.00    +0.000 C 
ATOM     21  C   UNL     1       7.213   5.397  18.271  0.00  0.00    +0.000 C 
ATOM     22  C   UNL     1       5.793   5.217  18.818  0.00  0.00    +0.000 C 
ENDBRANCH  15  16
BRANCH  15  23
ATOM     23  C   UNL     1       2.498   4.961  19.397  0.00  0.00    +0.000 A 
ATOM     24  C   UNL     1       2.418   4.764  20.782  0.00  0.00    +0.000 A 
ATOM     25  C   UNL     1       1.609   3.756  21.322  0.00  0.00    +0.000 A 
ATOM     26  C   UNL     1       0.827   2.967  20.487  0.00  0.00    +0.000 A 
ATOM     27  C   UNL     1       0.837   3.191  19.115  0.00  0.00    +0.000 A 
ATOM     28  C   UNL     1       1.672   4.171  18.569  0.00  0.00    +0.000 A 
ENDBRANCH  15  23
ENDBRANCH   1  15
TORSDOF 6
ENDMDL
MODEL 4
REMARK VINA RESULT:      -8.2      0.975      3.888
REMARK  Name = 
REMARK  6 active torsions:
REMARK  status: ('A' for Active; 'I' for Inactive)
REMARK    1  A    between atoms: S_2  and  N_4
REMARK    2  A    between atoms: S_2  and  C_20
REMARK    3  A    between atoms: N_4  and  C_5
REMARK    4  A    between atoms: C_5  and  C_6
REMARK    5  A    between atoms: C_6  and  C_7
REMARK    6  A    between atoms: C_6  and  N_13
REMARK                            x       y       z     vdW  Elec       q    Type
REMARK                         _______ _______ _______ _____ _____    ______ ____
ROOT
ATOM      1  C   UNL     1       4.799   5.857  19.369  0.00  0.00    +0.000 C 
ENDROOT
BRANCH   1   2
ATOM      2  N   UNL     1       5.571   4.787  18.701  0.00  0.00    +0.000 NA
ATOM      3  H   UNL     1       5.587   3.875  19.152  0.00  0.00    +0.000 HD
BRANCH   2   5
ATOM      4  O   UNL     1       7.049   6.660  17.883  0.00  0.00    +0.000 OA
ATOM      5  S   UNL     1       6.966   5.220  17.885  0.00  0.00    +0.000 S 
ATOM      6  O   UNL     1       8.050   4.382  18.364  0.00  0.00    +0.000 OA
BRANCH   5   7
ATOM      7  C   UNL     1       6.587   4.712  16.224  0.00  0.00    +0.000 A 
ATOM      8  C   UNL     1       5.500   3.867  15.967  0.00  0.00    +0.000 A 
ATOM      9  C   UNL     1       5.220   3.502  14.649  0.00  0.00    +0.000 A 
ATOM     10  C   UNL     1       6.016   3.987  13.611  0.00  0.00    +0.000 A 
ATOM     11  F   UNL     1       5.728   3.622  12.354  0.00  0.00    +0.000 F 
ATOM     12  C   UNL     1       7.091   4.838  13.874  0.00  0.00    +0.000 A 
ATOM     13 CL   UNL     1       8.060   5.457  12.595  0.00  0.00    +0.000 Cl
ATOM     14  C   UNL     1       7.382   5.204  15.185  0.00  0.00    +0.000 A 
ENDBRANCH   5   7
ENDBRANCH   2   5
ENDBRANCH   1   2
BRANCH   1  15
ATOM     15  C   UNL     1       3.375   6.077  18.752  0.00  0.00    +0.000 C 
BRANCH  15  16
ATOM     16  N   UNL     1       2.782   7.439  19.048  0.00  0.00    +0.000 NA
ATOM     17  C   UNL     1       1.954   7.905  17.915  0.00  0.00    +0.000 C 
ATOM     18  C   UNL     1       1.717   9.419  17.846  0.00  0.00    +0.000 C 
ATOM     19  C   UNL     1       0.619   9.943  18.753  0.00  0.00    +0.000 C 
ATOM     20  C   UNL     1       0.901   9.701  20.226  0.00  0.00    +0.000 C 
ATOM     21  C   UNL     1       0.785   8.227  20.573  0.00  0.00    +0.000 C 
ATOM     22  C   UNL     1       2.052   7.398  20.339  0.00  0.00    +0.000 C 
ENDBRANCH  15  16
BRANCH  15  23
ATOM     23  C   UNL     1       2.479   4.875  19.109  0.00  0.00    +0.000 A 
ATOM     24  C   UNL     1       1.822   4.128  18.122  0.00  0.00    +0.000 A 
ATOM     25  C   UNL     1       0.931   3.104  18.467  0.00  0.00    +0.000 A 
ATOM     26  C   UNL     1       0.726   2.777  19.803  0.00  0.00    +0.000 A 
ATOM     27  C   UNL     1       1.421   3.458  20.795  0.00  0.00    +0.000 A 
ATOM     28  C   UNL     1       2.282   4.507  20.456  0.00  0.00    +0.000 A 
ENDBRANCH  15  23
ENDBRANCH   1  15
TORSDOF 6
ENDMDL
MODEL 5
REMARK VINA RESULT:      -8.1      4.969      8.090
REMARK  Name = 
REMARK  6 active torsions:
REMARK  status: ('A' for Active; 'I' for Inactive)
REMARK    1  A    between atoms: S_2  and  N_4
REMARK    2  A    between atoms: S_2  and  C_20
REMARK    3  A    between atoms: N_4  and  C_5
REMARK    4  A    between atoms: C_5  and  C_6
REMARK    5  A    between atoms: C_6  and  C_7
REMARK    6  A    between atoms: C_6  and  N_13
REMARK                            x       y       z     vdW  Elec       q    Type
REMARK                         _______ _______ _______ _____ _____    ______ ____
ROOT
ATOM      1  C   UNL     1       2.534   7.374  18.061  0.00  0.00    +0.000 C 
ENDROOT
BRANCH   1   2
ATOM      2  N   UNL     1       1.853   8.324  18.967  0.00  0.00    +0.000 NA
ATOM      3  H   UNL     1       1.344   7.930  19.756  0.00  0.00    +0.000 HD
BRANCH   2   5
ATOM      4  O   UNL     1       2.284  10.504  17.774  0.00  0.00    +0.000 OA
ATOM      5  S   UNL     1       1.199   9.711  18.298  0.00  0.00    +0.000 S 
ATOM      6  O   UNL     1       0.057   9.329  17.488  0.00  0.00    +0.000 OA
BRANCH   5   7
ATOM      7  C   UNL     1       0.580  10.551  19.738  0.00  0.00    +0.000 A 
ATOM      8  C   UNL     1       0.188  11.894  19.668  0.00  0.00    +0.000 A 
ATOM      9  C   UNL     1      -0.310  12.516  20.814  0.00  0.00    +0.000 A 
ATOM     10  C   UNL     1      -0.416  11.797  22.004  0.00  0.00    +0.000 A 
ATOM     11  F   UNL     1      -0.896  12.418  23.090  0.00  0.00    +0.000 F 
ATOM     12  C   UNL     1      -0.034  10.456  22.063  0.00  0.00    +0.000 A 
ATOM     13 CL   UNL     1      -0.185   9.559  23.523  0.00  0.00    +0.000 Cl
ATOM     14  C   UNL     1       0.470   9.826  20.928  0.00  0.00    +0.000 A 
ENDBRANCH   5   7
ENDBRANCH   2   5
ENDBRANCH   1   2
BRANCH   1  15
ATOM     15  C   UNL     1       3.427   6.327  18.812  0.00  0.00    +0.000 C 
BRANCH  15  16
ATOM     16  N   UNL     1       4.752   6.050  18.130  0.00  0.00    +0.000 NA
ATOM     17  C   UNL     1       5.691   5.392  19.063  0.00  0.00    +0.000 C 
ATOM     18  C   UNL     1       7.176   5.509  18.699  0.00  0.00    +0.000 C 
ATOM     19  C   UNL     1       7.664   4.527  17.650  0.00  0.00    +0.000 C 
ATOM     20  C   UNL     1       6.963   4.692  16.313  0.00  0.00    +0.000 C 
ATOM     21  C   UNL     1       5.518   4.230  16.388  0.00  0.00    +0.000 C 
ATOM     22  C   UNL     1       4.520   5.283  16.882  0.00  0.00    +0.000 C 
ENDBRANCH  15  16
BRANCH  15  23
ATOM     23  C   UNL     1       2.581   5.083  19.142  0.00  0.00    +0.000 A 
ATOM     24  C   UNL     1       1.904   4.367  18.145  0.00  0.00    +0.000 A 
ATOM     25  C   UNL     1       1.058   3.301  18.472  0.00  0.00    +0.000 A 
ATOM     26  C   UNL     1       0.918   2.901  19.797  0.00  0.00    +0.000 A 
ATOM     27  C   UNL     1       1.634   3.552  20.794  0.00  0.00    +0.000 A 
ATOM     28  C   UNL     1       2.451   4.642  20.475  0.00  0.00    +0.000 A 
ENDBRANCH  15  23
ENDBRANCH   1  15
TORSDOF 6
ENDMDL
MODEL 6
REMARK VINA RESULT:      -8.1      1.463      1.857
REMARK  Name = 
REMARK  6 active torsions:
REMARK  status: ('A' for Active; 'I' for Inactive)
REMARK    1  A    between atoms: S_2  and  N_4
REMARK    2  A    between atoms: S_2  and  C_20
REMARK    3  A    between atoms: N_4  and  C_5
REMARK    4  A    between atoms: C_5  and  C_6
REMARK    5  A    between atoms: C_6  and  C_7
REMARK    6  A    between atoms: C_6  and  N_13
REMARK                            x       y       z     vdW  Elec       q    Type
REMARK                         _______ _______ _______ _____ _____    ______ ____
ROOT
ATOM      1  C   UNL     1       3.538   5.794  17.428  0.00  0.00    +0.000 C 
ENDROOT
BRANCH   1   2
ATOM      2  N   UNL     1       4.936   5.846  16.949  0.00  0.00    +0.000 NA
ATOM      3  H   UNL     1       5.167   6.563  16.265  0.00  0.00    +0.000 HD
BRANCH   2   5
ATOM      4  O   UNL     1       6.953   4.484  17.610  0.00  0.00    +0.000 OA
ATOM      5  S   UNL     1       5.765   4.401  16.797  0.00  0.00    +0.000 S 
ATOM      6  O   UNL     1       4.811   3.315  16.930  0.00  0.00    +0.000 OA
BRANCH   5   7
ATOM      7  C   UNL     1       6.284   4.458  15.097  0.00  0.00    +0.000 A 
ATOM      8  C   UNL     1       7.402   5.210  14.718  0.00  0.00    +0.000 A 
ATOM      9  C   UNL     1       7.792   5.217  13.377  0.00  0.00    +0.000 A 
ATOM     10  C   UNL     1       7.072   4.476  12.441  0.00  0.00    +0.000 A 
ATOM     11  F   UNL     1       7.465   4.500  11.160  0.00  0.00    +0.000 F 
ATOM     12  C   UNL     1       5.965   3.719  12.830  0.00  0.00    +0.000 A 
ATOM     13 CL   UNL     1       5.089   2.784  11.682  0.00  0.00    +0.000 Cl
ATOM     14  C   UNL     1       5.564   3.708  14.163  0.00  0.00    +0.000 A 
ENDBRANCH   5   7
ENDBRANCH   2   5
ENDBRANCH   1   2
BRANCH   1  15
ATOM     15  C   UNL     1       3.365   6.290  18.905  0.00  0.00    +0.000 C 
BRANCH  15  16
ATOM     16  N   UNL     1       2.934   5.204  19.871  0.00  0.00    +0.000 NA
ATOM     17  C   UNL     1       1.691   4.555  19.405  0.00  0.00    +0.000 C 
ATOM     18  C   UNL     1       0.881   3.825  20.484  0.00  0.00    +0.000 C 
ATOM     19  C   UNL     1       1.377   2.433  20.833  0.00  0.00    +0.000 C 
ATOM     20  C   UNL     1       2.788   2.430  21.393  0.00  0.00    +0.000 C 
ATOM     21  C   UNL     1       3.808   2.760  20.318  0.00  0.00    +0.000 C 
ATOM     22  C   UNL     1       4.054   4.255  20.088  0.00  0.00    +0.000 C 
ENDBRANCH  15  16
BRANCH  15  23
ATOM     23  C   UNL     1       2.497   7.563  18.914  0.00  0.00    +0.000 A 
ATOM     24  C   UNL     1       2.375   8.379  17.781  0.00  0.00    +0.000 A 
ATOM     25  C   UNL     1       1.666   9.585  17.835  0.00  0.00    +0.000 A 
ATOM     26  C   UNL     1       1.023   9.966  19.007  0.00  0.00    +0.000 A 
ATOM     27  C   UNL     1       1.073   9.138  20.123  0.00  0.00    +0.000 A 
ATOM     28  C   UNL     1       1.812   7.951  20.084  0.00  0.00    +0.000 A 
ENDBRANCH  15  23
ENDBRANCH   1  15
TORSDOF 6
ENDMDL
MODEL 7
REMARK VINA RESULT:      -8.1      4.963      8.071
REMARK  Name = 
REMARK  6 active torsions:
REMARK  status: ('A' for Active; 'I' for Inactive)
REMARK    1  A    between atoms: S_2  and  N_4
REMARK    2  A    between atoms: S_2  and  C_20
REMARK    3  A    between atoms: N_4  and  C_5
REMARK    4  A    between atoms: C_5  and  C_6
REMARK    5  A    between atoms: C_6  and  C_7
REMARK    6  A    between atoms: C_6  and  N_13
REMARK                            x       y       z     vdW  Elec       q    Type
REMARK                         _______ _______ _______ _____ _____    ______ ____
ROOT
ATOM      1  C   UNL     1       2.678   7.115  18.064  0.00  0.00    +0.000 C 
ENDROOT
BRANCH   1   2
ATOM      2  N   UNL     1       2.263   8.126  19.060  0.00  0.00    +0.000 NA
ATOM      3  H   UNL     1       2.032   7.792  19.993  0.00  0.00    +0.000 HD
BRANCH   2   5
ATOM      4  O   UNL     1       2.312  10.490  18.181  0.00  0.00    +0.000 OA
ATOM      5  S   UNL     1       1.381   9.442  18.519  0.00  0.00    +0.000 S 
ATOM      6  O   UNL     1       0.381   8.963  17.582  0.00  0.00    +0.000 OA
BRANCH   5   7
ATOM      7  C   UNL     1       0.535   9.945  20.000  0.00  0.00    +0.000 A 
ATOM      8  C   UNL     1       0.728   9.253  21.202  0.00  0.00    +0.000 A 
ATOM      9  C   UNL     1       0.062   9.687  22.349  0.00  0.00    +0.000 A 
ATOM     10  C   UNL     1      -0.776  10.800  22.286  0.00  0.00    +0.000 A 
ATOM     11  F   UNL     1      -1.405  11.197  23.401  0.00  0.00    +0.000 F 
ATOM     12  C   UNL     1      -0.953  11.492  21.086  0.00  0.00    +0.000 A 
ATOM     13 CL   UNL     1      -1.966  12.880  21.010  0.00  0.00    +0.000 Cl
ATOM     14  C   UNL     1      -0.298  11.065  19.935  0.00  0.00    +0.000 A 
ENDBRANCH   5   7
ENDBRANCH   2   5
ENDBRANCH   1   2
BRANCH   1  15
ATOM     15  C   UNL     1       3.491   5.927  18.684  0.00  0.00    +0.000 C 
BRANCH  15  16
ATOM     16  N   UNL     1       4.549   5.358  17.760  0.00  0.00    +0.000 NA
ATOM     17  C   UNL     1       4.821   6.288  16.644  0.00  0.00    +0.000 C 
ATOM     18  C   UNL     1       5.459   5.660  15.399  0.00  0.00    +0.000 C 
ATOM     19  C   UNL     1       6.960   5.448  15.478  0.00  0.00    +0.000 C 
ATOM     20  C   UNL     1       7.367   4.502  16.594  0.00  0.00    +0.000 C 
ATOM     21  C   UNL     1       7.166   5.140  17.957  0.00  0.00    +0.000 C 
ATOM     22  C   UNL     1       5.757   4.999  18.542  0.00  0.00    +0.000 C 
ENDBRANCH  15  16
BRANCH  15  23
ATOM     23  C   UNL     1       2.510   4.898  19.277  0.00  0.00    +0.000 A 
ATOM     24  C   UNL     1       2.357   4.737  20.661  0.00  0.00    +0.000 A 
ATOM     25  C   UNL     1       1.538   3.729  21.184  0.00  0.00    +0.000 A 
ATOM     26  C   UNL     1       0.818   2.901  20.330  0.00  0.00    +0.000 A 
ATOM     27  C   UNL     1       0.900   3.088  18.955  0.00  0.00    +0.000 A 
ATOM     28  C   UNL     1       1.747   4.069  18.428  0.00  0.00    +0.000 A 
ENDBRANCH  15  23
ENDBRANCH   1  15
TORSDOF 6
ENDMDL
MODEL 8
REMARK VINA RESULT:      -8.1      4.849      7.829
REMARK  Name = 
REMARK  6 active torsions:
REMARK  status: ('A' for Active; 'I' for Inactive)
REMARK    1  A    between atoms: S_2  and  N_4
REMARK    2  A    between atoms: S_2  and  C_20
REMARK    3  A    between atoms: N_4  and  C_5
REMARK    4  A    between atoms: C_5  and  C_6
REMARK    5  A    between atoms: C_6  and  C_7
REMARK    6  A    between atoms: C_6  and  N_13
REMARK                            x       y       z     vdW  Elec       q    Type
REMARK                         _______ _______ _______ _____ _____    ______ ____
ROOT
ATOM      1  C   UNL     1       2.542   6.964  17.919  0.00  0.00    +0.000 C 
ENDROOT
BRANCH   1   2
ATOM      2  N   UNL     1       2.714   8.279  18.574  0.00  0.00    +0.000 NA
ATOM      3  H   UNL     1       3.126   8.284  19.504  0.00  0.00    +0.000 HD
BRANCH   2   5
ATOM      4  O   UNL     1       2.253  10.692  18.001  0.00  0.00    +0.000 OA
ATOM      5  S   UNL     1       1.562   9.457  18.281  0.00  0.00    +0.000 S 
ATOM      6  O   UNL     1       0.568   8.904  17.379  0.00  0.00    +0.000 OA
BRANCH   5   7
ATOM      7  C   UNL     1       0.803   9.627  19.880  0.00  0.00    +0.000 A 
ATOM      8  C   UNL     1       1.097   8.724  20.909  0.00  0.00    +0.000 A 
ATOM      9  C   UNL     1       0.497   8.898  22.157  0.00  0.00    +0.000 A 
ATOM     10  C   UNL     1      -0.376   9.966  22.364  0.00  0.00    +0.000 A 
ATOM     11  F   UNL     1      -0.940  10.111  23.571  0.00  0.00    +0.000 F 
ATOM     12  C   UNL     1      -0.654  10.869  21.336  0.00  0.00    +0.000 A 
ATOM     13 CL   UNL     1      -1.712  12.201  21.595  0.00  0.00    +0.000 Cl
ATOM     14  C   UNL     1      -0.066  10.702  20.086  0.00  0.00    +0.000 A 
ENDBRANCH   5   7
ENDBRANCH   2   5
ENDBRANCH   1   2
BRANCH   1  15
ATOM     15  C   UNL     1       3.468   5.846  18.511  0.00  0.00    +0.000 C 
BRANCH  15  16
ATOM     16  N   UNL     1       4.467   5.288  17.518  0.00  0.00    +0.000 NA
ATOM     17  C   UNL     1       4.861   6.321  16.537  0.00  0.00    +0.000 C 
ATOM     18  C   UNL     1       5.443   5.795  15.219  0.00  0.00    +0.000 C 
ATOM     19  C   UNL     1       6.908   5.403  15.269  0.00  0.00    +0.000 C 
ATOM     20  C   UNL     1       7.188   4.277  16.248  0.00  0.00    +0.000 C 
ATOM     21  C   UNL     1       7.039   4.746  17.684  0.00  0.00    +0.000 C 
ATOM     22  C   UNL     1       5.614   4.691  18.246  0.00  0.00    +0.000 C 
ENDBRANCH  15  16
BRANCH  15  23
ATOM     23  C   UNL     1       2.598   4.799  19.232  0.00  0.00    +0.000 A 
ATOM     24  C   UNL     1       1.770   3.916  18.527  0.00  0.00    +0.000 A 
ATOM     25  C   UNL     1       0.911   3.040  19.200  0.00  0.00    +0.000 A 
ATOM     26  C   UNL     1       0.906   2.996  20.590  0.00  0.00    +0.000 A 
ATOM     27  C   UNL     1       1.770   3.814  21.310  0.00  0.00    +0.000 A 
ATOM     28  C   UNL     1       2.603   4.717  20.641  0.00  0.00    +0.000 A 
ENDBRANCH  15  23
ENDBRANCH   1  15
TORSDOF 6
ENDMDL
MODEL 9
REMARK VINA RESULT:      -8.1      0.747      4.173
REMARK  Name = 
REMARK  6 active torsions:
REMARK  status: ('A' for Active; 'I' for Inactive)
REMARK    1  A    between atoms: S_2  and  N_4
REMARK    2  A    between atoms: S_2  and  C_20
REMARK    3  A    between atoms: N_4  and  C_5
REMARK    4  A    between atoms: C_5  and  C_6
REMARK    5  A    between atoms: C_6  and  C_7
REMARK    6  A    between atoms: C_6  and  N_13
REMARK                            x       y       z     vdW  Elec       q    Type
REMARK                         _______ _______ _______ _____ _____    ______ ____
ROOT
ATOM      1  C   UNL     1       4.176   6.234  19.262  0.00  0.00    +0.000 C 
ENDROOT
BRANCH   1   2
ATOM      2  N   UNL     1       5.285   6.421  18.302  0.00  0.00    +0.000 NA
ATOM      3  H   UNL     1       5.072   6.909  17.435  0.00  0.00    +0.000 HD
BRANCH   2   5
ATOM      4  O   UNL     1       7.735   5.822  18.341  0.00  0.00    +0.000 OA
ATOM      5  S   UNL     1       6.437   5.212  18.192  0.00  0.00    +0.000 S 
ATOM      6  O   UNL     1       6.005   4.098  19.017  0.00  0.00    +0.000 OA
BRANCH   5   7
ATOM      7  C   UNL     1       6.280   4.715  16.492  0.00  0.00    +0.000 A 
ATOM      8  C   UNL     1       5.248   3.857  16.092  0.00  0.00    +0.000 A 
ATOM      9  C   UNL     1       5.144   3.502  14.746  0.00  0.00    +0.000 A 
ATOM     10  C   UNL     1       6.058   4.009  13.822  0.00  0.00    +0.000 A 
ATOM     11  F   UNL     1       5.938   3.652  12.536  0.00  0.00    +0.000 F 
ATOM     12  C   UNL     1       7.077   4.873  14.227  0.00  0.00    +0.000 A 
ATOM     13 CL   UNL     1       8.191   5.518  13.087  0.00  0.00    +0.000 Cl
ATOM     14  C   UNL     1       7.194   5.229  15.568  0.00  0.00    +0.000 A 
ENDBRANCH   5   7
ENDBRANCH   2   5
ENDBRANCH   1   2
BRANCH   1  15
ATOM     15  C   UNL     1       2.772   6.108  18.578  0.00  0.00    +0.000 C 
BRANCH  15  16
ATOM     16  N   UNL     1       1.884   7.321  18.770  0.00  0.00    +0.000 NA
ATOM     17  C   UNL     1       2.019   7.853  20.143  0.00  0.00    +0.000 C 
ATOM     18  C   UNL     1       0.854   8.723  20.633  0.00  0.00    +0.000 C 
ATOM     19  C   UNL     1       0.880  10.165  20.161  0.00  0.00    +0.000 C 
ATOM     20  C   UNL     1       0.802  10.296  18.650  0.00  0.00    +0.000 C 
ATOM     21  C   UNL     1       2.086   9.828  17.989  0.00  0.00    +0.000 C 
ATOM     22  C   UNL     1       2.168   8.322  17.714  0.00  0.00    +0.000 C 
ENDBRANCH  15  16
BRANCH  15  23
ATOM     23  C   UNL     1       2.139   4.758  18.965  0.00  0.00    +0.000 A 
ATOM     24  C   UNL     1       1.870   3.769  18.009  0.00  0.00    +0.000 A 
ATOM     25  C   UNL     1       1.203   2.590  18.361  0.00  0.00    +0.000 A 
ATOM     26  C   UNL     1       0.842   2.359  19.684  0.00  0.00    +0.000 A 
ATOM     27  C   UNL     1       1.162   3.295  20.661  0.00  0.00    +0.000 A 
ATOM     28  C   UNL     1       1.795   4.491  20.307  0.00  0.00    +0.000 A 
ENDBRANCH  15  23
ENDBRANCH   1  15
TORSDOF 6
ENDMDL
