MODEL 1
REMARK VINA RESULT:      -8.0      0.000      0.000
REMARK  Name = 
REMARK  9 active torsions:
REMARK  status: ('A' for Active; 'I' for Inactive)
REMARK    1  A    between atoms: C_1  and  O_2
REMARK    2  A    between atoms: O_2  and  C_3
REMARK    3  A    between atoms: C_5  and  C_6
REMARK    4  A    between atoms: C_16  and  C_17
REMARK    5  A    between atoms: C_20  and  C_21
REMARK    6  A    between atoms: C_21  and  C_22
REMARK    7  A    between atoms: C_21  and  C_23
REMARK    8  A    between atoms: C_21  and  C_24
REMARK    9  A    between atoms: N_26  and  C_27
REMARK                            x       y       z     vdW  Elec       q    Type
REMARK                         _______ _______ _______ _____ _____    ______ ____
ROOT
ATOM      1  C   UNL     1       2.700   5.749  20.143  0.00  0.00    +0.000 A 
ATOM      2  N   UNL     1       3.713   5.329  19.351  0.00  0.00    +0.000 NA
ATOM      3  C   UNL     1       4.061   6.029  18.238  0.00  0.00    +0.000 A 
ATOM      4  C   UNL     1       3.431   7.228  17.885  0.00  0.00    +0.000 A 
ATOM      5  C   UNL     1       2.431   7.693  18.735  0.00  0.00    +0.000 A 
ATOM      6  N   UNL     1       1.685   8.846  18.675  0.00  0.00    +0.000 NA
ATOM      7  C   UNL     1       0.901   8.813  19.731  0.00  0.00    +0.000 A 
ATOM      8  N   UNL     1       1.078   7.649  20.434  0.00  0.00    +0.000 N 
ATOM      9  C   UNL     1       2.081   6.941  19.836  0.00  0.00    +0.000 A 
ATOM     10  H   UNL     1       0.590   7.383  21.277  0.00  0.00    +0.000 HD
ENDROOT
BRANCH   3  11
ATOM     11  C   UNL     1       5.158   5.475  17.404  0.00  0.00    +0.000 A 
ATOM     12  C   UNL     1       4.888   5.111  16.060  0.00  0.00    +0.000 A 
ATOM     13  C   UNL     1       5.846   4.504  15.243  0.00  0.00    +0.000 A 
ATOM     14  C   UNL     1       7.122   4.271  15.732  0.00  0.00    +0.000 A 
ATOM     15  C   UNL     1       7.436   4.651  17.034  0.00  0.00    +0.000 A 
ATOM     16  C   UNL     1       6.470   5.240  17.867  0.00  0.00    +0.000 A 
ATOM     17 CL   UNL     1       6.999   5.576  19.483  0.00  0.00    +0.000 Cl
ENDBRANCH   3  11
BRANCH   7  18
ATOM     18  C   UNL     1       0.014   9.856  20.132  0.00  0.00    +0.000 A 
ATOM     19  C   UNL     1      -0.215  10.419  21.374  0.00  0.00    +0.000 A 
ATOM     20 CL   UNL     1       0.498   9.970  22.856  0.00  0.00    +0.000 Cl
ATOM     21  C   UNL     1      -1.148  11.473  21.162  0.00  0.00    +0.000 A 
ATOM     22  N   UNL     1      -1.499  11.533  19.869  0.00  0.00    +0.000 NA
ATOM     23  N   UNL     1      -0.797  10.552  19.271  0.00  0.00    +0.000 N 
ATOM     24  C   UNL     1      -0.942  10.371  17.844  0.00  0.00    +0.000 C 
BRANCH  21  25
ATOM     25  C   UNL     1      -1.733  12.477  22.151  0.00  0.00    +0.000 C 
ATOM     26  C   UNL     1      -2.358  11.751  23.361  0.00  0.00    +0.000 C 
ATOM     27  C   UNL     1      -0.639  13.426  22.703  0.00  0.00    +0.000 C 
ATOM     28  C   UNL     1      -2.804  13.358  21.478  0.00  0.00    +0.000 C 
ENDBRANCH  21  25
ENDBRANCH   7  18
BRANCH   1  30
ATOM     29  C   UNL     1       2.050   3.660  20.953  0.00  0.00    +0.000 C 
ATOM     30  O   UNL     1       2.284   5.032  21.245  0.00  0.00    +0.000 OA
ENDBRANCH   1  30
TORSDOF 4
ENDMDL
MODEL 2
REMARK VINA RESULT:      -7.9      1.544      2.026
REMARK  Name = 
REMARK  9 active torsions:
REMARK  status: ('A' for Active; 'I' for Inactive)
REMARK    1  A    between atoms: C_1  and  O_2
REMARK    2  A    between atoms: O_2  and  C_3
REMARK    3  A    between atoms: C_5  and  C_6
REMARK    4  A    between atoms: C_16  and  C_17
REMARK    5  A    between atoms: C_20  and  C_21
REMARK    6  A    between atoms: C_21  and  C_22
REMARK    7  A    between atoms: C_21  and  C_23
REMARK    8  A    between atoms: C_21  and  C_24
REMARK    9  A    between atoms: N_26  and  C_27
REMARK                            x       y       z     vdW  Elec       q    Type
REMARK                         _______ _______ _______ _____ _____    ______ ____
ROOT
ATOM      1  C   UNL     1       2.729   5.707  20.007  0.00  0.00    +0.000 A 
ATOM      2  N   UNL     1       3.635   5.296  19.091  0.00  0.00    +0.000 NA
ATOM      3  C   UNL     1       3.915   6.059  18.000  0.00  0.00    +0.000 A 
ATOM      4  C   UNL     1       3.325   7.312  17.796  0.00  0.00    +0.000 A 
ATOM      5  C   UNL     1       2.439   7.761  18.770  0.00  0.00    +0.000 A 
ATOM      6  N   UNL     1       1.758   8.951  18.864  0.00  0.00    +0.000 NA
ATOM      7  C   UNL     1       1.077   8.879  19.988  0.00  0.00    +0.000 A 
ATOM      8  N   UNL     1       1.254   7.659  20.588  0.00  0.00    +0.000 N 
ATOM      9  C   UNL     1       2.153   6.948  19.846  0.00  0.00    +0.000 A 
ATOM     10  H   UNL     1       0.833   7.356  21.455  0.00  0.00    +0.000 HD
ENDROOT
BRANCH   3  11
ATOM     11  C   UNL     1       4.895   5.514  17.025  0.00  0.00    +0.000 A 
ATOM     12  C   UNL     1       4.591   4.310  16.340  0.00  0.00    +0.000 A 
ATOM     13  C   UNL     1       5.498   3.693  15.476  0.00  0.00    +0.000 A 
ATOM     14  C   UNL     1       6.732   4.277  15.237  0.00  0.00    +0.000 A 
ATOM     15  C   UNL     1       7.051   5.481  15.860  0.00  0.00    +0.000 A 
ATOM     16  C   UNL     1       6.151   6.094  16.749  0.00  0.00    +0.000 A 
ATOM     17 CL   UNL     1       6.735   7.541  17.504  0.00  0.00    +0.000 Cl
ENDBRANCH   3  11
BRANCH   7  18
ATOM     18  C   UNL     1       0.294   9.934  20.546  0.00  0.00    +0.000 A 
ATOM     19  C   UNL     1      -0.471  10.910  19.935  0.00  0.00    +0.000 A 
ATOM     20 CL   UNL     1      -0.665  11.170  18.262  0.00  0.00    +0.000 Cl
ATOM     21  C   UNL     1      -1.091  11.640  20.990  0.00  0.00    +0.000 A 
ATOM     22  N   UNL     1      -0.702  11.162  22.180  0.00  0.00    +0.000 NA
ATOM     23  N   UNL     1       0.131  10.145  21.892  0.00  0.00    +0.000 N 
ATOM     24  C   UNL     1       0.712   9.397  22.986  0.00  0.00    +0.000 C 
BRANCH  21  25
ATOM     25  C   UNL     1      -2.084  12.797  20.927  0.00  0.00    +0.000 C 
ATOM     26  C   UNL     1      -1.409  14.065  20.363  0.00  0.00    +0.000 C 
ATOM     27  C   UNL     1      -3.279  12.464  19.998  0.00  0.00    +0.000 C 
ATOM     28  C   UNL     1      -2.663  13.106  22.321  0.00  0.00    +0.000 C 
ENDBRANCH  21  25
ENDBRANCH   7  18
BRANCH   1  30
ATOM     29  C   UNL     1       1.421   3.932  20.769  0.00  0.00    +0.000 C 
ATOM     30  O   UNL     1       2.379   4.932  21.092  0.00  0.00    +0.000 OA
ENDBRANCH   1  30
TORSDOF 4
ENDMDL
MODEL 3
REMARK VINA RESULT:      -7.9      1.378      1.743
REMARK  Name = 
REMARK  9 active torsions:
REMARK  status: ('A' for Active; 'I' for Inactive)
REMARK    1  A    between atoms: C_1  and  O_2
REMARK    2  A    between atoms: O_2  and  C_3
REMARK    3  A    between atoms: C_5  and  C_6
REMARK    4  A    between atoms: C_16  and  C_17
REMARK    5  A    between atoms: C_20  and  C_21
REMARK    6  A    between atoms: C_21  and  C_22
REMARK    7  A    between atoms: C_21  and  C_23
REMARK    8  A    between atoms: C_21  and  C_24
REMARK    9  A    between atoms: N_26  and  C_27
REMARK                            x       y       z     vdW  Elec       q    Type
REMARK                         _______ _______ _______ _____ _____    ______ ____
ROOT
ATOM      1  C   UNL     1       2.659   5.606  20.192  0.00  0.00    +0.000 A 
ATOM      2  N   UNL     1       3.613   5.178  19.335  0.00  0.00    +0.000 NA
ATOM      3  C   UNL     1       3.968   5.931  18.258  0.00  0.00    +0.000 A 
ATOM      4  C   UNL     1       3.407   7.189  18.012  0.00  0.00    +0.000 A 
ATOM      5  C   UNL     1       2.471   7.656  18.930  0.00  0.00    +0.000 A 
ATOM      6  N   UNL     1       1.801   8.855  18.977  0.00  0.00    +0.000 NA
ATOM      7  C   UNL     1       1.054   8.799  20.059  0.00  0.00    +0.000 A 
ATOM      8  N   UNL     1       1.178   7.580  20.674  0.00  0.00    +0.000 N 
ATOM      9  C   UNL     1       2.110   6.853  19.991  0.00  0.00    +0.000 A 
ATOM     10  H   UNL     1       0.703   7.287  21.516  0.00  0.00    +0.000 HD
ENDROOT
BRANCH   3  11
ATOM     11  C   UNL     1       4.996   5.367  17.345  0.00  0.00    +0.000 A 
ATOM     12  C   UNL     1       4.602   4.899  16.066  0.00  0.00    +0.000 A 
ATOM     13  C   UNL     1       5.496   4.278  15.190  0.00  0.00    +0.000 A 
ATOM     14  C   UNL     1       6.827   4.134  15.549  0.00  0.00    +0.000 A 
ATOM     15  C   UNL     1       7.260   4.618  16.781  0.00  0.00    +0.000 A 
ATOM     16  C   UNL     1       6.360   5.222  17.675  0.00  0.00    +0.000 A 
ATOM     17 CL   UNL     1       7.042   5.693  19.198  0.00  0.00    +0.000 Cl
ENDBRANCH   3  11
BRANCH   7  18
ATOM     18  C   UNL     1       0.253   9.867  20.564  0.00  0.00    +0.000 A 
ATOM     19  C   UNL     1      -0.497  10.822  19.904  0.00  0.00    +0.000 A 
ATOM     20 CL   UNL     1      -0.644  11.033  18.219  0.00  0.00    +0.000 Cl
ATOM     21  C   UNL     1      -1.148  11.581  20.919  0.00  0.00    +0.000 A 
ATOM     22  N   UNL     1      -0.792  11.138  22.133  0.00  0.00    +0.000 NA
ATOM     23  N   UNL     1       0.052  10.116  21.898  0.00  0.00    +0.000 N 
ATOM     24  C   UNL     1       0.603   9.402  23.029  0.00  0.00    +0.000 C 
BRANCH  21  25
ATOM     25  C   UNL     1      -2.142  12.732  20.794  0.00  0.00    +0.000 C 
ATOM     26  C   UNL     1      -2.743  13.085  22.171  0.00  0.00    +0.000 C 
ATOM     27  C   UNL     1      -1.455  14.012  20.254  0.00  0.00    +0.000 C 
ATOM     28  C   UNL     1      -3.280  12.378  19.818  0.00  0.00    +0.000 C 
ENDBRANCH  21  25
ENDBRANCH   7  18
BRANCH   1  30
ATOM     29  C   UNL     1       2.009   3.482  20.907  0.00  0.00    +0.000 C 
ATOM     30  O   UNL     1       2.235   4.842  21.258  0.00  0.00    +0.000 OA
ENDBRANCH   1  30
TORSDOF 4
ENDMDL
MODEL 4
REMARK VINA RESULT:      -7.8      1.766      2.161
REMARK  Name = 
REMARK  9 active torsions:
REMARK  status: ('A' for Active; 'I' for Inactive)
REMARK    1  A    between atoms: C_1  and  O_2
REMARK    2  A    between atoms: O_2  and  C_3
REMARK    3  A    between atoms: C_5  and  C_6
REMARK    4  A    between atoms: C_16  and  C_17
REMARK    5  A    between atoms: C_20  and  C_21
REMARK    6  A    between atoms: C_21  and  C_22
REMARK    7  A    between atoms: C_21  and  C_23
REMARK    8  A    between atoms: C_21  and  C_24
REMARK    9  A    between atoms: N_26  and  C_27
REMARK                            x       y       z     vdW  Elec       q    Type
REMARK                         _______ _______ _______ _____ _____    ______ ____
ROOT
ATOM      1  C   UNL     1       2.352   5.771  20.296  0.00  0.00    +0.000 A 
ATOM      2  N   UNL     1       3.302   5.348  19.431  0.00  0.00    +0.000 NA
ATOM      3  C   UNL     1       3.678   6.123  18.378  0.00  0.00    +0.000 A 
ATOM      4  C   UNL     1       3.146   7.400  18.166  0.00  0.00    +0.000 A 
ATOM      5  C   UNL     1       2.215   7.860  19.091  0.00  0.00    +0.000 A 
ATOM      6  N   UNL     1       1.570   9.072  19.169  0.00  0.00    +0.000 NA
ATOM      7  C   UNL     1       0.816   9.001  20.246  0.00  0.00    +0.000 A 
ATOM      8  N   UNL     1       0.911   7.762  20.826  0.00  0.00    +0.000 N 
ATOM      9  C   UNL     1       1.831   7.036  20.127  0.00  0.00    +0.000 A 
ATOM     10  H   UNL     1       0.425   7.456  21.657  0.00  0.00    +0.000 HD
ENDROOT
BRANCH   3  11
ATOM     11  C   UNL     1       4.699   5.564  17.455  0.00  0.00    +0.000 A 
ATOM     12  C   UNL     1       5.896   6.290  17.227  0.00  0.00    +0.000 A 
ATOM     13  C   UNL     1       6.861   5.870  16.308  0.00  0.00    +0.000 A 
ATOM     14  C   UNL     1       6.680   4.688  15.607  0.00  0.00    +0.000 A 
ATOM     15  C   UNL     1       5.536   3.927  15.834  0.00  0.00    +0.000 A 
ATOM     16  C   UNL     1       4.551   4.356  16.740  0.00  0.00    +0.000 A 
ATOM     17 CL   UNL     1       3.153   3.338  16.843  0.00  0.00    +0.000 Cl
ENDBRANCH   3  11
BRANCH   7  18
ATOM     18  C   UNL     1       0.035  10.071  20.777  0.00  0.00    +0.000 A 
ATOM     19  C   UNL     1      -0.658  11.084  20.141  0.00  0.00    +0.000 A 
ATOM     20 CL   UNL     1      -0.740  11.382  18.464  0.00  0.00    +0.000 Cl
ATOM     21  C   UNL     1      -1.317  11.815  21.170  0.00  0.00    +0.000 A 
ATOM     22  N   UNL     1      -1.018  11.301  22.372  0.00  0.00    +0.000 NA
ATOM     23  N   UNL     1      -0.203  10.262  22.114  0.00  0.00    +0.000 N 
ATOM     24  C   UNL     1       0.284   9.474  23.226  0.00  0.00    +0.000 C 
BRANCH  21  25
ATOM     25  C   UNL     1      -2.266  13.006  21.071  0.00  0.00    +0.000 C 
ATOM     26  C   UNL     1      -2.763  13.426  22.471  0.00  0.00    +0.000 C 
ATOM     27  C   UNL     1      -1.561  14.237  20.448  0.00  0.00    +0.000 C 
ATOM     28  C   UNL     1      -3.479  12.675  20.179  0.00  0.00    +0.000 C 
ENDBRANCH  21  25
ENDBRANCH   7  18
BRANCH   1  30
ATOM     29  C   UNL     1       1.487   3.695  20.915  0.00  0.00    +0.000 C 
ATOM     30  O   UNL     1       1.906   4.987  21.338  0.00  0.00    +0.000 OA
ENDBRANCH   1  30
TORSDOF 4
ENDMDL
MODEL 5
REMARK VINA RESULT:      -7.8      1.088      1.493
REMARK  Name = 
REMARK  9 active torsions:
REMARK  status: ('A' for Active; 'I' for Inactive)
REMARK    1  A    between atoms: C_1  and  O_2
REMARK    2  A    between atoms: O_2  and  C_3
REMARK    3  A    between atoms: C_5  and  C_6
REMARK    4  A    between atoms: C_16  and  C_17
REMARK    5  A    between atoms: C_20  and  C_21
REMARK    6  A    between atoms: C_21  and  C_22
REMARK    7  A    between atoms: C_21  and  C_23
REMARK    8  A    between atoms: C_21  and  C_24
REMARK    9  A    between atoms: N_26  and  C_27
REMARK                            x       y       z     vdW  Elec       q    Type
REMARK                         _______ _______ _______ _____ _____    ______ ____
ROOT
ATOM      1  C   UNL     1       2.437   5.969  20.278  0.00  0.00    +0.000 A 
ATOM      2  N   UNL     1       3.431   5.532  19.472  0.00  0.00    +0.000 NA
ATOM      3  C   UNL     1       3.775   6.228  18.354  0.00  0.00    +0.000 A 
ATOM      4  C   UNL     1       3.161   7.437  18.011  0.00  0.00    +0.000 A 
ATOM      5  C   UNL     1       2.181   7.917  18.874  0.00  0.00    +0.000 A 
ATOM      6  N   UNL     1       1.453   9.083  18.825  0.00  0.00    +0.000 NA
ATOM      7  C   UNL     1       0.683   9.062  19.892  0.00  0.00    +0.000 A 
ATOM      8  N   UNL     1       0.851   7.895  20.592  0.00  0.00    +0.000 N 
ATOM      9  C   UNL     1       1.834   7.172  19.980  0.00  0.00    +0.000 A 
ATOM     10  H   UNL     1       0.370   7.637  21.442  0.00  0.00    +0.000 HD
ENDROOT
BRANCH   3  11
ATOM     11  C   UNL     1       4.851   5.656  17.504  0.00  0.00    +0.000 A 
ATOM     12  C   UNL     1       6.058   6.382  17.336  0.00  0.00    +0.000 A 
ATOM     13  C   UNL     1       7.077   5.950  16.484  0.00  0.00    +0.000 A 
ATOM     14  C   UNL     1       6.942   4.755  15.795  0.00  0.00    +0.000 A 
ATOM     15  C   UNL     1       5.788   3.994  15.966  0.00  0.00    +0.000 A 
ATOM     16  C   UNL     1       4.750   4.435  16.803  0.00  0.00    +0.000 A 
ATOM     17 CL   UNL     1       3.350   3.414  16.839  0.00  0.00    +0.000 Cl
ENDBRANCH   3  11
BRANCH   7  18
ATOM     18  C   UNL     1      -0.181  10.120  20.306  0.00  0.00    +0.000 A 
ATOM     19  C   UNL     1      -0.473  10.606  21.567  0.00  0.00    +0.000 A 
ATOM     20 CL   UNL     1       0.109  10.019  23.057  0.00  0.00    +0.000 Cl
ATOM     21  C   UNL     1      -1.338  11.720  21.367  0.00  0.00    +0.000 A 
ATOM     22  N   UNL     1      -1.590  11.887  20.061  0.00  0.00    +0.000 NA
ATOM     23  N   UNL     1      -0.893  10.916  19.444  0.00  0.00    +0.000 N 
ATOM     24  C   UNL     1      -0.942  10.842  18.000  0.00  0.00    +0.000 C 
BRANCH  21  25
ATOM     25  C   UNL     1      -1.945  12.682  22.385  0.00  0.00    +0.000 C 
ATOM     26  C   UNL     1      -0.843  13.511  23.078  0.00  0.00    +0.000 C 
ATOM     27  C   UNL     1      -2.911  13.684  21.705  0.00  0.00    +0.000 C 
ATOM     28  C   UNL     1      -2.755  11.920  23.452  0.00  0.00    +0.000 C 
ENDBRANCH  21  25
ENDBRANCH   7  18
BRANCH   1  30
ATOM     29  C   UNL     1       2.143   3.852  21.213  0.00  0.00    +0.000 C 
ATOM     30  O   UNL     1       2.024   5.259  21.385  0.00  0.00    +0.000 OA
ENDBRANCH   1  30
TORSDOF 4
ENDMDL
MODEL 6
REMARK VINA RESULT:      -7.7      0.721      1.073
REMARK  Name = 
REMARK  9 active torsions:
REMARK  status: ('A' for Active; 'I' for Inactive)
REMARK    1  A    between atoms: C_1  and  O_2
REMARK    2  A    between atoms: O_2  and  C_3
REMARK    3  A    between atoms: C_5  and  C_6
REMARK    4  A    between atoms: C_16  and  C_17
REMARK    5  A    between atoms: C_20  and  C_21
REMARK    6  A    between atoms: C_21  and  C_22
REMARK    7  A    between atoms: C_21  and  C_23
REMARK    8  A    between atoms: C_21  and  C_24
REMARK    9  A    between atoms: N_26  and  C_27
REMARK                            x       y       z     vdW  Elec       q    Type
REMARK                         _______ _______ _______ _____ _____    ______ ____
ROOT
ATOM      1  C   UNL     1       2.874   5.882  19.891  0.00  0.00    +0.000 A 
ATOM      2  N   UNL     1       3.833   5.475  19.029  0.00  0.00    +0.000 NA
ATOM      3  C   UNL     1       4.065   6.159  17.875  0.00  0.00    +0.000 A 
ATOM      4  C   UNL     1       3.368   7.328  17.550  0.00  0.00    +0.000 A 
ATOM      5  C   UNL     1       2.425   7.781  18.467  0.00  0.00    +0.000 A 
ATOM      6  N   UNL     1       1.637   8.907  18.443  0.00  0.00    +0.000 NA
ATOM      7  C   UNL     1       0.943   8.875  19.561  0.00  0.00    +0.000 A 
ATOM      8  N   UNL     1       1.217   7.735  20.272  0.00  0.00    +0.000 N 
ATOM      9  C   UNL     1       2.192   7.046  19.610  0.00  0.00    +0.000 A 
ATOM     10  H   UNL     1       0.807   7.474  21.158  0.00  0.00    +0.000 HD
ENDROOT
BRANCH   3  11
ATOM     11  C   UNL     1       5.109   5.621  16.966  0.00  0.00    +0.000 A 
ATOM     12  C   UNL     1       4.853   4.423  16.253  0.00  0.00    +0.000 A 
ATOM     13  C   UNL     1       5.818   3.811  15.449  0.00  0.00    +0.000 A 
ATOM     14  C   UNL     1       7.066   4.395  15.302  0.00  0.00    +0.000 A 
ATOM     15  C   UNL     1       7.342   5.594  15.955  0.00  0.00    +0.000 A 
ATOM     16  C   UNL     1       6.383   6.201  16.783  0.00  0.00    +0.000 A 
ATOM     17 CL   UNL     1       6.914   7.641  17.589  0.00  0.00    +0.000 Cl
ENDBRANCH   3  11
BRANCH   7  18
ATOM     18  C   UNL     1       0.056   9.899  20.010  0.00  0.00    +0.000 A 
ATOM     19  C   UNL     1      -0.129  10.444  21.267  0.00  0.00    +0.000 A 
ATOM     20 CL   UNL     1       0.653   9.993  22.712  0.00  0.00    +0.000 Cl
ATOM     21  C   UNL     1      -1.089  11.485  21.105  0.00  0.00    +0.000 A 
ATOM     22  N   UNL     1      -1.495  11.551  19.829  0.00  0.00    +0.000 NA
ATOM     23  N   UNL     1      -0.802  10.589  19.192  0.00  0.00    +0.000 N 
ATOM     24  C   UNL     1      -1.004  10.419  17.770  0.00  0.00    +0.000 C 
BRANCH  21  25
ATOM     25  C   UNL     1      -1.648  12.468  22.130  0.00  0.00    +0.000 C 
ATOM     26  C   UNL     1      -2.789  13.306  21.515  0.00  0.00    +0.000 C 
ATOM     27  C   UNL     1      -2.234  11.728  23.358  0.00  0.00    +0.000 C 
ATOM     28  C   UNL     1      -0.546  13.413  22.648  0.00  0.00    +0.000 C 
ENDBRANCH  21  25
ENDBRANCH   7  18
BRANCH   1  30
ATOM     29  C   UNL     1       1.593   4.171  20.826  0.00  0.00    +0.000 C 
ATOM     30  O   UNL     1       2.574   5.180  21.039  0.00  0.00    +0.000 OA
ENDBRANCH   1  30
TORSDOF 4
ENDMDL
MODEL 7
REMARK VINA RESULT:      -7.7      3.611      4.372
REMARK  Name = 
REMARK  9 active torsions:
REMARK  status: ('A' for Active; 'I' for Inactive)
REMARK    1  A    between atoms: C_1  and  O_2
REMARK    2  A    between atoms: O_2  and  C_3
REMARK    3  A    between atoms: C_5  and  C_6
REMARK    4  A    between atoms: C_16  and  C_17
REMARK    5  A    between atoms: C_20  and  C_21
REMARK    6  A    between atoms: C_21  and  C_22
REMARK    7  A    between atoms: C_21  and  C_23
REMARK    8  A    between atoms: C_21  and  C_24
REMARK    9  A    between atoms: N_26  and  C_27
REMARK                            x       y       z     vdW  Elec       q    Type
REMARK                         _______ _______ _______ _____ _____    ______ ____
ROOT
ATOM      1  C   UNL     1       1.502   8.449  20.439  0.00  0.00    +0.000 A 
ATOM      2  N   UNL     1       1.968   7.320  19.858  0.00  0.00    +0.000 NA
ATOM      3  C   UNL     1       2.338   7.315  18.549  0.00  0.00    +0.000 A 
ATOM      4  C   UNL     1       2.302   8.471  17.760  0.00  0.00    +0.000 A 
ATOM      5  C   UNL     1       1.881   9.645  18.376  0.00  0.00    +0.000 A 
ATOM      6  N   UNL     1       1.793  10.923  17.877  0.00  0.00    +0.000 NA
ATOM      7  C   UNL     1       1.363  11.663  18.877  0.00  0.00    +0.000 A 
ATOM      8  N   UNL     1       1.117  10.891  19.983  0.00  0.00    +0.000 N 
ATOM      9  C   UNL     1       1.482   9.608  19.695  0.00  0.00    +0.000 A 
ATOM     10  H   UNL     1       0.774  11.222  20.874  0.00  0.00    +0.000 HD
ENDROOT
BRANCH   3  11
ATOM     11  C   UNL     1       2.802   6.024  17.980  0.00  0.00    +0.000 A 
ATOM     12  C   UNL     1       1.924   4.910  17.989  0.00  0.00    +0.000 A 
ATOM     13  C   UNL     1       2.319   3.643  17.552  0.00  0.00    +0.000 A 
ATOM     14  C   UNL     1       3.599   3.452  17.057  0.00  0.00    +0.000 A 
ATOM     15  C   UNL     1       4.478   4.530  16.996  0.00  0.00    +0.000 A 
ATOM     16  C   UNL     1       4.093   5.801  17.456  0.00  0.00    +0.000 A 
ATOM     17 CL   UNL     1       5.331   7.013  17.388  0.00  0.00    +0.000 Cl
ENDBRANCH   3  11
BRANCH   7  18
ATOM     18  C   UNL     1       1.211  13.082  18.847  0.00  0.00    +0.000 A 
ATOM     19  C   UNL     1       2.144  14.085  18.658  0.00  0.00    +0.000 A 
ATOM     20 CL   UNL     1       3.825  13.902  18.444  0.00  0.00    +0.000 Cl
ATOM     21  C   UNL     1       1.410  15.306  18.647  0.00  0.00    +0.000 A 
ATOM     22  N   UNL     1       0.107  15.069  18.853  0.00  0.00    +0.000 NA
ATOM     23  N   UNL     1       0.010  13.732  18.976  0.00  0.00    +0.000 N 
ATOM     24  C   UNL     1      -1.297  13.151  19.187  0.00  0.00    +0.000 C 
BRANCH  21  25
ATOM     25  C   UNL     1       1.893  16.736  18.426  0.00  0.00    +0.000 C 
ATOM     26  C   UNL     1       2.831  16.812  17.202  0.00  0.00    +0.000 C 
ATOM     27  C   UNL     1       0.708  17.695  18.153  0.00  0.00    +0.000 C 
ATOM     28  C   UNL     1       2.635  17.268  19.668  0.00  0.00    +0.000 C 
ENDBRANCH  21  25
ENDBRANCH   7  18
BRANCH   1  30
ATOM     29  C   UNL     1      -0.354   8.479  21.852  0.00  0.00    +0.000 C 
ATOM     30  O   UNL     1       1.064   8.474  21.746  0.00  0.00    +0.000 OA
ENDBRANCH   1  30
TORSDOF 4
ENDMDL
MODEL 8
REMARK VINA RESULT:      -7.7      1.778      1.952
REMARK  Name = 
REMARK  9 active torsions:
REMARK  status: ('A' for Active; 'I' for Inactive)
REMARK    1  A    between atoms: C_1  and  O_2
REMARK    2  A    between atoms: O_2  and  C_3
REMARK    3  A    between atoms: C_5  and  C_6
REMARK    4  A    between atoms: C_16  and  C_17
REMARK    5  A    between atoms: C_20  and  C_21
REMARK    6  A    between atoms: C_21  and  C_22
REMARK    7  A    between atoms: C_21  and  C_23
REMARK    8  A    between atoms: C_21  and  C_24
REMARK    9  A    between atoms: N_26  and  C_27
REMARK                            x       y       z     vdW  Elec       q    Type
REMARK                         _______ _______ _______ _____ _____    ______ ____
ROOT
ATOM      1  C   UNL     1       2.444   6.701  19.691  0.00  0.00    +0.000 A 
ATOM      2  N   UNL     1       3.409   6.085  18.971  0.00  0.00    +0.000 NA
ATOM      3  C   UNL     1       3.865   6.632  17.811  0.00  0.00    +0.000 A 
ATOM      4  C   UNL     1       3.402   7.864  17.336  0.00  0.00    +0.000 A 
ATOM      5  C   UNL     1       2.454   8.526  18.110  0.00  0.00    +0.000 A 
ATOM      6  N   UNL     1       1.864   9.753  17.925  0.00  0.00    +0.000 NA
ATOM      7  C   UNL     1       1.061   9.916  18.956  0.00  0.00    +0.000 A 
ATOM      8  N   UNL     1       1.074   8.808  19.764  0.00  0.00    +0.000 N 
ATOM      9  C   UNL     1       1.989   7.928  19.261  0.00  0.00    +0.000 A 
ATOM     10  H   UNL     1       0.539   8.684  20.611  0.00  0.00    +0.000 HD
ENDROOT
BRANCH   3  11
ATOM     11  C   UNL     1       4.898   5.870  17.063  0.00  0.00    +0.000 A 
ATOM     12  C   UNL     1       4.562   4.607  16.514  0.00  0.00    +0.000 A 
ATOM     13  C   UNL     1       5.503   3.796  15.874  0.00  0.00    +0.000 A 
ATOM     14  C   UNL     1       6.810   4.235  15.731  0.00  0.00    +0.000 A 
ATOM     15  C   UNL     1       7.168   5.487  16.222  0.00  0.00    +0.000 A 
ATOM     16  C   UNL     1       6.232   6.297  16.887  0.00  0.00    +0.000 A 
ATOM     17 CL   UNL     1       6.860   7.787  17.512  0.00  0.00    +0.000 Cl
ENDBRANCH   3  11
BRANCH   7  18
ATOM     18  C   UNL     1       0.308  11.096  19.236  0.00  0.00    +0.000 A 
ATOM     19  C   UNL     1       0.687  12.291  19.820  0.00  0.00    +0.000 A 
ATOM     20 CL   UNL     1       2.222  12.692  20.443  0.00  0.00    +0.000 Cl
ATOM     21  C   UNL     1      -0.461  13.133  19.769  0.00  0.00    +0.000 A 
ATOM     22  N   UNL     1      -1.494  12.481  19.218  0.00  0.00    +0.000 NA
ATOM     23  N   UNL     1      -1.014  11.262  18.911  0.00  0.00    +0.000 N 
ATOM     24  C   UNL     1      -1.898  10.313  18.270  0.00  0.00    +0.000 C 
BRANCH  21  25
ATOM     25  C   UNL     1      -0.631  14.583  20.215  0.00  0.00    +0.000 C 
ATOM     26  C   UNL     1      -2.110  14.885  20.535  0.00  0.00    +0.000 C 
ATOM     27  C   UNL     1       0.184  14.876  21.500  0.00  0.00    +0.000 C 
ATOM     28  C   UNL     1      -0.136  15.557  19.129  0.00  0.00    +0.000 C 
ENDBRANCH  21  25
ENDBRANCH   7  18
BRANCH   1  30
ATOM     29  C   UNL     1       1.851   4.726  20.783  0.00  0.00    +0.000 C 
ATOM     30  O   UNL     1       1.917   6.145  20.838  0.00  0.00    +0.000 OA
ENDBRANCH   1  30
TORSDOF 4
ENDMDL
MODEL 9
REMARK VINA RESULT:      -7.7      1.557      1.737
REMARK  Name = 
REMARK  9 active torsions:
REMARK  status: ('A' for Active; 'I' for Inactive)
REMARK    1  A    between atoms: C_1  and  O_2
REMARK    2  A    between atoms: O_2  and  C_3
REMARK    3  A    between atoms: C_5  and  C_6
REMARK    4  A    between atoms: C_16  and  C_17
REMARK    5  A    between atoms: C_20  and  C_21
REMARK    6  A    between atoms: C_21  and  C_22
REMARK    7  A    between atoms: C_21  and  C_23
REMARK    8  A    between atoms: C_21  and  C_24
REMARK    9  A    between atoms: N_26  and  C_27
REMARK                            x       y       z     vdW  Elec       q    Type
REMARK                         _______ _______ _______ _____ _____    ______ ____
ROOT
ATOM      1  C   UNL     1       2.499   6.591  19.641  0.00  0.00    +0.000 A 
ATOM      2  N   UNL     1       3.515   6.027  18.950  0.00  0.00    +0.000 NA
ATOM      3  C   UNL     1       4.018   6.631  17.839  0.00  0.00    +0.000 A 
ATOM      4  C   UNL     1       3.550   7.870  17.388  0.00  0.00    +0.000 A 
ATOM      5  C   UNL     1       2.546   8.478  18.135  0.00  0.00    +0.000 A 
ATOM      6  N   UNL     1       1.935   9.698  17.968  0.00  0.00    +0.000 NA
ATOM      7  C   UNL     1       1.076   9.801  18.960  0.00  0.00    +0.000 A 
ATOM      8  N   UNL     1       1.075   8.662  19.723  0.00  0.00    +0.000 N 
ATOM      9  C   UNL     1       2.037   7.824  19.236  0.00  0.00    +0.000 A 
ATOM     10  H   UNL     1       0.499   8.491  20.536  0.00  0.00    +0.000 HD
ENDROOT
BRANCH   3  11
ATOM     11  C   UNL     1       5.107   5.923  17.118  0.00  0.00    +0.000 A 
ATOM     12  C   UNL     1       4.999   5.733  15.717  0.00  0.00    +0.000 A 
ATOM     13  C   UNL     1       5.940   5.003  14.986  0.00  0.00    +0.000 A 
ATOM     14  C   UNL     1       7.045   4.465  15.627  0.00  0.00    +0.000 A 
ATOM     15  C   UNL     1       7.207   4.664  16.996  0.00  0.00    +0.000 A 
ATOM     16  C   UNL     1       6.251   5.378  17.739  0.00  0.00    +0.000 A 
ATOM     17 CL   UNL     1       6.559   5.463  19.443  0.00  0.00    +0.000 Cl
ENDBRANCH   3  11
BRANCH   7  18
ATOM     18  C   UNL     1       0.280  10.951  19.245  0.00  0.00    +0.000 A 
ATOM     19  C   UNL     1       0.603  12.137  19.877  0.00  0.00    +0.000 A 
ATOM     20 CL   UNL     1       2.102  12.562  20.568  0.00  0.00    +0.000 Cl
ATOM     21  C   UNL     1      -0.565  12.949  19.808  0.00  0.00    +0.000 A 
ATOM     22  N   UNL     1      -1.559  12.286  19.200  0.00  0.00    +0.000 NA
ATOM     23  N   UNL     1      -1.033  11.090  18.876  0.00  0.00    +0.000 N 
ATOM     24  C   UNL     1      -1.866  10.137  18.175  0.00  0.00    +0.000 C 
BRANCH  21  25
ATOM     25  C   UNL     1      -0.793  14.380  20.289  0.00  0.00    +0.000 C 
ATOM     26  C   UNL     1       0.025  14.663  21.566  0.00  0.00    +0.000 C 
ATOM     27  C   UNL     1      -0.345  15.410  19.221  0.00  0.00    +0.000 C 
ATOM     28  C   UNL     1      -2.286  14.637  20.573  0.00  0.00    +0.000 C 
ENDBRANCH  21  25
ENDBRANCH   7  18
BRANCH   1  30
ATOM     29  C   UNL     1       1.411   4.687  20.438  0.00  0.00    +0.000 C 
ATOM     30  O   UNL     1       1.927   5.978  20.736  0.00  0.00    +0.000 OA
ENDBRANCH   1  30
TORSDOF 4
ENDMDL
