MODEL 1
REMARK VINA RESULT:      -8.0      0.000      0.000
REMARK  Name = 
REMARK  4 active torsions:
REMARK  status: ('A' for Active; 'I' for Inactive)
REMARK    1  A    between atoms: C_1  and  C_2
REMARK    2  A    between atoms: C_2  and  C_3
REMARK    3  A    between atoms: C_3  and  C_4
REMARK    4  A    between atoms: N_6  and  C_7
REMARK                            x       y       z     vdW  Elec       q    Type
REMARK                         _______ _______ _______ _____ _____    ______ ____
ROOT
ATOM      1  C   UNL     1       1.424   8.166  20.118  0.00  0.00    +0.000 A 
ATOM      2  C   UNL     1       1.947   8.788  18.990  0.00  0.00    +0.000 A 
ATOM      3  C   UNL     1       2.823   8.112  18.136  0.00  0.00    +0.000 A 
ATOM      4  C   UNL     1       3.216   6.784  18.371  0.00  0.00    +0.000 A 
ATOM      5  C   UNL     1       2.721   6.191  19.547  0.00  0.00    +0.000 A 
ATOM      6  C   UNL     1       1.853   6.877  20.421  0.00  0.00    +0.000 A 
ATOM      7  C   UNL     1       3.085   4.799  19.876  0.00  0.00    +0.000 C 
ATOM      8  O   UNL     1       2.694   4.275  20.911  0.00  0.00    +0.000 OA
ATOM      9  C   UNL     1       3.947   4.019  18.901  0.00  0.00    +0.000 C 
ATOM     10  O   UNL     1       4.224   2.848  19.129  0.00  0.00    +0.000 OA
ATOM     11  C   UNL     1       4.435   4.697  17.685  0.00  0.00    +0.000 A 
ATOM     12  C   UNL     1       5.240   3.968  16.793  0.00  0.00    +0.000 A 
ATOM     13  C   UNL     1       5.720   4.562  15.631  0.00  0.00    +0.000 A 
ATOM     14  C   UNL     1       5.396   5.883  15.359  0.00  0.00    +0.000 A 
ATOM     15  C   UNL     1       4.592   6.608  16.247  0.00  0.00    +0.000 A 
ATOM     16  C   UNL     1       4.087   6.036  17.435  0.00  0.00    +0.000 A 
ENDROOT
BRANCH   1  19
ATOM     17  C   UNL     1       0.743   9.319  22.209  0.00  0.00    +0.000 C 
ATOM     18  O   UNL     1       1.848   9.408  22.736  0.00  0.00    +0.000 OA
ATOM     19  N   UNL     1       0.476   8.787  20.957  0.00  0.00    +0.000 N 
ATOM     20  H   UNL     1      -0.433   8.986  20.555  0.00  0.00    +0.000 HD
BRANCH  17  21
ATOM     21  C   UNL     1      -0.483   9.845  22.926  0.00  0.00    +0.000 C 
BRANCH  21  23
ATOM     22  C   UNL     1      -2.114  11.772  23.195  0.00  0.00    +0.000 C 
ATOM     23  C   UNL     1      -0.938  11.207  22.411  0.00  0.00    +0.000 C 
ENDBRANCH  21  23
ENDBRANCH  17  21
ENDBRANCH   1  19
TORSDOF 3
ENDMDL
MODEL 2
REMARK VINA RESULT:      -7.8      3.638      8.436
REMARK  Name = 
REMARK  4 active torsions:
REMARK  status: ('A' for Active; 'I' for Inactive)
REMARK    1  A    between atoms: C_1  and  C_2
REMARK    2  A    between atoms: C_2  and  C_3
REMARK    3  A    between atoms: C_3  and  C_4
REMARK    4  A    between atoms: N_6  and  C_7
REMARK                            x       y       z     vdW  Elec       q    Type
REMARK                         _______ _______ _______ _____ _____    ______ ____
ROOT
ATOM      1  C   UNL     1       5.546   4.260  15.123  0.00  0.00    +0.000 A 
ATOM      2  C   UNL     1       5.321   5.620  15.306  0.00  0.00    +0.000 A 
ATOM      3  C   UNL     1       4.529   6.084  16.359  0.00  0.00    +0.000 A 
ATOM      4  C   UNL     1       3.925   5.210  17.278  0.00  0.00    +0.000 A 
ATOM      5  C   UNL     1       4.117   3.836  17.044  0.00  0.00    +0.000 A 
ATOM      6  C   UNL     1       4.900   3.363  15.970  0.00  0.00    +0.000 A 
ATOM      7  C   UNL     1       3.517   2.845  17.958  0.00  0.00    +0.000 C 
ATOM      8  O   UNL     1       3.643   1.644  17.753  0.00  0.00    +0.000 OA
ATOM      9  C   UNL     1       2.746   3.339  19.168  0.00  0.00    +0.000 C 
ATOM     10  O   UNL     1       2.277   2.536  19.965  0.00  0.00    +0.000 OA
ATOM     11  C   UNL     1       2.579   4.792  19.357  0.00  0.00    +0.000 A 
ATOM     12  C   UNL     1       1.855   5.239  20.477  0.00  0.00    +0.000 A 
ATOM     13  C   UNL     1       1.675   6.599  20.702  0.00  0.00    +0.000 A 
ATOM     14  C   UNL     1       2.217   7.513  19.811  0.00  0.00    +0.000 A 
ATOM     15  C   UNL     1       2.940   7.068  18.698  0.00  0.00    +0.000 A 
ATOM     16  C   UNL     1       3.143   5.694  18.439  0.00  0.00    +0.000 A 
ENDROOT
BRANCH   1  19
ATOM     17  C   UNL     1       6.024   3.451  12.825  0.00  0.00    +0.000 C 
ATOM     18  O   UNL     1       4.918   3.647  12.329  0.00  0.00    +0.000 OA
ATOM     19  N   UNL     1       6.404   3.758  14.122  0.00  0.00    +0.000 N 
ATOM     20  H   UNL     1       7.396   3.761  14.325  0.00  0.00    +0.000 HD
BRANCH  17  21
ATOM     21  C   UNL     1       7.133   2.846  11.988  0.00  0.00    +0.000 C 
BRANCH  21  23
ATOM     22  C   UNL     1       6.333   0.526  11.342  0.00  0.00    +0.000 C 
ATOM     23  C   UNL     1       6.616   1.946  10.872  0.00  0.00    +0.000 C 
ENDBRANCH  21  23
ENDBRANCH  17  21
ENDBRANCH   1  19
TORSDOF 3
ENDMDL
MODEL 3
REMARK VINA RESULT:      -7.8      2.344      7.795
REMARK  Name = 
REMARK  4 active torsions:
REMARK  status: ('A' for Active; 'I' for Inactive)
REMARK    1  A    between atoms: C_1  and  C_2
REMARK    2  A    between atoms: C_2  and  C_3
REMARK    3  A    between atoms: C_3  and  C_4
REMARK    4  A    between atoms: N_6  and  C_7
REMARK                            x       y       z     vdW  Elec       q    Type
REMARK                         _______ _______ _______ _____ _____    ______ ____
ROOT
ATOM      1  C   UNL     1       2.522   6.315  19.143  0.00  0.00    +0.000 A 
ATOM      2  C   UNL     1       2.045   6.123  20.435  0.00  0.00    +0.000 A 
ATOM      3  C   UNL     1       1.382   7.147  21.117  0.00  0.00    +0.000 A 
ATOM      4  C   UNL     1       1.168   8.410  20.540  0.00  0.00    +0.000 A 
ATOM      5  C   UNL     1       1.708   8.602  19.255  0.00  0.00    +0.000 A 
ATOM      6  C   UNL     1       2.393   7.577  18.571  0.00  0.00    +0.000 A 
ATOM      7  C   UNL     1       1.532   9.899  18.572  0.00  0.00    +0.000 C 
ATOM      8  O   UNL     1       2.023  10.100  17.468  0.00  0.00    +0.000 OA
ATOM      9  C   UNL     1       0.722  10.983  19.258  0.00  0.00    +0.000 C 
ATOM     10  O   UNL     1       0.524  12.051  18.692  0.00  0.00    +0.000 OA
ATOM     11  C   UNL     1       0.182  10.720  20.606  0.00  0.00    +0.000 A 
ATOM     12  C   UNL     1      -0.561  11.733  21.235  0.00  0.00    +0.000 A 
ATOM     13  C   UNL     1      -1.093  11.531  22.504  0.00  0.00    +0.000 A 
ATOM     14  C   UNL     1      -0.886  10.318  23.143  0.00  0.00    +0.000 A 
ATOM     15  C   UNL     1      -0.149   9.308  22.514  0.00  0.00    +0.000 A 
ATOM     16  C   UNL     1       0.405   9.478  21.226  0.00  0.00    +0.000 A 
ENDROOT
BRANCH   1  19
ATOM     17  C   UNL     1       2.437   4.336  17.646  0.00  0.00    +0.000 C 
ATOM     18  O   UNL     1       1.225   4.304  17.455  0.00  0.00    +0.000 OA
ATOM     19  N   UNL     1       3.122   5.282  18.394  0.00  0.00    +0.000 N 
ATOM     20  H   UNL     1       4.127   5.323  18.277  0.00  0.00    +0.000 HD
BRANCH  17  21
ATOM     21  C   UNL     1       3.331   3.289  17.014  0.00  0.00    +0.000 C 
BRANCH  21  23
ATOM     22  C   UNL     1       5.188   4.327  15.628  0.00  0.00    +0.000 C 
ATOM     23  C   UNL     1       4.797   3.708  16.962  0.00  0.00    +0.000 C 
ENDBRANCH  21  23
ENDBRANCH  17  21
ENDBRANCH   1  19
TORSDOF 3
ENDMDL
MODEL 4
REMARK VINA RESULT:      -7.8      2.257      7.860
REMARK  Name = 
REMARK  4 active torsions:
REMARK  status: ('A' for Active; 'I' for Inactive)
REMARK    1  A    between atoms: C_1  and  C_2
REMARK    2  A    between atoms: C_2  and  C_3
REMARK    3  A    between atoms: C_3  and  C_4
REMARK    4  A    between atoms: N_6  and  C_7
REMARK                            x       y       z     vdW  Elec       q    Type
REMARK                         _______ _______ _______ _____ _____    ______ ____
ROOT
ATOM      1  C   UNL     1       2.686   6.250  18.703  0.00  0.00    +0.000 A 
ATOM      2  C   UNL     1       2.287   5.955  20.002  0.00  0.00    +0.000 A 
ATOM      3  C   UNL     1       1.649   6.912  20.795  0.00  0.00    +0.000 A 
ATOM      4  C   UNL     1       1.380   8.209  20.326  0.00  0.00    +0.000 A 
ATOM      5  C   UNL     1       1.842   8.506  19.029  0.00  0.00    +0.000 A 
ATOM      6  C   UNL     1       2.503   7.548  18.234  0.00  0.00    +0.000 A 
ATOM      7  C   UNL     1       1.606   9.845  18.455  0.00  0.00    +0.000 C 
ATOM      8  O   UNL     1       2.028  10.136  17.343  0.00  0.00    +0.000 OA
ATOM      9  C   UNL     1       0.818  10.859  19.264  0.00  0.00    +0.000 C 
ATOM     10  O   UNL     1       0.570  11.961  18.791  0.00  0.00    +0.000 OA
ATOM     11  C   UNL     1       0.362  10.487  20.617  0.00  0.00    +0.000 A 
ATOM     12  C   UNL     1      -0.360  11.436  21.361  0.00  0.00    +0.000 A 
ATOM     13  C   UNL     1      -0.815  11.131  22.639  0.00  0.00    +0.000 A 
ATOM     14  C   UNL     1      -0.551   9.879  23.174  0.00  0.00    +0.000 A 
ATOM     15  C   UNL     1       0.165   8.933  22.431  0.00  0.00    +0.000 A 
ATOM     16  C   UNL     1       0.641   9.209  21.131  0.00  0.00    +0.000 A 
ENDROOT
BRANCH   1  19
ATOM     17  C   UNL     1       4.618   5.090  17.660  0.00  0.00    +0.000 C 
ATOM     18  O   UNL     1       5.521   5.658  18.268  0.00  0.00    +0.000 OA
ATOM     19  N   UNL     1       3.258   5.287  17.847  0.00  0.00    +0.000 N 
ATOM     20  H   UNL     1       2.633   4.594  17.451  0.00  0.00    +0.000 HD
BRANCH  17  21
ATOM     21  C   UNL     1       4.949   4.046  16.614  0.00  0.00    +0.000 C 
BRANCH  21  23
ATOM     22  C   UNL     1       6.880   4.494  15.028  0.00  0.00    +0.000 C 
ATOM     23  C   UNL     1       5.387   4.650  15.284  0.00  0.00    +0.000 C 
ENDBRANCH  21  23
ENDBRANCH  17  21
ENDBRANCH   1  19
TORSDOF 3
ENDMDL
MODEL 5
REMARK VINA RESULT:      -7.7      2.535      7.743
REMARK  Name = 
REMARK  4 active torsions:
REMARK  status: ('A' for Active; 'I' for Inactive)
REMARK    1  A    between atoms: C_1  and  C_2
REMARK    2  A    between atoms: C_2  and  C_3
REMARK    3  A    between atoms: C_3  and  C_4
REMARK    4  A    between atoms: N_6  and  C_7
REMARK                            x       y       z     vdW  Elec       q    Type
REMARK                         _______ _______ _______ _____ _____    ______ ____
ROOT
ATOM      1  C   UNL     1       2.502   6.276  19.179  0.00  0.00    +0.000 A 
ATOM      2  C   UNL     1       2.015   6.105  20.471  0.00  0.00    +0.000 A 
ATOM      3  C   UNL     1       1.361   7.144  21.138  0.00  0.00    +0.000 A 
ATOM      4  C   UNL     1       1.164   8.403  20.545  0.00  0.00    +0.000 A 
ATOM      5  C   UNL     1       1.713   8.574  19.261  0.00  0.00    +0.000 A 
ATOM      6  C   UNL     1       2.390   7.534  18.592  0.00  0.00    +0.000 A 
ATOM      7  C   UNL     1       1.557   9.865  18.563  0.00  0.00    +0.000 C 
ATOM      8  O   UNL     1       2.055  10.048  17.459  0.00  0.00    +0.000 OA
ATOM      9  C   UNL     1       0.754  10.966  19.232  0.00  0.00    +0.000 C 
ATOM     10  O   UNL     1       0.572  12.030  18.653  0.00  0.00    +0.000 OA
ATOM     11  C   UNL     1       0.205  10.724  20.580  0.00  0.00    +0.000 A 
ATOM     12  C   UNL     1      -0.530  11.753  21.194  0.00  0.00    +0.000 A 
ATOM     13  C   UNL     1      -1.071  11.571  22.462  0.00  0.00    +0.000 A 
ATOM     14  C   UNL     1      -0.882  10.363  23.115  0.00  0.00    +0.000 A 
ATOM     15  C   UNL     1      -0.152   9.338  22.502  0.00  0.00    +0.000 A 
ATOM     16  C   UNL     1       0.411   9.487  21.216  0.00  0.00    +0.000 A 
ENDROOT
BRANCH   1  19
ATOM     17  C   UNL     1       2.402   4.272  17.717  0.00  0.00    +0.000 C 
ATOM     18  O   UNL     1       1.188   4.243  17.533  0.00  0.00    +0.000 OA
ATOM     19  N   UNL     1       3.094   5.228  18.445  0.00  0.00    +0.000 N 
ATOM     20  H   UNL     1       4.099   5.263  18.322  0.00  0.00    +0.000 HD
BRANCH  17  21
ATOM     21  C   UNL     1       3.288   3.212  17.098  0.00  0.00    +0.000 C 
BRANCH  21  23
ATOM     22  C   UNL     1       3.891   2.058  19.277  0.00  0.00    +0.000 C 
ATOM     23  C   UNL     1       3.295   1.905  17.885  0.00  0.00    +0.000 C 
ENDBRANCH  21  23
ENDBRANCH  17  21
ENDBRANCH   1  19
TORSDOF 3
ENDMDL
MODEL 6
REMARK VINA RESULT:      -7.7      0.996      1.235
REMARK  Name = 
REMARK  4 active torsions:
REMARK  status: ('A' for Active; 'I' for Inactive)
REMARK    1  A    between atoms: C_1  and  C_2
REMARK    2  A    between atoms: C_2  and  C_3
REMARK    3  A    between atoms: C_3  and  C_4
REMARK    4  A    between atoms: N_6  and  C_7
REMARK                            x       y       z     vdW  Elec       q    Type
REMARK                         _______ _______ _______ _____ _____    ______ ____
ROOT
ATOM      1  C   UNL     1       1.217   8.986  19.403  0.00  0.00    +0.000 A 
ATOM      2  C   UNL     1       1.900   9.365  18.253  0.00  0.00    +0.000 A 
ATOM      3  C   UNL     1       2.827   8.511  17.650  0.00  0.00    +0.000 A 
ATOM      4  C   UNL     1       3.115   7.238  18.170  0.00  0.00    +0.000 A 
ATOM      5  C   UNL     1       2.456   6.894  19.365  0.00  0.00    +0.000 A 
ATOM      6  C   UNL     1       1.534   7.762  19.986  0.00  0.00    +0.000 A 
ATOM      7  C   UNL     1       2.699   5.577  19.984  0.00  0.00    +0.000 C 
ATOM      8  O   UNL     1       2.164   5.271  21.042  0.00  0.00    +0.000 OA
ATOM      9  C   UNL     1       3.621   4.598  19.281  0.00  0.00    +0.000 C 
ATOM     10  O   UNL     1       3.803   3.482  19.751  0.00  0.00    +0.000 OA
ATOM     11  C   UNL     1       4.282   5.018  18.031  0.00  0.00    +0.000 A 
ATOM     12  C   UNL     1       5.140   4.106  17.392  0.00  0.00    +0.000 A 
ATOM     13  C   UNL     1       5.783   4.455  16.209  0.00  0.00    +0.000 A 
ATOM     14  C   UNL     1       5.568   5.711  15.663  0.00  0.00    +0.000 A 
ATOM     15  C   UNL     1       4.711   6.617  16.298  0.00  0.00    +0.000 A 
ATOM     16  C   UNL     1       4.042   6.297  17.500  0.00  0.00    +0.000 A 
ENDROOT
BRANCH   1  19
ATOM     17  C   UNL     1       0.447  10.858  20.841  0.00  0.00    +0.000 C 
ATOM     18  O   UNL     1       1.544  11.322  21.138  0.00  0.00    +0.000 OA
ATOM     19  N   UNL     1       0.217   9.786  19.992  0.00  0.00    +0.000 N 
ATOM     20  H   UNL     1      -0.730   9.658  19.656  0.00  0.00    +0.000 HD
BRANCH  17  21
ATOM     21  C   UNL     1      -0.816  11.482  21.397  0.00  0.00    +0.000 C 
BRANCH  21  23
ATOM     22  C   UNL     1      -0.581   9.779  23.264  0.00  0.00    +0.000 C 
ATOM     23  C   UNL     1      -1.030  11.181  22.877  0.00  0.00    +0.000 C 
ENDBRANCH  21  23
ENDBRANCH  17  21
ENDBRANCH   1  19
TORSDOF 3
ENDMDL
MODEL 7
REMARK VINA RESULT:      -7.5      2.308      7.725
REMARK  Name = 
REMARK  4 active torsions:
REMARK  status: ('A' for Active; 'I' for Inactive)
REMARK    1  A    between atoms: C_1  and  C_2
REMARK    2  A    between atoms: C_2  and  C_3
REMARK    3  A    between atoms: C_3  and  C_4
REMARK    4  A    between atoms: N_6  and  C_7
REMARK                            x       y       z     vdW  Elec       q    Type
REMARK                         _______ _______ _______ _____ _____    ______ ____
ROOT
ATOM      1  C   UNL     1       2.434   6.268  19.244  0.00  0.00    +0.000 A 
ATOM      2  C   UNL     1       1.939   6.110  20.534  0.00  0.00    +0.000 A 
ATOM      3  C   UNL     1       1.297   7.162  21.194  0.00  0.00    +0.000 A 
ATOM      4  C   UNL     1       1.121   8.420  20.595  0.00  0.00    +0.000 A 
ATOM      5  C   UNL     1       1.678   8.578  19.312  0.00  0.00    +0.000 A 
ATOM      6  C   UNL     1       2.343   7.524  18.651  0.00  0.00    +0.000 A 
ATOM      7  C   UNL     1       1.543   9.867  18.607  0.00  0.00    +0.000 C 
ATOM      8  O   UNL     1       2.049  10.038  17.505  0.00  0.00    +0.000 OA
ATOM      9  C   UNL     1       0.754  10.983  19.268  0.00  0.00    +0.000 C 
ATOM     10  O   UNL     1       0.590  12.046  18.683  0.00  0.00    +0.000 OA
ATOM     11  C   UNL     1       0.196  10.755  20.614  0.00  0.00    +0.000 A 
ATOM     12  C   UNL     1      -0.527  11.798  21.220  0.00  0.00    +0.000 A 
ATOM     13  C   UNL     1      -1.076  11.630  22.486  0.00  0.00    +0.000 A 
ATOM     14  C   UNL     1      -0.907  10.422  23.146  0.00  0.00    +0.000 A 
ATOM     15  C   UNL     1      -0.190   9.383  22.541  0.00  0.00    +0.000 A 
ATOM     16  C   UNL     1       0.380   9.519  21.256  0.00  0.00    +0.000 A 
ENDROOT
BRANCH   1  19
ATOM     17  C   UNL     1       4.348   4.839  18.570  0.00  0.00    +0.000 C 
ATOM     18  O   UNL     1       5.202   5.316  19.312  0.00  0.00    +0.000 OA
ATOM     19  N   UNL     1       3.013   5.208  18.517  0.00  0.00    +0.000 N 
ATOM     20  H   UNL     1       2.380   4.582  18.034  0.00  0.00    +0.000 HD
BRANCH  17  21
ATOM     21  C   UNL     1       4.713   3.720  17.617  0.00  0.00    +0.000 C 
BRANCH  21  23
ATOM     22  C   UNL     1       3.491   1.630  18.381  0.00  0.00    +0.000 C 
ATOM     23  C   UNL     1       3.560   2.755  17.358  0.00  0.00    +0.000 C 
ENDBRANCH  21  23
ENDBRANCH  17  21
ENDBRANCH   1  19
TORSDOF 3
ENDMDL
MODEL 8
REMARK VINA RESULT:      -7.5      1.380      1.482
REMARK  Name = 
REMARK  4 active torsions:
REMARK  status: ('A' for Active; 'I' for Inactive)
REMARK    1  A    between atoms: C_1  and  C_2
REMARK    2  A    between atoms: C_2  and  C_3
REMARK    3  A    between atoms: C_3  and  C_4
REMARK    4  A    between atoms: N_6  and  C_7
REMARK                            x       y       z     vdW  Elec       q    Type
REMARK                         _______ _______ _______ _____ _____    ______ ____
ROOT
ATOM      1  C   UNL     1       1.830   8.510  19.381  0.00  0.00    +0.000 A 
ATOM      2  C   UNL     1       2.445   8.943  18.211  0.00  0.00    +0.000 A 
ATOM      3  C   UNL     1       3.275   8.093  17.476  0.00  0.00    +0.000 A 
ATOM      4  C   UNL     1       3.529   6.771  17.876  0.00  0.00    +0.000 A 
ATOM      5  C   UNL     1       2.944   6.369  19.091  0.00  0.00    +0.000 A 
ATOM      6  C   UNL     1       2.121   7.230  19.845  0.00  0.00    +0.000 A 
ATOM      7  C   UNL     1       3.159   4.996  19.590  0.00  0.00    +0.000 C 
ATOM      8  O   UNL     1       2.688   4.636  20.661  0.00  0.00    +0.000 OA
ATOM      9  C   UNL     1       3.969   4.030  18.746  0.00  0.00    +0.000 C 
ATOM     10  O   UNL     1       4.122   2.873  19.117  0.00  0.00    +0.000 OA
ATOM     11  C   UNL     1       4.557   4.513  17.482  0.00  0.00    +0.000 A 
ATOM     12  C   UNL     1       5.312   3.611  16.711  0.00  0.00    +0.000 A 
ATOM     13  C   UNL     1       5.882   4.018  15.510  0.00  0.00    +0.000 A 
ATOM     14  C   UNL     1       5.698   5.322  15.077  0.00  0.00    +0.000 A 
ATOM     15  C   UNL     1       4.943   6.218  15.843  0.00  0.00    +0.000 A 
ATOM     16  C   UNL     1       4.349   5.840  17.067  0.00  0.00    +0.000 A 
ENDROOT
BRANCH   1  19
ATOM     17  C   UNL     1      -0.103  10.059  19.548  0.00  0.00    +0.000 C 
ATOM     18  O   UNL     1      -0.429  10.071  18.365  0.00  0.00    +0.000 OA
ATOM     19  N   UNL     1       0.923   9.311  20.105  0.00  0.00    +0.000 N 
ATOM     20  H   UNL     1       0.932   9.218  21.114  0.00  0.00    +0.000 HD
BRANCH  17  21
ATOM     21  C   UNL     1      -0.868  10.894  20.554  0.00  0.00    +0.000 C 
BRANCH  21  23
ATOM     22  C   UNL     1      -1.366  11.325  23.005  0.00  0.00    +0.000 C 
ATOM     23  C   UNL     1      -0.522  10.554  22.000  0.00  0.00    +0.000 C 
ENDBRANCH  21  23
ENDBRANCH  17  21
ENDBRANCH   1  19
TORSDOF 3
ENDMDL
MODEL 9
REMARK VINA RESULT:      -7.3      1.068      1.165
REMARK  Name = 
REMARK  4 active torsions:
REMARK  status: ('A' for Active; 'I' for Inactive)
REMARK    1  A    between atoms: C_1  and  C_2
REMARK    2  A    between atoms: C_2  and  C_3
REMARK    3  A    between atoms: C_3  and  C_4
REMARK    4  A    between atoms: N_6  and  C_7
REMARK                            x       y       z     vdW  Elec       q    Type
REMARK                         _______ _______ _______ _____ _____    ______ ____
ROOT
ATOM      1  C   UNL     1       1.159   8.793  19.712  0.00  0.00    +0.000 A 
ATOM      2  C   UNL     1       1.774   9.244  18.550  0.00  0.00    +0.000 A 
ATOM      3  C   UNL     1       2.697   8.448  17.867  0.00  0.00    +0.000 A 
ATOM      4  C   UNL     1       3.049   7.164  18.316  0.00  0.00    +0.000 A 
ATOM      5  C   UNL     1       2.460   6.748  19.524  0.00  0.00    +0.000 A 
ATOM      6  C   UNL     1       1.541   7.557  20.226  0.00  0.00    +0.000 A 
ATOM      7  C   UNL     1       2.773   5.414  20.073  0.00  0.00    +0.000 C 
ATOM      8  O   UNL     1       2.299   5.045  21.140  0.00  0.00    +0.000 OA
ATOM      9  C   UNL     1       3.691   4.497  19.285  0.00  0.00    +0.000 C 
ATOM     10  O   UNL     1       3.930   3.369  19.696  0.00  0.00    +0.000 OA
ATOM     11  C   UNL     1       4.278   4.993  18.025  0.00  0.00    +0.000 A 
ATOM     12  C   UNL     1       5.133   4.138  17.308  0.00  0.00    +0.000 A 
ATOM     13  C   UNL     1       5.707   4.558  16.113  0.00  0.00    +0.000 A 
ATOM     14  C   UNL     1       5.427   5.829  15.633  0.00  0.00    +0.000 A 
ATOM     15  C   UNL     1       4.573   6.678  16.347  0.00  0.00    +0.000 A 
ATOM     16  C   UNL     1       3.972   6.285  17.563  0.00  0.00    +0.000 A 
ENDROOT
BRANCH   1  19
ATOM     17  C   UNL     1       0.399  10.584  21.255  0.00  0.00    +0.000 C 
ATOM     18  O   UNL     1       1.493  11.081  21.509  0.00  0.00    +0.000 OA
ATOM     19  N   UNL     1       0.163   9.534  20.382  0.00  0.00    +0.000 N 
ATOM     20  H   UNL     1      -0.796   9.381  20.092  0.00  0.00    +0.000 HD
BRANCH  17  21
ATOM     21  C   UNL     1      -0.854  11.140  21.899  0.00  0.00    +0.000 C 
BRANCH  21  23
ATOM     22  C   UNL     1      -2.134  12.321  20.052  0.00  0.00    +0.000 C 
ATOM     23  C   UNL     1      -1.286  12.478  21.307  0.00  0.00    +0.000 C 
ENDBRANCH  21  23
ENDBRANCH  17  21
ENDBRANCH   1  19
TORSDOF 3
ENDMDL
