MODEL 1
REMARK VINA RESULT:      -7.8      0.000      0.000
REMARK  Name = 
REMARK  17 active torsions:
REMARK  status: ('A' for Active; 'I' for Inactive)
REMARK    1  A    between atoms: C_1  and  C_2
REMARK    2  A    between atoms: C_2  and  O_3
REMARK    3  A    between atoms: O_3  and  C_4
REMARK    4  A    between atoms: C_7  and  C_8
REMARK    5  A    between atoms: C_8  and  C_9
REMARK    6  A    between atoms: C_8  and  N_16
REMARK    7  A    between atoms: N_11  and  C_12
REMARK    8  A    between atoms: C_12  and  C_13
REMARK    9  A    between atoms: C_12  and  C_14
REMARK   10  A    between atoms: C_12  and  C_15
REMARK   11  A    between atoms: N_16  and  C_17
REMARK   12  A    between atoms: C_17  and  C_18
REMARK   13  A    between atoms: C_18  and  O_19
REMARK   14  A    between atoms: O_19  and  C_20
REMARK   15  A    between atoms: C_21  and  C_23
REMARK   16  A    between atoms: C_23  and  C_24
REMARK   17  A    between atoms: C_24  and  C_25
REMARK                            x       y       z     vdW  Elec       q    Type
REMARK                         _______ _______ _______ _____ _____    ______ ____
ROOT
ATOM      1  C   UNL     1       3.612   6.198  19.034  0.00  0.00    +0.000 C 
ENDROOT
BRANCH   1   5
ATOM      2  C   UNL     1       0.714   9.438  18.747  0.00  0.00    +0.000 A 
ATOM      3  C   UNL     1       0.963   8.815  19.963  0.00  0.00    +0.000 A 
ATOM      4  C   UNL     1       1.997   7.874  20.079  0.00  0.00    +0.000 A 
ATOM      5  C   UNL     1       2.753   7.472  18.956  0.00  0.00    +0.000 A 
ATOM      6  C   UNL     1       2.604   8.226  17.793  0.00  0.00    +0.000 A 
ATOM      7  C   UNL     1       1.605   9.205  17.701  0.00  0.00    +0.000 A 
BRANCH   2   8
ATOM      8  O   UNL     1      -0.410  10.225  18.689  0.00  0.00    +0.000 OA
BRANCH   8  10
ATOM      9  C   UNL     1      -0.141  12.404  19.752  0.00  0.00    +0.000 C 
ATOM     10  C   UNL     1      -0.687  10.985  19.867  0.00  0.00    +0.000 C 
ENDBRANCH   8  10
ENDBRANCH   2   8
ENDBRANCH   1   5
BRANCH   1  11
ATOM     11  C   UNL     1       2.743   4.899  18.756  0.00  0.00    +0.000 C 
ATOM     12  O   UNL     1       2.103   4.714  17.721  0.00  0.00    +0.000 OA
ATOM     13  N   UNL     1       2.605   4.038  19.834  0.00  0.00    +0.000 N 
ATOM     14  H   UNL     1       3.257   4.173  20.599  0.00  0.00    +0.000 HD
BRANCH  13  15
ATOM     15  C   UNL     1       1.820   2.788  19.785  0.00  0.00    +0.000 C 
ATOM     16  C   UNL     1       2.565   1.703  18.990  0.00  0.00    +0.000 C 
ATOM     17  C   UNL     1       1.618   2.290  21.224  0.00  0.00    +0.000 C 
ATOM     18  C   UNL     1       0.422   3.007  19.172  0.00  0.00    +0.000 C 
ENDBRANCH  13  15
ENDBRANCH   1  11
BRANCH   1  19
ATOM     19  N   UNL     1       4.861   6.191  18.199  0.00  0.00    +0.000 N 
ATOM     20  C   UNL     1       6.030   5.675  18.766  0.00  0.00    +0.000 C 
ATOM     21  O   UNL     1       6.053   5.130  19.873  0.00  0.00    +0.000 OA
BRANCH  19  22
ATOM     22  C   UNL     1       4.832   6.610  16.782  0.00  0.00    +0.000 C 
BRANCH  22  23
ATOM     23  C   UNL     1       5.008   5.582  15.661  0.00  0.00    +0.000 C 
BRANCH  23  24
ATOM     24  O   UNL     1       6.149   5.871  14.860  0.00  0.00    +0.000 OA
ATOM     25  C   UNL     1       6.824   4.664  14.510  0.00  0.00    +0.000 C 
ENDBRANCH  23  24
ENDBRANCH  22  23
ENDBRANCH  19  22
BRANCH  20  26
ATOM     26  C   UNL     1       7.354   5.868  18.024  0.00  0.00    +0.000 C 
BRANCH  26  27
ATOM     27  C   UNL     1       8.319   6.740  18.815  0.00  0.00    +0.000 C 
BRANCH  27  28
ATOM     28  C   UNL     1       8.292   8.160  18.283  0.00  0.00    +0.000 C 
ATOM     29  O   UNL     1       7.744   8.400  17.211  0.00  0.00    +0.000 OA
ATOM     30  N   UNL     1       8.952   9.044  19.101  0.00  0.00    +0.000 N 
ATOM     31  C   UNL     1       9.028  10.378  18.818  0.00  0.00    +0.000 A 
ATOM     32  N   UNL     1       8.560  11.044  17.796  0.00  0.00    +0.000 NA
ATOM     33  C   UNL     1       9.043  12.336  17.832  0.00  0.00    +0.000 A 
ATOM     34  C   UNL     1       9.866  12.629  18.899  0.00  0.00    +0.000 A 
ATOM     35  S   UNL     1       9.889  11.288  19.976  0.00  0.00    +0.000 S 
ATOM     36  H   UNL     1       9.521   8.707  19.870  0.00  0.00    +0.000 HD
ENDBRANCH  27  28
ENDBRANCH  26  27
ENDBRANCH  20  26
ENDBRANCH   1  19
TORSDOF 12
ENDMDL
MODEL 2
REMARK VINA RESULT:      -7.2      1.155      1.706
REMARK  Name = 
REMARK  17 active torsions:
REMARK  status: ('A' for Active; 'I' for Inactive)
REMARK    1  A    between atoms: C_1  and  C_2
REMARK    2  A    between atoms: C_2  and  O_3
REMARK    3  A    between atoms: O_3  and  C_4
REMARK    4  A    between atoms: C_7  and  C_8
REMARK    5  A    between atoms: C_8  and  C_9
REMARK    6  A    between atoms: C_8  and  N_16
REMARK    7  A    between atoms: N_11  and  C_12
REMARK    8  A    between atoms: C_12  and  C_13
REMARK    9  A    between atoms: C_12  and  C_14
REMARK   10  A    between atoms: C_12  and  C_15
REMARK   11  A    between atoms: N_16  and  C_17
REMARK   12  A    between atoms: C_17  and  C_18
REMARK   13  A    between atoms: C_18  and  O_19
REMARK   14  A    between atoms: O_19  and  C_20
REMARK   15  A    between atoms: C_21  and  C_23
REMARK   16  A    between atoms: C_23  and  C_24
REMARK   17  A    between atoms: C_24  and  C_25
REMARK                            x       y       z     vdW  Elec       q    Type
REMARK                         _______ _______ _______ _____ _____    ______ ____
ROOT
ATOM      1  C   UNL     1       3.724   5.949  18.955  0.00  0.00    +0.000 C 
ENDROOT
BRANCH   1   5
ATOM      2  C   UNL     1       1.552   9.723  18.829  0.00  0.00    +0.000 A 
ATOM      3  C   UNL     1       2.213   9.247  17.704  0.00  0.00    +0.000 A 
ATOM      4  C   UNL     1       2.787   7.967  17.707  0.00  0.00    +0.000 A 
ATOM      5  C   UNL     1       2.786   7.166  18.870  0.00  0.00    +0.000 A 
ATOM      6  C   UNL     1       1.978   7.586  19.924  0.00  0.00    +0.000 A 
ATOM      7  C   UNL     1       1.360   8.843  19.892  0.00  0.00    +0.000 A 
BRANCH   2   8
ATOM      8  O   UNL     1       1.158  11.038  18.788  0.00  0.00    +0.000 OA
BRANCH   8  10
ATOM      9  C   UNL     1       1.779  13.395  18.706  0.00  0.00    +0.000 C 
ATOM     10  C   UNL     1       2.151  11.962  18.340  0.00  0.00    +0.000 C 
ENDBRANCH   8  10
ENDBRANCH   2   8
ENDBRANCH   1   5
BRANCH   1  11
ATOM     11  C   UNL     1       2.915   4.588  18.838  0.00  0.00    +0.000 C 
ATOM     12  O   UNL     1       2.400   4.188  17.795  0.00  0.00    +0.000 OA
ATOM     13  N   UNL     1       2.671   3.939  20.039  0.00  0.00    +0.000 N 
ATOM     14  H   UNL     1       3.230   4.240  20.830  0.00  0.00    +0.000 HD
BRANCH  13  15
ATOM     15  C   UNL     1       1.919   2.673  20.144  0.00  0.00    +0.000 C 
ATOM     16  C   UNL     1       1.726   2.269  21.616  0.00  0.00    +0.000 C 
ATOM     17  C   UNL     1       0.536   2.881  19.508  0.00  0.00    +0.000 C 
ATOM     18  C   UNL     1       2.610   1.525  19.381  0.00  0.00    +0.000 C 
ENDBRANCH  13  15
ENDBRANCH   1  11
BRANCH   1  19
ATOM     19  N   UNL     1       4.898   5.952  18.018  0.00  0.00    +0.000 N 
ATOM     20  C   UNL     1       6.181   5.854  18.567  0.00  0.00    +0.000 C 
ATOM     21  O   UNL     1       6.381   5.656  19.768  0.00  0.00    +0.000 OA
BRANCH  19  22
ATOM     22  C   UNL     1       4.703   5.943  16.553  0.00  0.00    +0.000 C 
BRANCH  22  23
ATOM     23  C   UNL     1       5.084   4.713  15.723  0.00  0.00    +0.000 C 
BRANCH  23  24
ATOM     24  O   UNL     1       5.902   5.065  14.613  0.00  0.00    +0.000 OA
ATOM     25  C   UNL     1       6.132   3.922  13.789  0.00  0.00    +0.000 C 
ENDBRANCH  23  24
ENDBRANCH  22  23
ENDBRANCH  19  22
BRANCH  20  26
ATOM     26  C   UNL     1       7.389   6.086  17.658  0.00  0.00    +0.000 C 
BRANCH  26  27
ATOM     27  C   UNL     1       7.463   7.529  17.180  0.00  0.00    +0.000 C 
BRANCH  27  28
ATOM     28  C   UNL     1       8.281   8.357  18.153  0.00  0.00    +0.000 C 
ATOM     29  O   UNL     1       8.782   7.823  19.138  0.00  0.00    +0.000 OA
ATOM     30  N   UNL     1       8.331   9.685  17.804  0.00  0.00    +0.000 N 
ATOM     31  C   UNL     1       9.033  10.601  18.534  0.00  0.00    +0.000 A 
ATOM     32  N   UNL     1       9.724  10.443  19.632  0.00  0.00    +0.000 NA
ATOM     33  C   UNL     1      10.099  11.680  20.117  0.00  0.00    +0.000 A 
ATOM     34  C   UNL     1       9.689  12.759  19.363  0.00  0.00    +0.000 A 
ATOM     35  S   UNL     1       8.963  12.189  17.912  0.00  0.00    +0.000 S 
ATOM     36  H   UNL     1       7.733  10.047  17.070  0.00  0.00    +0.000 HD
ENDBRANCH  27  28
ENDBRANCH  26  27
ENDBRANCH  20  26
ENDBRANCH   1  19
TORSDOF 12
ENDMDL
MODEL 3
REMARK VINA RESULT:      -7.2      0.915      1.287
REMARK  Name = 
REMARK  17 active torsions:
REMARK  status: ('A' for Active; 'I' for Inactive)
REMARK    1  A    between atoms: C_1  and  C_2
REMARK    2  A    between atoms: C_2  and  O_3
REMARK    3  A    between atoms: O_3  and  C_4
REMARK    4  A    between atoms: C_7  and  C_8
REMARK    5  A    between atoms: C_8  and  C_9
REMARK    6  A    between atoms: C_8  and  N_16
REMARK    7  A    between atoms: N_11  and  C_12
REMARK    8  A    between atoms: C_12  and  C_13
REMARK    9  A    between atoms: C_12  and  C_14
REMARK   10  A    between atoms: C_12  and  C_15
REMARK   11  A    between atoms: N_16  and  C_17
REMARK   12  A    between atoms: C_17  and  C_18
REMARK   13  A    between atoms: C_18  and  O_19
REMARK   14  A    between atoms: O_19  and  C_20
REMARK   15  A    between atoms: C_21  and  C_23
REMARK   16  A    between atoms: C_23  and  C_24
REMARK   17  A    between atoms: C_24  and  C_25
REMARK                            x       y       z     vdW  Elec       q    Type
REMARK                         _______ _______ _______ _____ _____    ______ ____
ROOT
ATOM      1  C   UNL     1       3.690   6.055  18.994  0.00  0.00    +0.000 C 
ENDROOT
BRANCH   1   5
ATOM      2  C   UNL     1       0.866   9.365  18.788  0.00  0.00    +0.000 A 
ATOM      3  C   UNL     1       1.048   8.661  19.972  0.00  0.00    +0.000 A 
ATOM      4  C   UNL     1       2.059   7.694  20.073  0.00  0.00    +0.000 A 
ATOM      5  C   UNL     1       2.858   7.349  18.960  0.00  0.00    +0.000 A 
ATOM      6  C   UNL     1       2.775   8.177  17.843  0.00  0.00    +0.000 A 
ATOM      7  C   UNL     1       1.799   9.180  17.770  0.00  0.00    +0.000 A 
BRANCH   2   8
ATOM      8  O   UNL     1      -0.240  10.177  18.732  0.00  0.00    +0.000 OA
BRANCH   8  10
ATOM      9  C   UNL     1      -0.145  12.197  20.095  0.00  0.00    +0.000 C 
ATOM     10  C   UNL     1       0.029  11.580  18.712  0.00  0.00    +0.000 C 
ENDBRANCH   8  10
ENDBRANCH   2   8
ENDBRANCH   1   5
BRANCH   1  11
ATOM     11  C   UNL     1       2.767   4.772  18.846  0.00  0.00    +0.000 C 
ATOM     12  O   UNL     1       2.123   4.506  17.831  0.00  0.00    +0.000 OA
ATOM     13  N   UNL     1       2.588   4.034  20.007  0.00  0.00    +0.000 N 
ATOM     14  H   UNL     1       3.243   4.221  20.759  0.00  0.00    +0.000 HD
BRANCH  13  15
ATOM     15  C   UNL     1       1.751   2.821  20.082  0.00  0.00    +0.000 C 
ATOM     16  C   UNL     1       0.341   3.092  19.529  0.00  0.00    +0.000 C 
ATOM     17  C   UNL     1       2.410   1.727  19.228  0.00  0.00    +0.000 C 
ATOM     18  C   UNL     1       1.644   2.280  21.522  0.00  0.00    +0.000 C 
ENDBRANCH  13  15
ENDBRANCH   1  11
BRANCH   1  19
ATOM     19  N   UNL     1       4.849   5.989  18.040  0.00  0.00    +0.000 N 
ATOM     20  C   UNL     1       6.132   5.826  18.571  0.00  0.00    +0.000 C 
ATOM     21  O   UNL     1       6.339   5.626  19.771  0.00  0.00    +0.000 OA
BRANCH  19  22
ATOM     22  C   UNL     1       4.632   5.980  16.578  0.00  0.00    +0.000 C 
BRANCH  22  23
ATOM     23  C   UNL     1       4.984   4.746  15.744  0.00  0.00    +0.000 C 
BRANCH  23  24
ATOM     24  O   UNL     1       5.840   5.076  14.656  0.00  0.00    +0.000 OA
ATOM     25  C   UNL     1       6.133   3.910  13.887  0.00  0.00    +0.000 C 
ENDBRANCH  23  24
ENDBRANCH  22  23
ENDBRANCH  19  22
BRANCH  20  26
ATOM     26  C   UNL     1       7.337   5.988  17.643  0.00  0.00    +0.000 C 
BRANCH  26  27
ATOM     27  C   UNL     1       7.468   7.417  17.135  0.00  0.00    +0.000 C 
BRANCH  27  28
ATOM     28  C   UNL     1       8.252   8.251  18.130  0.00  0.00    +0.000 C 
ATOM     29  O   UNL     1       8.738   7.720  19.124  0.00  0.00    +0.000 OA
ATOM     30  N   UNL     1       8.292   9.582  17.789  0.00  0.00    +0.000 N 
ATOM     31  C   UNL     1       8.965  10.504  18.538  0.00  0.00    +0.000 A 
ATOM     32  N   UNL     1       9.633  10.350  19.651  0.00  0.00    +0.000 NA
ATOM     33  C   UNL     1       9.980  11.589  20.150  0.00  0.00    +0.000 A 
ATOM     34  C   UNL     1       9.573  12.666  19.392  0.00  0.00    +0.000 A 
ATOM     35  S   UNL     1       8.888  12.093  17.923  0.00  0.00    +0.000 S 
ATOM     36  H   UNL     1       7.706   9.939  17.043  0.00  0.00    +0.000 HD
ENDBRANCH  27  28
ENDBRANCH  26  27
ENDBRANCH  20  26
ENDBRANCH   1  19
TORSDOF 12
ENDMDL
MODEL 4
REMARK VINA RESULT:      -7.0      3.810      7.651
REMARK  Name = 
REMARK  17 active torsions:
REMARK  status: ('A' for Active; 'I' for Inactive)
REMARK    1  A    between atoms: C_1  and  C_2
REMARK    2  A    between atoms: C_2  and  O_3
REMARK    3  A    between atoms: O_3  and  C_4
REMARK    4  A    between atoms: C_7  and  C_8
REMARK    5  A    between atoms: C_8  and  C_9
REMARK    6  A    between atoms: C_8  and  N_16
REMARK    7  A    between atoms: N_11  and  C_12
REMARK    8  A    between atoms: C_12  and  C_13
REMARK    9  A    between atoms: C_12  and  C_14
REMARK   10  A    between atoms: C_12  and  C_15
REMARK   11  A    between atoms: N_16  and  C_17
REMARK   12  A    between atoms: C_17  and  C_18
REMARK   13  A    between atoms: C_18  and  O_19
REMARK   14  A    between atoms: O_19  and  C_20
REMARK   15  A    between atoms: C_21  and  C_23
REMARK   16  A    between atoms: C_23  and  C_24
REMARK   17  A    between atoms: C_24  and  C_25
REMARK                            x       y       z     vdW  Elec       q    Type
REMARK                         _______ _______ _______ _____ _____    ______ ____
ROOT
ATOM      1  C   UNL     1       0.728  10.419  18.493  0.00  0.00    +0.000 C 
ENDROOT
BRANCH   1   5
ATOM      2  C   UNL     1      -3.486  11.157  17.668  0.00  0.00    +0.000 A 
ATOM      3  C   UNL     1      -2.791  10.168  16.982  0.00  0.00    +0.000 A 
ATOM      4  C   UNL     1      -1.479   9.838  17.351  0.00  0.00    +0.000 A 
ATOM      5  C   UNL     1      -0.800  10.551  18.363  0.00  0.00    +0.000 A 
ATOM      6  C   UNL     1      -1.563  11.414  19.146  0.00  0.00    +0.000 A 
ATOM      7  C   UNL     1      -2.893  11.699  18.806  0.00  0.00    +0.000 A 
BRANCH   2   8
ATOM      8  O   UNL     1      -4.701  11.518  17.141  0.00  0.00    +0.000 OA
BRANCH   8  10
ATOM      9  C   UNL     1      -6.762  10.956  18.317  0.00  0.00    +0.000 C 
ATOM     10  C   UNL     1      -5.664  11.988  18.086  0.00  0.00    +0.000 C 
ENDBRANCH   8  10
ENDBRANCH   2   8
ENDBRANCH   1   5
BRANCH   1  11
ATOM     11  C   UNL     1       1.407  11.827  18.767  0.00  0.00    +0.000 C 
ATOM     12  O   UNL     1       2.396  12.238  18.161  0.00  0.00    +0.000 OA
ATOM     13  N   UNL     1       0.918  12.516  19.867  0.00  0.00    +0.000 N 
ATOM     14  H   UNL     1       0.028  12.195  20.234  0.00  0.00    +0.000 HD
BRANCH  13  15
ATOM     15  C   UNL     1       1.430  13.831  20.300  0.00  0.00    +0.000 C 
ATOM     16  C   UNL     1       0.606  14.381  21.476  0.00  0.00    +0.000 C 
ATOM     17  C   UNL     1       2.885  13.651  20.764  0.00  0.00    +0.000 C 
ATOM     18  C   UNL     1       1.436  14.857  19.150  0.00  0.00    +0.000 C 
ENDBRANCH  13  15
ENDBRANCH   1  11
BRANCH   1  19
ATOM     19  N   UNL     1       1.222   9.391  19.470  0.00  0.00    +0.000 N 
ATOM     20  C   UNL     1       1.938   8.298  18.972  0.00  0.00    +0.000 C 
ATOM     21  O   UNL     1       2.272   8.200  17.789  0.00  0.00    +0.000 OA
BRANCH  19  22
ATOM     22  C   UNL     1       1.058   9.584  20.926  0.00  0.00    +0.000 C 
BRANCH  22  23
ATOM     23  C   UNL     1      -0.202   9.089  21.642  0.00  0.00    +0.000 C 
BRANCH  23  24
ATOM     24  O   UNL     1      -0.233   9.515  23.000  0.00  0.00    +0.000 OA
ATOM     25  C   UNL     1      -1.126  10.618  23.152  0.00  0.00    +0.000 C 
ENDBRANCH  23  24
ENDBRANCH  22  23
ENDBRANCH  19  22
BRANCH  20  26
ATOM     26  C   UNL     1       2.248   7.132  19.913  0.00  0.00    +0.000 C 
BRANCH  26  27
ATOM     27  C   UNL     1       2.316   5.808  19.165  0.00  0.00    +0.000 C 
BRANCH  27  28
ATOM     28  C   UNL     1       3.762   5.437  18.897  0.00  0.00    +0.000 C 
ATOM     29  O   UNL     1       4.544   5.314  19.834  0.00  0.00    +0.000 OA
ATOM     30  N   UNL     1       4.035   5.312  17.556  0.00  0.00    +0.000 N 
ATOM     31  C   UNL     1       5.273   4.962  17.097  0.00  0.00    +0.000 A 
ATOM     32  N   UNL     1       6.372   4.717  17.760  0.00  0.00    +0.000 NA
ATOM     33  C   UNL     1       7.423   4.594  16.873  0.00  0.00    +0.000 A 
ATOM     34  C   UNL     1       7.092   4.738  15.542  0.00  0.00    +0.000 A 
ATOM     35  S   UNL     1       5.383   4.858  15.397  0.00  0.00    +0.000 S 
ATOM     36  H   UNL     1       3.358   5.611  16.863  0.00  0.00    +0.000 HD
ENDBRANCH  27  28
ENDBRANCH  26  27
ENDBRANCH  20  26
ENDBRANCH   1  19
TORSDOF 12
ENDMDL
MODEL 5
REMARK VINA RESULT:      -7.0      0.964      1.515
REMARK  Name = 
REMARK  17 active torsions:
REMARK  status: ('A' for Active; 'I' for Inactive)
REMARK    1  A    between atoms: C_1  and  C_2
REMARK    2  A    between atoms: C_2  and  O_3
REMARK    3  A    between atoms: O_3  and  C_4
REMARK    4  A    between atoms: C_7  and  C_8
REMARK    5  A    between atoms: C_8  and  C_9
REMARK    6  A    between atoms: C_8  and  N_16
REMARK    7  A    between atoms: N_11  and  C_12
REMARK    8  A    between atoms: C_12  and  C_13
REMARK    9  A    between atoms: C_12  and  C_14
REMARK   10  A    between atoms: C_12  and  C_15
REMARK   11  A    between atoms: N_16  and  C_17
REMARK   12  A    between atoms: C_17  and  C_18
REMARK   13  A    between atoms: C_18  and  O_19
REMARK   14  A    between atoms: O_19  and  C_20
REMARK   15  A    between atoms: C_21  and  C_23
REMARK   16  A    between atoms: C_23  and  C_24
REMARK   17  A    between atoms: C_24  and  C_25
REMARK                            x       y       z     vdW  Elec       q    Type
REMARK                         _______ _______ _______ _____ _____    ______ ____
ROOT
ATOM      1  C   UNL     1       3.467   6.211  19.444  0.00  0.00    +0.000 C 
ENDROOT
BRANCH   1   5
ATOM      2  C   UNL     1       1.281   9.924  18.807  0.00  0.00    +0.000 A 
ATOM      3  C   UNL     1       1.914   9.283  17.749  0.00  0.00    +0.000 A 
ATOM      4  C   UNL     1       2.492   8.018  17.931  0.00  0.00    +0.000 A 
ATOM      5  C   UNL     1       2.523   7.402  19.201  0.00  0.00    +0.000 A 
ATOM      6  C   UNL     1       1.742   7.977  20.200  0.00  0.00    +0.000 A 
ATOM      7  C   UNL     1       1.119   9.215  19.996  0.00  0.00    +0.000 A 
BRANCH   2   8
ATOM      8  O   UNL     1       0.882  11.218  18.578  0.00  0.00    +0.000 OA
BRANCH   8  10
ATOM      9  C   UNL     1       1.960  12.942  19.926  0.00  0.00    +0.000 C 
ATOM     10  C   UNL     1       1.925  12.194  18.597  0.00  0.00    +0.000 C 
ENDBRANCH   8  10
ENDBRANCH   2   8
ENDBRANCH   1   5
BRANCH   1  11
ATOM     11  C   UNL     1       2.660   4.847  19.544  0.00  0.00    +0.000 C 
ATOM     12  O   UNL     1       1.634   4.708  20.209  0.00  0.00    +0.000 OA
ATOM     13  N   UNL     1       3.279   3.749  18.964  0.00  0.00    +0.000 N 
ATOM     14  H   UNL     1       4.039   3.953  18.324  0.00  0.00    +0.000 HD
BRANCH  13  15
ATOM     15  C   UNL     1       2.702   2.391  18.969  0.00  0.00    +0.000 C 
ATOM     16  C   UNL     1       1.302   2.386  18.331  0.00  0.00    +0.000 C 
ATOM     17  C   UNL     1       3.619   1.475  18.144  0.00  0.00    +0.000 C 
ATOM     18  C   UNL     1       2.621   1.802  20.392  0.00  0.00    +0.000 C 
ENDBRANCH  13  15
ENDBRANCH   1  11
BRANCH   1  19
ATOM     19  N   UNL     1       4.621   6.077  18.493  0.00  0.00    +0.000 N 
ATOM     20  C   UNL     1       5.817   5.536  18.977  0.00  0.00    +0.000 C 
ATOM     21  O   UNL     1       5.927   5.068  20.113  0.00  0.00    +0.000 OA
BRANCH  19  22
ATOM     22  C   UNL     1       4.467   6.398  17.058  0.00  0.00    +0.000 C 
BRANCH  22  23
ATOM     23  C   UNL     1       4.746   5.340  15.987  0.00  0.00    +0.000 C 
BRANCH  23  24
ATOM     24  O   UNL     1       5.635   5.828  14.988  0.00  0.00    +0.000 OA
ATOM     25  C   UNL     1       6.562   4.810  14.612  0.00  0.00    +0.000 C 
ENDBRANCH  23  24
ENDBRANCH  22  23
ENDBRANCH  19  22
BRANCH  20  26
ATOM     26  C   UNL     1       7.065   5.604  18.095  0.00  0.00    +0.000 C 
BRANCH  26  27
ATOM     27  C   UNL     1       8.174   6.414  18.752  0.00  0.00    +0.000 C 
BRANCH  27  28
ATOM     28  C   UNL     1       8.151   7.840  18.236  0.00  0.00    +0.000 C 
ATOM     29  O   UNL     1       7.611   8.092  17.163  0.00  0.00    +0.000 OA
ATOM     30  N   UNL     1       8.807   8.714  19.069  0.00  0.00    +0.000 N 
ATOM     31  C   UNL     1       8.886  10.051  18.801  0.00  0.00    +0.000 A 
ATOM     32  N   UNL     1       8.425  10.728  17.783  0.00  0.00    +0.000 NA
ATOM     33  C   UNL     1       8.909  12.020  17.838  0.00  0.00    +0.000 A 
ATOM     34  C   UNL     1       9.725  12.300  18.913  0.00  0.00    +0.000 A 
ATOM     35  S   UNL     1       9.740  10.947  19.975  0.00  0.00    +0.000 S 
ATOM     36  H   UNL     1       9.370   8.367  19.837  0.00  0.00    +0.000 HD
ENDBRANCH  27  28
ENDBRANCH  26  27
ENDBRANCH  20  26
ENDBRANCH   1  19
TORSDOF 12
ENDMDL
MODEL 6
REMARK VINA RESULT:      -6.9      1.245      1.705
REMARK  Name = 
REMARK  17 active torsions:
REMARK  status: ('A' for Active; 'I' for Inactive)
REMARK    1  A    between atoms: C_1  and  C_2
REMARK    2  A    between atoms: C_2  and  O_3
REMARK    3  A    between atoms: O_3  and  C_4
REMARK    4  A    between atoms: C_7  and  C_8
REMARK    5  A    between atoms: C_8  and  C_9
REMARK    6  A    between atoms: C_8  and  N_16
REMARK    7  A    between atoms: N_11  and  C_12
REMARK    8  A    between atoms: C_12  and  C_13
REMARK    9  A    between atoms: C_12  and  C_14
REMARK   10  A    between atoms: C_12  and  C_15
REMARK   11  A    between atoms: N_16  and  C_17
REMARK   12  A    between atoms: C_17  and  C_18
REMARK   13  A    between atoms: C_18  and  O_19
REMARK   14  A    between atoms: O_19  and  C_20
REMARK   15  A    between atoms: C_21  and  C_23
REMARK   16  A    between atoms: C_23  and  C_24
REMARK   17  A    between atoms: C_24  and  C_25
REMARK                            x       y       z     vdW  Elec       q    Type
REMARK                         _______ _______ _______ _____ _____    ______ ____
ROOT
ATOM      1  C   UNL     1       3.614   6.225  18.817  0.00  0.00    +0.000 C 
ENDROOT
BRANCH   1   5
ATOM      2  C   UNL     1       1.251   9.885  18.878  0.00  0.00    +0.000 A 
ATOM      3  C   UNL     1       1.828   9.432  17.698  0.00  0.00    +0.000 A 
ATOM      4  C   UNL     1       2.464   8.183  17.653  0.00  0.00    +0.000 A 
ATOM      5  C   UNL     1       2.611   7.393  18.814  0.00  0.00    +0.000 A 
ATOM      6  C   UNL     1       1.884   7.781  19.937  0.00  0.00    +0.000 A 
ATOM      7  C   UNL     1       1.203   9.006  19.958  0.00  0.00    +0.000 A 
BRANCH   2   8
ATOM      8  O   UNL     1       0.789  11.178  18.868  0.00  0.00    +0.000 OA
BRANCH   8  10
ATOM      9  C   UNL     1       2.393  12.974  18.482  0.00  0.00    +0.000 C 
ATOM     10  C   UNL     1       1.635  12.136  19.506  0.00  0.00    +0.000 C 
ENDBRANCH   8  10
ENDBRANCH   2   8
ENDBRANCH   1   5
BRANCH   1  11
ATOM     11  C   UNL     1       2.883   4.838  18.568  0.00  0.00    +0.000 C 
ATOM     12  O   UNL     1       1.762   4.736  18.071  0.00  0.00    +0.000 OA
ATOM     13  N   UNL     1       3.520   3.729  19.104  0.00  0.00    +0.000 N 
ATOM     14  H   UNL     1       4.489   3.859  19.374  0.00  0.00    +0.000 HD
BRANCH  13  15
ATOM     15  C   UNL     1       2.992   2.354  18.998  0.00  0.00    +0.000 C 
ATOM     16  C   UNL     1       4.068   1.322  19.375  0.00  0.00    +0.000 C 
ATOM     17  C   UNL     1       1.814   2.214  19.976  0.00  0.00    +0.000 C 
ATOM     18  C   UNL     1       2.457   2.048  17.585  0.00  0.00    +0.000 C 
ENDBRANCH  13  15
ENDBRANCH   1  11
BRANCH   1  19
ATOM     19  N   UNL     1       4.802   6.371  17.911  0.00  0.00    +0.000 N 
ATOM     20  C   UNL     1       6.071   6.117  18.440  0.00  0.00    +0.000 C 
ATOM     21  O   UNL     1       6.245   5.676  19.578  0.00  0.00    +0.000 OA
BRANCH  19  22
ATOM     22  C   UNL     1       4.630   6.663  16.471  0.00  0.00    +0.000 C 
BRANCH  22  23
ATOM     23  C   UNL     1       5.190   5.711  15.410  0.00  0.00    +0.000 C 
BRANCH  23  24
ATOM     24  O   UNL     1       4.855   4.357  15.694  0.00  0.00    +0.000 OA
ATOM     25  C   UNL     1       6.023   3.539  15.646  0.00  0.00    +0.000 C 
ENDBRANCH  23  24
ENDBRANCH  22  23
ENDBRANCH  19  22
BRANCH  20  26
ATOM     26  C   UNL     1       7.301   6.481  17.606  0.00  0.00    +0.000 C 
BRANCH  26  27
ATOM     27  C   UNL     1       7.334   7.965  17.270  0.00  0.00    +0.000 C 
BRANCH  27  28
ATOM     28  C   UNL     1       8.285   8.688  18.204  0.00  0.00    +0.000 C 
ATOM     29  O   UNL     1       8.862   8.065  19.090  0.00  0.00    +0.000 OA
ATOM     30  N   UNL     1       8.358  10.035  17.945  0.00  0.00    +0.000 N 
ATOM     31  C   UNL     1       9.174  10.869  18.656  0.00  0.00    +0.000 A 
ATOM     32  N   UNL     1       9.969  10.604  19.660  0.00  0.00    +0.000 NA
ATOM     33  C   UNL     1      10.447  11.787  20.187  0.00  0.00    +0.000 A 
ATOM     34  C   UNL     1      10.010  12.933  19.558  0.00  0.00    +0.000 A 
ATOM     35  S   UNL     1       9.111  12.499  18.158  0.00  0.00    +0.000 S 
ATOM     36  H   UNL     1       7.703  10.472  17.306  0.00  0.00    +0.000 HD
ENDBRANCH  27  28
ENDBRANCH  26  27
ENDBRANCH  20  26
ENDBRANCH   1  19
TORSDOF 12
ENDMDL
MODEL 7
REMARK VINA RESULT:      -6.9      1.158      1.802
REMARK  Name = 
REMARK  17 active torsions:
REMARK  status: ('A' for Active; 'I' for Inactive)
REMARK    1  A    between atoms: C_1  and  C_2
REMARK    2  A    between atoms: C_2  and  O_3
REMARK    3  A    between atoms: O_3  and  C_4
REMARK    4  A    between atoms: C_7  and  C_8
REMARK    5  A    between atoms: C_8  and  C_9
REMARK    6  A    between atoms: C_8  and  N_16
REMARK    7  A    between atoms: N_11  and  C_12
REMARK    8  A    between atoms: C_12  and  C_13
REMARK    9  A    between atoms: C_12  and  C_14
REMARK   10  A    between atoms: C_12  and  C_15
REMARK   11  A    between atoms: N_16  and  C_17
REMARK   12  A    between atoms: C_17  and  C_18
REMARK   13  A    between atoms: C_18  and  O_19
REMARK   14  A    between atoms: O_19  and  C_20
REMARK   15  A    between atoms: C_21  and  C_23
REMARK   16  A    between atoms: C_23  and  C_24
REMARK   17  A    between atoms: C_24  and  C_25
REMARK                            x       y       z     vdW  Elec       q    Type
REMARK                         _______ _______ _______ _____ _____    ______ ____
ROOT
ATOM      1  C   UNL     1       3.770   5.949  18.716  0.00  0.00    +0.000 C 
ENDROOT
BRANCH   1   5
ATOM      2  C   UNL     1       1.509   9.663  18.988  0.00  0.00    +0.000 A 
ATOM      3  C   UNL     1       2.129   9.296  17.801  0.00  0.00    +0.000 A 
ATOM      4  C   UNL     1       2.732   8.035  17.676  0.00  0.00    +0.000 A 
ATOM      5  C   UNL     1       2.801   7.144  18.769  0.00  0.00    +0.000 A 
ATOM      6  C   UNL     1       2.032   7.458  19.888  0.00  0.00    +0.000 A 
ATOM      7  C   UNL     1       1.385   8.697  19.984  0.00  0.00    +0.000 A 
BRANCH   2   8
ATOM      8  O   UNL     1       1.084  10.967  19.070  0.00  0.00    +0.000 OA
BRANCH   8  10
ATOM      9  C   UNL     1      -0.469  11.773  20.769  0.00  0.00    +0.000 C 
ATOM     10  C   UNL     1       0.983  11.496  20.393  0.00  0.00    +0.000 C 
ENDBRANCH   8  10
ENDBRANCH   2   8
ENDBRANCH   1   5
BRANCH   1  11
ATOM     11  C   UNL     1       3.012   4.611  18.321  0.00  0.00    +0.000 C 
ATOM     12  O   UNL     1       1.954   4.585  17.694  0.00  0.00    +0.000 OA
ATOM     13  N   UNL     1       3.531   3.451  18.878  0.00  0.00    +0.000 N 
ATOM     14  H   UNL     1       4.466   3.522  19.264  0.00  0.00    +0.000 HD
BRANCH  13  15
ATOM     15  C   UNL     1       2.958   2.110  18.650  0.00  0.00    +0.000 C 
ATOM     16  C   UNL     1       1.685   1.906  19.491  0.00  0.00    +0.000 C 
ATOM     17  C   UNL     1       2.587   1.991  17.164  0.00  0.00    +0.000 C 
ATOM     18  C   UNL     1       3.968   0.988  18.965  0.00  0.00    +0.000 C 
ENDBRANCH  13  15
ENDBRANCH   1  11
BRANCH   1  19
ATOM     19  N   UNL     1       4.999   6.132  17.874  0.00  0.00    +0.000 N 
ATOM     20  C   UNL     1       6.245   6.088  18.507  0.00  0.00    +0.000 C 
ATOM     21  O   UNL     1       6.380   5.798  19.699  0.00  0.00    +0.000 OA
BRANCH  19  22
ATOM     22  C   UNL     1       4.906   6.241  16.402  0.00  0.00    +0.000 C 
BRANCH  22  23
ATOM     23  C   UNL     1       4.925   4.986  15.525  0.00  0.00    +0.000 C 
BRANCH  23  24
ATOM     24  O   UNL     1       6.203   4.360  15.535  0.00  0.00    +0.000 OA
ATOM     25  C   UNL     1       6.984   4.815  14.431  0.00  0.00    +0.000 C 
ENDBRANCH  23  24
ENDBRANCH  22  23
ENDBRANCH  19  22
BRANCH  20  26
ATOM     26  C   UNL     1       7.488   6.498  17.715  0.00  0.00    +0.000 C 
BRANCH  26  27
ATOM     27  C   UNL     1       7.435   7.964  17.306  0.00  0.00    +0.000 C 
BRANCH  27  28
ATOM     28  C   UNL     1       8.346   8.784  18.200  0.00  0.00    +0.000 C 
ATOM     29  O   UNL     1       8.914   8.251  19.148  0.00  0.00    +0.000 OA
ATOM     30  N   UNL     1       8.396  10.107  17.831  0.00  0.00    +0.000 N 
ATOM     31  C   UNL     1       9.174  11.016  18.490  0.00  0.00    +0.000 A 
ATOM     32  N   UNL     1       9.949  10.855  19.530  0.00  0.00    +0.000 NA
ATOM     33  C   UNL     1      10.387  12.088  19.968  0.00  0.00    +0.000 A 
ATOM     34  C   UNL     1       9.941  13.168  19.236  0.00  0.00    +0.000 A 
ATOM     35  S   UNL     1       9.088  12.597  17.856  0.00  0.00    +0.000 S 
ATOM     36  H   UNL     1       7.748  10.474  17.142  0.00  0.00    +0.000 HD
ENDBRANCH  27  28
ENDBRANCH  26  27
ENDBRANCH  20  26
ENDBRANCH   1  19
TORSDOF 12
ENDMDL
MODEL 8
REMARK VINA RESULT:      -6.9      1.171      1.399
REMARK  Name = 
REMARK  17 active torsions:
REMARK  status: ('A' for Active; 'I' for Inactive)
REMARK    1  A    between atoms: C_1  and  C_2
REMARK    2  A    between atoms: C_2  and  O_3
REMARK    3  A    between atoms: O_3  and  C_4
REMARK    4  A    between atoms: C_7  and  C_8
REMARK    5  A    between atoms: C_8  and  C_9
REMARK    6  A    between atoms: C_8  and  N_16
REMARK    7  A    between atoms: N_11  and  C_12
REMARK    8  A    between atoms: C_12  and  C_13
REMARK    9  A    between atoms: C_12  and  C_14
REMARK   10  A    between atoms: C_12  and  C_15
REMARK   11  A    between atoms: N_16  and  C_17
REMARK   12  A    between atoms: C_17  and  C_18
REMARK   13  A    between atoms: C_18  and  O_19
REMARK   14  A    between atoms: O_19  and  C_20
REMARK   15  A    between atoms: C_21  and  C_23
REMARK   16  A    between atoms: C_23  and  C_24
REMARK   17  A    between atoms: C_24  and  C_25
REMARK                            x       y       z     vdW  Elec       q    Type
REMARK                         _______ _______ _______ _____ _____    ______ ____
ROOT
ATOM      1  C   UNL     1       3.705   6.229  18.811  0.00  0.00    +0.000 C 
ENDROOT
BRANCH   1   5
ATOM      2  C   UNL     1       0.672   9.351  19.002  0.00  0.00    +0.000 A 
ATOM      3  C   UNL     1       1.028   8.637  20.139  0.00  0.00    +0.000 A 
ATOM      4  C   UNL     1       2.103   7.736  20.104  0.00  0.00    +0.000 A 
ATOM      5  C   UNL     1       2.794   7.466  18.902  0.00  0.00    +0.000 A 
ATOM      6  C   UNL     1       2.537   8.309  17.824  0.00  0.00    +0.000 A 
ATOM      7  C   UNL     1       1.497   9.247  17.883  0.00  0.00    +0.000 A 
BRANCH   2   8
ATOM      8  O   UNL     1      -0.482  10.090  19.088  0.00  0.00    +0.000 OA
BRANCH   8  10
ATOM      9  C   UNL     1      -1.494  12.040  18.030  0.00  0.00    +0.000 C 
ATOM     10  C   UNL     1      -0.333  11.490  18.851  0.00  0.00    +0.000 C 
ENDBRANCH   8  10
ENDBRANCH   2   8
ENDBRANCH   1   5
BRANCH   1  11
ATOM     11  C   UNL     1       2.874   4.928  18.442  0.00  0.00    +0.000 C 
ATOM     12  O   UNL     1       1.718   4.952  18.020  0.00  0.00    +0.000 OA
ATOM     13  N   UNL     1       3.474   3.725  18.785  0.00  0.00    +0.000 N 
ATOM     14  H   UNL     1       4.465   3.766  18.998  0.00  0.00    +0.000 HD
BRANCH  13  15
ATOM     15  C   UNL     1       2.855   2.407  18.546  0.00  0.00    +0.000 C 
ATOM     16  C   UNL     1       3.850   1.271  18.841  0.00  0.00    +0.000 C 
ATOM     17  C   UNL     1       1.651   2.261  19.490  0.00  0.00    +0.000 C 
ATOM     18  C   UNL     1       2.329   2.269  17.102  0.00  0.00    +0.000 C 
ENDBRANCH  13  15
ENDBRANCH   1  11
BRANCH   1  19
ATOM     19  N   UNL     1       4.910   6.360  17.924  0.00  0.00    +0.000 N 
ATOM     20  C   UNL     1       6.164   6.059  18.466  0.00  0.00    +0.000 C 
ATOM     21  O   UNL     1       6.308   5.590  19.597  0.00  0.00    +0.000 OA
BRANCH  19  22
ATOM     22  C   UNL     1       4.768   6.685  16.489  0.00  0.00    +0.000 C 
BRANCH  22  23
ATOM     23  C   UNL     1       5.156   5.664  15.415  0.00  0.00    +0.000 C 
BRANCH  23  24
ATOM     24  O   UNL     1       4.904   4.331  15.846  0.00  0.00    +0.000 OA
ATOM     25  C   UNL     1       6.037   3.505  15.582  0.00  0.00    +0.000 C 
ENDBRANCH  23  24
ENDBRANCH  22  23
ENDBRANCH  19  22
BRANCH  20  26
ATOM     26  C   UNL     1       7.415   6.404  17.657  0.00  0.00    +0.000 C 
BRANCH  26  27
ATOM     27  C   UNL     1       7.444   7.875  17.267  0.00  0.00    +0.000 C 
BRANCH  27  28
ATOM     28  C   UNL     1       8.332   8.649  18.223  0.00  0.00    +0.000 C 
ATOM     29  O   UNL     1       8.845   8.076  19.179  0.00  0.00    +0.000 OA
ATOM     30  N   UNL     1       8.428   9.980  17.896  0.00  0.00    +0.000 N 
ATOM     31  C   UNL     1       9.196  10.851  18.615  0.00  0.00    +0.000 A 
ATOM     32  N   UNL     1       9.919  10.643  19.683  0.00  0.00    +0.000 NA
ATOM     33  C   UNL     1      10.364  11.852  20.176  0.00  0.00    +0.000 A 
ATOM     34  C   UNL     1       9.975  12.962  19.457  0.00  0.00    +0.000 A 
ATOM     35  S   UNL     1       9.173  12.451  18.024  0.00  0.00    +0.000 S 
ATOM     36  H   UNL     1       7.820  10.381  17.190  0.00  0.00    +0.000 HD
ENDBRANCH  27  28
ENDBRANCH  26  27
ENDBRANCH  20  26
ENDBRANCH   1  19
TORSDOF 12
ENDMDL
MODEL 9
REMARK VINA RESULT:      -6.8      2.490      5.560
REMARK  Name = 
REMARK  17 active torsions:
REMARK  status: ('A' for Active; 'I' for Inactive)
REMARK    1  A    between atoms: C_1  and  C_2
REMARK    2  A    between atoms: C_2  and  O_3
REMARK    3  A    between atoms: O_3  and  C_4
REMARK    4  A    between atoms: C_7  and  C_8
REMARK    5  A    between atoms: C_8  and  C_9
REMARK    6  A    between atoms: C_8  and  N_16
REMARK    7  A    between atoms: N_11  and  C_12
REMARK    8  A    between atoms: C_12  and  C_13
REMARK    9  A    between atoms: C_12  and  C_14
REMARK   10  A    between atoms: C_12  and  C_15
REMARK   11  A    between atoms: N_16  and  C_17
REMARK   12  A    between atoms: C_17  and  C_18
REMARK   13  A    between atoms: C_18  and  O_19
REMARK   14  A    between atoms: O_19  and  C_20
REMARK   15  A    between atoms: C_21  and  C_23
REMARK   16  A    between atoms: C_23  and  C_24
REMARK   17  A    between atoms: C_24  and  C_25
REMARK                            x       y       z     vdW  Elec       q    Type
REMARK                         _______ _______ _______ _____ _____    ______ ____
ROOT
ATOM      1  C   UNL     1       5.664   3.924  16.654  0.00  0.00    +0.000 C 
ENDROOT
BRANCH   1   5
ATOM      2  C   UNL     1       1.926   2.489  18.369  0.00  0.00    +0.000 A 
ATOM      3  C   UNL     1       1.928   3.506  17.424  0.00  0.00    +0.000 A 
ATOM      4  C   UNL     1       3.116   3.865  16.770  0.00  0.00    +0.000 A 
ATOM      5  C   UNL     1       4.349   3.268  17.111  0.00  0.00    +0.000 A 
ATOM      6  C   UNL     1       4.300   2.142  17.930  0.00  0.00    +0.000 A 
ATOM      7  C   UNL     1       3.098   1.754  18.538  0.00  0.00    +0.000 A 
BRANCH   2   8
ATOM      8  O   UNL     1       0.756   2.312  19.066  0.00  0.00    +0.000 OA
BRANCH   8  10
ATOM      9  C   UNL     1       1.446   2.993  21.303  0.00  0.00    +0.000 C 
ATOM     10  C   UNL     1       0.521   3.248  20.118  0.00  0.00    +0.000 C 
ENDBRANCH   8  10
ENDBRANCH   2   8
ENDBRANCH   1   5
BRANCH   1  11
ATOM     11  C   UNL     1       5.600   4.337  15.122  0.00  0.00    +0.000 C 
ATOM     12  O   UNL     1       4.977   5.312  14.703  0.00  0.00    +0.000 OA
ATOM     13  N   UNL     1       6.158   3.425  14.239  0.00  0.00    +0.000 N 
ATOM     14  H   UNL     1       6.767   2.724  14.648  0.00  0.00    +0.000 HD
BRANCH  13  15
ATOM     15  C   UNL     1       6.180   3.615  12.775  0.00  0.00    +0.000 C 
ATOM     16  C   UNL     1       4.768   3.909  12.239  0.00  0.00    +0.000 C 
ATOM     17  C   UNL     1       7.085   4.816  12.459  0.00  0.00    +0.000 C 
ATOM     18  C   UNL     1       6.765   2.391  12.042  0.00  0.00    +0.000 C 
ENDBRANCH  13  15
ENDBRANCH   1  11
BRANCH   1  19
ATOM     19  N   UNL     1       6.159   5.067  17.492  0.00  0.00    +0.000 N 
ATOM     20  C   UNL     1       7.213   5.841  16.997  0.00  0.00    +0.000 C 
ATOM     21  O   UNL     1       7.675   5.694  15.863  0.00  0.00    +0.000 OA
BRANCH  19  22
ATOM     22  C   UNL     1       5.479   5.438  18.752  0.00  0.00    +0.000 C 
BRANCH  22  23
ATOM     23  C   UNL     1       4.257   6.361  18.737  0.00  0.00    +0.000 C 
BRANCH  23  24
ATOM     24  O   UNL     1       3.273   5.940  19.674  0.00  0.00    +0.000 OA
ATOM     25  C   UNL     1       2.242   6.922  19.781  0.00  0.00    +0.000 C 
ENDBRANCH  23  24
ENDBRANCH  22  23
ENDBRANCH  19  22
BRANCH  20  26
ATOM     26  C   UNL     1       7.880   6.856  17.927  0.00  0.00    +0.000 C 
BRANCH  26  27
ATOM     27  C   UNL     1       7.608   8.287  17.484  0.00  0.00    +0.000 C 
BRANCH  27  28
ATOM     28  C   UNL     1       8.459   9.250  18.289  0.00  0.00    +0.000 C 
ATOM     29  O   UNL     1       9.092   8.842  19.259  0.00  0.00    +0.000 OA
ATOM     30  N   UNL     1       8.383  10.541  17.823  0.00  0.00    +0.000 N 
ATOM     31  C   UNL     1       9.089  11.562  18.392  0.00  0.00    +0.000 A 
ATOM     32  N   UNL     1       9.895  11.549  19.421  0.00  0.00    +0.000 NA
ATOM     33  C   UNL     1      10.230  12.845  19.755  0.00  0.00    +0.000 A 
ATOM     34  C   UNL     1       9.673  13.823  18.957  0.00  0.00    +0.000 A 
ATOM     35  S   UNL     1       8.848  13.077  17.646  0.00  0.00    +0.000 S 
ATOM     36  H   UNL     1       7.691  10.796  17.127  0.00  0.00    +0.000 HD
ENDBRANCH  27  28
ENDBRANCH  26  27
ENDBRANCH  20  26
ENDBRANCH   1  19
TORSDOF 12
ENDMDL
