MODEL 1
REMARK VINA RESULT:      -8.5      0.000      0.000
REMARK  Name = 
REMARK  7 active torsions:
REMARK  status: ('A' for Active; 'I' for Inactive)
REMARK    1  A    between atoms: C_2  and  C_3
REMARK    2  A    between atoms: C_6  and  C_7
REMARK    3  A    between atoms: C_7  and  N_8
REMARK    4  A    between atoms: C_11  and  O_12
REMARK    5  A    between atoms: O_12  and  C_13
REMARK    6  A    between atoms: C_16  and  N_17
REMARK    7  A    between atoms: C_18  and  C_20
REMARK                            x       y       z     vdW  Elec       q    Type
REMARK                         _______ _______ _______ _____ _____    ______ ____
ROOT
ATOM      1  O   UNL     1       2.724   6.663  19.294  0.00  0.00    +0.000 OA
ENDROOT
BRANCH   1   2
ATOM      2  C   UNL     1       1.845   7.587  19.807  0.00  0.00    +0.000 A 
ATOM      3  C   UNL     1       1.198   7.420  21.027  0.00  0.00    +0.000 A 
ATOM      4  C   UNL     1       0.398   8.422  21.571  0.00  0.00    +0.000 A 
ATOM      5  C   UNL     1       0.205   9.629  20.908  0.00  0.00    +0.000 A 
ATOM      6  C   UNL     1       0.797   9.797  19.653  0.00  0.00    +0.000 A 
ATOM      7  C   UNL     1       1.616   8.786  19.111  0.00  0.00    +0.000 A 
ATOM      8 CL   UNL     1       2.291   9.049  17.539  0.00  0.00    +0.000 Cl
BRANCH   5   9
ATOM      9  N   UNL     1      -0.577  10.667  21.455  0.00  0.00    +0.000 N 
ATOM     10  C   UNL     1      -0.771  10.934  22.805  0.00  0.00    +0.000 C 
ATOM     11  O   UNL     1      -0.242  10.321  23.731  0.00  0.00    +0.000 OA
ATOM     12  H   UNL     1      -1.008  11.330  20.818  0.00  0.00    +0.000 HD
BRANCH  10  13
ATOM     13  C   UNL     1      -1.656  12.045  23.066  0.00  0.00    +0.000 A 
ATOM     14  C   UNL     1      -1.377  13.385  23.239  0.00  0.00    +0.000 A 
ATOM     15  C   UNL     1      -2.626  14.034  23.458  0.00  0.00    +0.000 A 
ATOM     16  C   UNL     1      -3.574  13.050  23.406  0.00  0.00    +0.000 A 
ATOM     17  O   UNL     1      -3.005  11.837  23.170  0.00  0.00    +0.000 OA
ENDBRANCH  10  13
ENDBRANCH   5   9
ENDBRANCH   1   2
BRANCH   1  21
ATOM     18  N   UNL     1       4.574   3.867  17.955  0.00  0.00    +0.000 NA
ATOM     19  C   UNL     1       4.679   4.342  19.340  0.00  0.00    +0.000 C 
ATOM     20  C   UNL     1       3.333   4.367  20.044  0.00  0.00    +0.000 C 
ATOM     21  C   UNL     1       2.328   5.277  19.331  0.00  0.00    +0.000 C 
ATOM     22  C   UNL     1       2.200   4.765  17.894  0.00  0.00    +0.000 C 
ATOM     23  C   UNL     1       3.559   4.625  17.195  0.00  0.00    +0.000 C 
BRANCH  18  24
ATOM     24  C   UNL     1       5.887   4.001  17.278  0.00  0.00    +0.000 C 
BRANCH  24  28
ATOM     25  C   UNL     1       7.816   7.821  18.022  0.00  0.00    +0.000 A 
ATOM     26  C   UNL     1       6.844   7.698  17.023  0.00  0.00    +0.000 A 
ATOM     27  C   UNL     1       6.240   6.461  16.769  0.00  0.00    +0.000 A 
ATOM     28  C   UNL     1       6.596   5.326  17.511  0.00  0.00    +0.000 A 
ATOM     29  C   UNL     1       7.578   5.455  18.506  0.00  0.00    +0.000 A 
ATOM     30  C   UNL     1       8.189   6.690  18.757  0.00  0.00    +0.000 A 
BRANCH  25  32
ATOM     31  N   UNL     1       8.923  10.123  18.512  0.00  0.00    +0.000 NA
ATOM     32  C   UNL     1       8.430   9.096  18.288  0.00  0.00    +0.000 C 
ENDBRANCH  25  32
ENDBRANCH  24  28
ENDBRANCH  18  24
ENDBRANCH   1  21
TORSDOF 7
ENDMDL
MODEL 2
REMARK VINA RESULT:      -8.2      0.955      1.358
REMARK  Name = 
REMARK  7 active torsions:
REMARK  status: ('A' for Active; 'I' for Inactive)
REMARK    1  A    between atoms: C_2  and  C_3
REMARK    2  A    between atoms: C_6  and  C_7
REMARK    3  A    between atoms: C_7  and  N_8
REMARK    4  A    between atoms: C_11  and  O_12
REMARK    5  A    between atoms: O_12  and  C_13
REMARK    6  A    between atoms: C_16  and  N_17
REMARK    7  A    between atoms: C_18  and  C_20
REMARK                            x       y       z     vdW  Elec       q    Type
REMARK                         _______ _______ _______ _____ _____    ______ ____
ROOT
ATOM      1  O   UNL     1       2.593   6.865  19.275  0.00  0.00    +0.000 OA
ENDROOT
BRANCH   1   2
ATOM      2  C   UNL     1       1.752   7.758  19.897  0.00  0.00    +0.000 A 
ATOM      3  C   UNL     1       1.241   7.553  21.174  0.00  0.00    +0.000 A 
ATOM      4  C   UNL     1       0.481   8.524  21.820  0.00  0.00    +0.000 A 
ATOM      5  C   UNL     1       0.192   9.738  21.207  0.00  0.00    +0.000 A 
ATOM      6  C   UNL     1       0.645   9.944  19.900  0.00  0.00    +0.000 A 
ATOM      7  C   UNL     1       1.425   8.964  19.254  0.00  0.00    +0.000 A 
ATOM      8 CL   UNL     1       1.925   9.272  17.626  0.00  0.00    +0.000 Cl
BRANCH   5   9
ATOM      9  N   UNL     1      -0.551  10.747  21.854  0.00  0.00    +0.000 N 
ATOM     10  C   UNL     1      -0.165  12.068  22.042  0.00  0.00    +0.000 C 
ATOM     11  O   UNL     1       0.877  12.567  21.621  0.00  0.00    +0.000 OA
ATOM     12  H   UNL     1      -1.487  10.521  22.177  0.00  0.00    +0.000 HD
BRANCH  10  13
ATOM     13  C   UNL     1      -1.121  12.864  22.775  0.00  0.00    +0.000 A 
ATOM     14  C   UNL     1      -2.468  12.661  22.996  0.00  0.00    +0.000 A 
ATOM     15  C   UNL     1      -2.917  13.754  23.791  0.00  0.00    +0.000 A 
ATOM     16  C   UNL     1      -1.820  14.544  23.997  0.00  0.00    +0.000 A 
ATOM     17  O   UNL     1      -0.722  14.022  23.388  0.00  0.00    +0.000 OA
ENDBRANCH  10  13
ENDBRANCH   5   9
ENDBRANCH   1   2
BRANCH   1  21
ATOM     18  N   UNL     1       4.595   4.099  18.104  0.00  0.00    +0.000 NA
ATOM     19  C   UNL     1       4.628   4.622  19.475  0.00  0.00    +0.000 C 
ATOM     20  C   UNL     1       3.255   4.620  20.126  0.00  0.00    +0.000 C 
ATOM     21  C   UNL     1       2.246   5.467  19.345  0.00  0.00    +0.000 C 
ATOM     22  C   UNL     1       2.194   4.905  17.922  0.00  0.00    +0.000 C 
ATOM     23  C   UNL     1       3.584   4.793  17.280  0.00  0.00    +0.000 C 
BRANCH  18  24
ATOM     24  C   UNL     1       5.928   4.260  17.473  0.00  0.00    +0.000 C 
BRANCH  24  28
ATOM     25  C   UNL     1       7.889   8.097  18.022  0.00  0.00    +0.000 A 
ATOM     26  C   UNL     1       8.284   6.983  18.770  0.00  0.00    +0.000 A 
ATOM     27  C   UNL     1       7.636   5.753  18.609  0.00  0.00    +0.000 A 
ATOM     28  C   UNL     1       6.582   5.614  17.695  0.00  0.00    +0.000 A 
ATOM     29  C   UNL     1       6.184   6.739  16.954  0.00  0.00    +0.000 A 
ATOM     30  C   UNL     1       6.827   7.972  17.119  0.00  0.00    +0.000 A 
BRANCH  25  32
ATOM     31  N   UNL     1       9.097  10.382  18.310  0.00  0.00    +0.000 NA
ATOM     32  C   UNL     1       8.562   9.360  18.183  0.00  0.00    +0.000 C 
ENDBRANCH  25  32
ENDBRANCH  24  28
ENDBRANCH  18  24
ENDBRANCH   1  21
TORSDOF 7
ENDMDL
MODEL 3
REMARK VINA RESULT:      -8.2      1.088      1.130
REMARK  Name = 
REMARK  7 active torsions:
REMARK  status: ('A' for Active; 'I' for Inactive)
REMARK    1  A    between atoms: C_2  and  C_3
REMARK    2  A    between atoms: C_6  and  C_7
REMARK    3  A    between atoms: C_7  and  N_8
REMARK    4  A    between atoms: C_11  and  O_12
REMARK    5  A    between atoms: O_12  and  C_13
REMARK    6  A    between atoms: C_16  and  N_17
REMARK    7  A    between atoms: C_18  and  C_20
REMARK                            x       y       z     vdW  Elec       q    Type
REMARK                         _______ _______ _______ _____ _____    ______ ____
ROOT
ATOM      1  O   UNL     1       2.708   6.738  19.623  0.00  0.00    +0.000 OA
ENDROOT
BRANCH   1   2
ATOM      2  C   UNL     1       1.854   7.742  20.015  0.00  0.00    +0.000 A 
ATOM      3  C   UNL     1       1.273   7.791  21.277  0.00  0.00    +0.000 A 
ATOM      4  C   UNL     1       0.499   8.876  21.683  0.00  0.00    +0.000 A 
ATOM      5  C   UNL     1       0.268   9.953  20.833  0.00  0.00    +0.000 A 
ATOM      6  C   UNL     1       0.793   9.899  19.539  0.00  0.00    +0.000 A 
ATOM      7  C   UNL     1       1.586   8.805  19.136  0.00  0.00    +0.000 A 
ATOM      8 CL   UNL     1       2.177   8.791  17.510  0.00  0.00    +0.000 Cl
BRANCH   5   9
ATOM      9  N   UNL     1      -0.487  11.074  21.234  0.00  0.00    +0.000 N 
ATOM     10  C   UNL     1       0.008  12.328  21.569  0.00  0.00    +0.000 C 
ATOM     11  O   UNL     1       1.191  12.659  21.518  0.00  0.00    +0.000 OA
ATOM     12  H   UNL     1      -1.499  10.996  21.234  0.00  0.00    +0.000 HD
BRANCH  10  13
ATOM     13  C   UNL     1      -1.005  13.273  21.977  0.00  0.00    +0.000 A 
ATOM     14  C   UNL     1      -1.373  13.699  23.237  0.00  0.00    +0.000 A 
ATOM     15  C   UNL     1      -2.421  14.645  23.055  0.00  0.00    +0.000 A 
ATOM     16  C   UNL     1      -2.621  14.729  21.705  0.00  0.00    +0.000 A 
ATOM     17  O   UNL     1      -1.773  13.904  21.034  0.00  0.00    +0.000 OA
ENDBRANCH  10  13
ENDBRANCH   5   9
ENDBRANCH   1   2
BRANCH   1  21
ATOM     18  N   UNL     1       4.271   3.869  18.089  0.00  0.00    +0.000 NA
ATOM     19  C   UNL     1       4.431   4.243  19.498  0.00  0.00    +0.000 C 
ATOM     20  C   UNL     1       3.098   4.352  20.220  0.00  0.00    +0.000 C 
ATOM     21  C   UNL     1       2.180   5.397  19.579  0.00  0.00    +0.000 C 
ATOM     22  C   UNL     1       1.994   4.992  18.114  0.00  0.00    +0.000 C 
ATOM     23  C   UNL     1       3.328   4.767  17.390  0.00  0.00    +0.000 C 
BRANCH  18  24
ATOM     24  C   UNL     1       5.586   3.919  17.404  0.00  0.00    +0.000 C 
BRANCH  24  28
ATOM     25  C   UNL     1       7.648   7.706  17.931  0.00  0.00    +0.000 A 
ATOM     26  C   UNL     1       6.598   7.590  17.014  0.00  0.00    +0.000 A 
ATOM     27  C   UNL     1       5.949   6.363  16.829  0.00  0.00    +0.000 A 
ATOM     28  C   UNL     1       6.338   5.231  17.558  0.00  0.00    +0.000 A 
ATOM     29  C   UNL     1       7.400   5.353  18.470  0.00  0.00    +0.000 A 
ATOM     30  C   UNL     1       8.054   6.577  18.652  0.00  0.00    +0.000 A 
BRANCH  25  32
ATOM     31  N   UNL     1       8.835   9.994  18.279  0.00  0.00    +0.000 NA
ATOM     32  C   UNL     1       8.308   8.970  18.127  0.00  0.00    +0.000 C 
ENDBRANCH  25  32
ENDBRANCH  24  28
ENDBRANCH  18  24
ENDBRANCH   1  21
TORSDOF 7
ENDMDL
MODEL 4
REMARK VINA RESULT:      -8.1      1.653      1.961
REMARK  Name = 
REMARK  7 active torsions:
REMARK  status: ('A' for Active; 'I' for Inactive)
REMARK    1  A    between atoms: C_2  and  C_3
REMARK    2  A    between atoms: C_6  and  C_7
REMARK    3  A    between atoms: C_7  and  N_8
REMARK    4  A    between atoms: C_11  and  O_12
REMARK    5  A    between atoms: O_12  and  C_13
REMARK    6  A    between atoms: C_16  and  N_17
REMARK    7  A    between atoms: C_18  and  C_20
REMARK                            x       y       z     vdW  Elec       q    Type
REMARK                         _______ _______ _______ _____ _____    ______ ____
ROOT
ATOM      1  O   UNL     1       2.695   6.411  19.962  0.00  0.00    +0.000 OA
ENDROOT
BRANCH   1   2
ATOM      2  C   UNL     1       1.828   7.466  20.118  0.00  0.00    +0.000 A 
ATOM      3  C   UNL     1       0.985   7.597  21.216  0.00  0.00    +0.000 A 
ATOM      4  C   UNL     1       0.197   8.731  21.400  0.00  0.00    +0.000 A 
ATOM      5  C   UNL     1       0.214   9.776  20.482  0.00  0.00    +0.000 A 
ATOM      6  C   UNL     1       1.009   9.641  19.340  0.00  0.00    +0.000 A 
ATOM      7  C   UNL     1       1.815   8.498  19.164  0.00  0.00    +0.000 A 
ATOM      8 CL   UNL     1       2.750   8.384  17.712  0.00  0.00    +0.000 Cl
BRANCH   5   9
ATOM      9  N   UNL     1      -0.553  10.945  20.664  0.00  0.00    +0.000 N 
ATOM     10  C   UNL     1      -1.534  11.432  19.810  0.00  0.00    +0.000 C 
ATOM     11  O   UNL     1      -1.914  10.879  18.779  0.00  0.00    +0.000 OA
ATOM     12  H   UNL     1      -0.430  11.470  21.524  0.00  0.00    +0.000 HD
BRANCH  10  13
ATOM     13  C   UNL     1      -2.129  12.676  20.241  0.00  0.00    +0.000 A 
ATOM     14  C   UNL     1      -3.421  12.959  20.632  0.00  0.00    +0.000 A 
ATOM     15  C   UNL     1      -3.451  14.343  20.962  0.00  0.00    +0.000 A 
ATOM     16  C   UNL     1      -2.182  14.807  20.749  0.00  0.00    +0.000 A 
ATOM     17  O   UNL     1      -1.366  13.811  20.311  0.00  0.00    +0.000 OA
ENDBRANCH  10  13
ENDBRANCH   5   9
ENDBRANCH   1   2
BRANCH   1  21
ATOM     18  N   UNL     1       4.208   3.799  17.982  0.00  0.00    +0.000 NA
ATOM     19  C   UNL     1       4.337   3.912  19.439  0.00  0.00    +0.000 C 
ATOM     20  C   UNL     1       2.986   3.943  20.136  0.00  0.00    +0.000 C 
ATOM     21  C   UNL     1       2.124   5.120  19.668  0.00  0.00    +0.000 C 
ATOM     22  C   UNL     1       1.970   4.987  18.150  0.00  0.00    +0.000 C 
ATOM     23  C   UNL     1       3.318   4.843  17.431  0.00  0.00    +0.000 C 
BRANCH  18  24
ATOM     24  C   UNL     1       5.545   3.919  17.350  0.00  0.00    +0.000 C 
BRANCH  24  28
ATOM     25  C   UNL     1       7.639   7.681  17.925  0.00  0.00    +0.000 A 
ATOM     26  C   UNL     1       7.984   6.553  18.677  0.00  0.00    +0.000 A 
ATOM     27  C   UNL     1       7.292   5.347  18.507  0.00  0.00    +0.000 A 
ATOM     28  C   UNL     1       6.246   5.248  17.580  0.00  0.00    +0.000 A 
ATOM     29  C   UNL     1       5.899   6.387  16.835  0.00  0.00    +0.000 A 
ATOM     30  C   UNL     1       6.584   7.595  17.008  0.00  0.00    +0.000 A 
BRANCH  25  32
ATOM     31  N   UNL     1       8.927   9.919  18.235  0.00  0.00    +0.000 NA
ATOM     32  C   UNL     1       8.356   8.918  18.095  0.00  0.00    +0.000 C 
ENDBRANCH  25  32
ENDBRANCH  24  28
ENDBRANCH  18  24
ENDBRANCH   1  21
TORSDOF 7
ENDMDL
MODEL 5
REMARK VINA RESULT:      -8.1      2.278      2.709
REMARK  Name = 
REMARK  7 active torsions:
REMARK  status: ('A' for Active; 'I' for Inactive)
REMARK    1  A    between atoms: C_2  and  C_3
REMARK    2  A    between atoms: C_6  and  C_7
REMARK    3  A    between atoms: C_7  and  N_8
REMARK    4  A    between atoms: C_11  and  O_12
REMARK    5  A    between atoms: O_12  and  C_13
REMARK    6  A    between atoms: C_16  and  N_17
REMARK    7  A    between atoms: C_18  and  C_20
REMARK                            x       y       z     vdW  Elec       q    Type
REMARK                         _______ _______ _______ _____ _____    ______ ____
ROOT
ATOM      1  O   UNL     1       2.261   5.769  20.758  0.00  0.00    +0.000 OA
ENDROOT
BRANCH   1   2
ATOM      2  C   UNL     1       1.697   7.004  20.540  0.00  0.00    +0.000 A 
ATOM      3  C   UNL     1       0.807   7.597  21.429  0.00  0.00    +0.000 A 
ATOM      4  C   UNL     1       0.337   8.894  21.234  0.00  0.00    +0.000 A 
ATOM      5  C   UNL     1       0.734   9.645  20.134  0.00  0.00    +0.000 A 
ATOM      6  C   UNL     1       1.582   9.050  19.196  0.00  0.00    +0.000 A 
ATOM      7  C   UNL     1       2.065   7.741  19.402  0.00  0.00    +0.000 A 
ATOM      8 CL   UNL     1       3.087   7.056  18.185  0.00  0.00    +0.000 Cl
BRANCH   5   9
ATOM      9  N   UNL     1       0.294  10.970  19.934  0.00  0.00    +0.000 N 
ATOM     10  C   UNL     1       0.797  12.111  20.547  0.00  0.00    +0.000 C 
ATOM     11  O   UNL     1       1.746  12.134  21.329  0.00  0.00    +0.000 OA
ATOM     12  H   UNL     1      -0.426  11.137  19.238  0.00  0.00    +0.000 HD
BRANCH  10  13
ATOM     13  C   UNL     1       0.121  13.330  20.171  0.00  0.00    +0.000 A 
ATOM     14  C   UNL     1      -0.833  14.065  20.844  0.00  0.00    +0.000 A 
ATOM     15  C   UNL     1      -1.144  15.181  20.016  0.00  0.00    +0.000 A 
ATOM     16  C   UNL     1      -0.363  15.050  18.901  0.00  0.00    +0.000 A 
ATOM     17  O   UNL     1       0.410  13.933  18.976  0.00  0.00    +0.000 OA
ENDBRANCH  10  13
ENDBRANCH   5   9
ENDBRANCH   1   2
BRANCH   1  21
ATOM     18  N   UNL     1       2.693   2.711  18.890  0.00  0.00    +0.000 NA
ATOM     19  C   UNL     1       3.173   2.917  20.261  0.00  0.00    +0.000 C 
ATOM     20  C   UNL     1       2.056   3.328  21.207  0.00  0.00    +0.000 C 
ATOM     21  C   UNL     1       1.378   4.628  20.767  0.00  0.00    +0.000 C 
ATOM     22  C   UNL     1       0.856   4.403  19.345  0.00  0.00    +0.000 C 
ATOM     23  C   UNL     1       1.941   3.882  18.393  0.00  0.00    +0.000 C 
BRANCH  18  24
ATOM     24  C   UNL     1       3.843   2.455  17.989  0.00  0.00    +0.000 C 
BRANCH  24  28
ATOM     25  C   UNL     1       6.413   5.915  17.444  0.00  0.00    +0.000 A 
ATOM     26  C   UNL     1       5.725   5.363  16.359  0.00  0.00    +0.000 A 
ATOM     27  C   UNL     1       4.915   4.234  16.532  0.00  0.00    +0.000 A 
ATOM     28  C   UNL     1       4.778   3.638  17.793  0.00  0.00    +0.000 A 
ATOM     29  C   UNL     1       5.479   4.192  18.876  0.00  0.00    +0.000 A 
ATOM     30  C   UNL     1       6.295   5.317  18.704  0.00  0.00    +0.000 A 
BRANCH  25  32
ATOM     31  N   UNL     1       7.908   8.020  17.133  0.00  0.00    +0.000 NA
ATOM     32  C   UNL     1       7.239   7.081  17.267  0.00  0.00    +0.000 C 
ENDBRANCH  25  32
ENDBRANCH  24  28
ENDBRANCH  18  24
ENDBRANCH   1  21
TORSDOF 7
ENDMDL
MODEL 6
REMARK VINA RESULT:      -7.8      2.077      2.441
REMARK  Name = 
REMARK  7 active torsions:
REMARK  status: ('A' for Active; 'I' for Inactive)
REMARK    1  A    between atoms: C_2  and  C_3
REMARK    2  A    between atoms: C_6  and  C_7
REMARK    3  A    between atoms: C_7  and  N_8
REMARK    4  A    between atoms: C_11  and  O_12
REMARK    5  A    between atoms: O_12  and  C_13
REMARK    6  A    between atoms: C_16  and  N_17
REMARK    7  A    between atoms: C_18  and  C_20
REMARK                            x       y       z     vdW  Elec       q    Type
REMARK                         _______ _______ _______ _____ _____    ______ ____
ROOT
ATOM      1  O   UNL     1       2.208   5.758  20.566  0.00  0.00    +0.000 OA
ENDROOT
BRANCH   1   2
ATOM      2  C   UNL     1       1.597   6.990  20.540  0.00  0.00    +0.000 A 
ATOM      3  C   UNL     1       0.699   7.409  21.516  0.00  0.00    +0.000 A 
ATOM      4  C   UNL     1       0.180   8.701  21.522  0.00  0.00    +0.000 A 
ATOM      5  C   UNL     1       0.531   9.623  20.542  0.00  0.00    +0.000 A 
ATOM      6  C   UNL     1       1.386   9.206  19.517  0.00  0.00    +0.000 A 
ATOM      7  C   UNL     1       1.920   7.901  19.521  0.00  0.00    +0.000 A 
ATOM      8 CL   UNL     1       2.946   7.444  18.205  0.00  0.00    +0.000 Cl
BRANCH   5   9
ATOM      9  N   UNL     1       0.040  10.945  20.546  0.00  0.00    +0.000 N 
ATOM     10  C   UNL     1      -1.037  11.429  19.816  0.00  0.00    +0.000 C 
ATOM     11  O   UNL     1      -1.759  10.753  19.085  0.00  0.00    +0.000 OA
ATOM     12  H   UNL     1       0.469  11.614  21.179  0.00  0.00    +0.000 HD
BRANCH  10  13
ATOM     13  C   UNL     1      -1.286  12.841  19.997  0.00  0.00    +0.000 A 
ATOM     14  C   UNL     1      -2.372  13.493  20.544  0.00  0.00    +0.000 A 
ATOM     15  C   UNL     1      -2.085  14.886  20.478  0.00  0.00    +0.000 A 
ATOM     16  C   UNL     1      -0.851  14.987  19.897  0.00  0.00    +0.000 A 
ATOM     17  O   UNL     1      -0.351  13.758  19.597  0.00  0.00    +0.000 OA
ENDBRANCH  10  13
ENDBRANCH   5   9
ENDBRANCH   1   2
BRANCH   1  21
ATOM     18  N   UNL     1       2.869   2.819  18.578  0.00  0.00    +0.000 NA
ATOM     19  C   UNL     1       3.244   2.964  19.989  0.00  0.00    +0.000 C 
ATOM     20  C   UNL     1       2.050   3.291  20.872  0.00  0.00    +0.000 C 
ATOM     21  C   UNL     1       1.364   4.595  20.451  0.00  0.00    +0.000 C 
ATOM     22  C   UNL     1       0.951   4.432  18.986  0.00  0.00    +0.000 C 
ATOM     23  C   UNL     1       2.117   3.994  18.090  0.00  0.00    +0.000 C 
BRANCH  18  24
ATOM     24  C   UNL     1       4.087   2.645  17.750  0.00  0.00    +0.000 C 
BRANCH  24  28
ATOM     25  C   UNL     1       6.515   6.237  17.485  0.00  0.00    +0.000 A 
ATOM     26  C   UNL     1       5.796   5.781  16.375  0.00  0.00    +0.000 A 
ATOM     27  C   UNL     1       5.033   4.610  16.455  0.00  0.00    +0.000 A 
ATOM     28  C   UNL     1       4.972   3.876  17.647  0.00  0.00    +0.000 A 
ATOM     29  C   UNL     1       5.704   4.335  18.755  0.00  0.00    +0.000 A 
ATOM     30  C   UNL     1       6.474   5.502  18.675  0.00  0.00    +0.000 A 
BRANCH  25  32
ATOM     31  N   UNL     1       7.926   8.416  17.331  0.00  0.00    +0.000 NA
ATOM     32  C   UNL     1       7.293   7.446  17.403  0.00  0.00    +0.000 C 
ENDBRANCH  25  32
ENDBRANCH  24  28
ENDBRANCH  18  24
ENDBRANCH   1  21
TORSDOF 7
ENDMDL
MODEL 7
REMARK VINA RESULT:      -7.7      2.350      3.007
REMARK  Name = 
REMARK  7 active torsions:
REMARK  status: ('A' for Active; 'I' for Inactive)
REMARK    1  A    between atoms: C_2  and  C_3
REMARK    2  A    between atoms: C_6  and  C_7
REMARK    3  A    between atoms: C_7  and  N_8
REMARK    4  A    between atoms: C_11  and  O_12
REMARK    5  A    between atoms: O_12  and  C_13
REMARK    6  A    between atoms: C_16  and  N_17
REMARK    7  A    between atoms: C_18  and  C_20
REMARK                            x       y       z     vdW  Elec       q    Type
REMARK                         _______ _______ _______ _____ _____    ______ ____
ROOT
ATOM      1  O   UNL     1       2.134   5.494  20.839  0.00  0.00    +0.000 OA
ENDROOT
BRANCH   1   2
ATOM      2  C   UNL     1       1.648   6.767  20.655  0.00  0.00    +0.000 A 
ATOM      3  C   UNL     1       0.764   7.374  21.541  0.00  0.00    +0.000 A 
ATOM      4  C   UNL     1       0.374   8.703  21.386  0.00  0.00    +0.000 A 
ATOM      5  C   UNL     1       0.847   9.473  20.330  0.00  0.00    +0.000 A 
ATOM      6  C   UNL     1       1.690   8.867  19.394  0.00  0.00    +0.000 A 
ATOM      7  C   UNL     1       2.093   7.526  19.560  0.00  0.00    +0.000 A 
ATOM      8 CL   UNL     1       3.112   6.832  18.346  0.00  0.00    +0.000 Cl
BRANCH   5   9
ATOM      9  N   UNL     1       0.489  10.828  20.172  0.00  0.00    +0.000 N 
ATOM     10  C   UNL     1      -0.694  11.313  19.629  0.00  0.00    +0.000 C 
ATOM     11  O   UNL     1      -1.634  10.619  19.245  0.00  0.00    +0.000 OA
ATOM     12  H   UNL     1       1.121  11.536  20.532  0.00  0.00    +0.000 HD
BRANCH  10  13
ATOM     13  C   UNL     1      -0.766  12.754  19.563  0.00  0.00    +0.000 A 
ATOM     14  C   UNL     1      -0.039  13.650  18.807  0.00  0.00    +0.000 A 
ATOM     15  C   UNL     1      -0.530  14.946  19.130  0.00  0.00    +0.000 A 
ATOM     16  C   UNL     1      -1.518  14.753  20.056  0.00  0.00    +0.000 A 
ATOM     17  O   UNL     1      -1.675  13.430  20.332  0.00  0.00    +0.000 OA
ENDBRANCH  10  13
ENDBRANCH   5   9
ENDBRANCH   1   2
BRANCH   1  21
ATOM     18  N   UNL     1       2.374   2.480  18.867  0.00  0.00    +0.000 NA
ATOM     19  C   UNL     1       2.869   2.610  20.242  0.00  0.00    +0.000 C 
ATOM     20  C   UNL     1       1.781   3.056  21.206  0.00  0.00    +0.000 C 
ATOM     21  C   UNL     1       1.183   4.410  20.813  0.00  0.00    +0.000 C 
ATOM     22  C   UNL     1       0.644   4.265  19.387  0.00  0.00    +0.000 C 
ATOM     23  C   UNL     1       1.694   3.711  18.413  0.00  0.00    +0.000 C 
BRANCH  18  24
ATOM     24  C   UNL     1       3.504   2.186  17.952  0.00  0.00    +0.000 C 
BRANCH  24  28
ATOM     25  C   UNL     1       6.269   5.447  17.188  0.00  0.00    +0.000 A 
ATOM     26  C   UNL     1       6.136   4.915  18.474  0.00  0.00    +0.000 A 
ATOM     27  C   UNL     1       5.227   3.879  18.724  0.00  0.00    +0.000 A 
ATOM     28  C   UNL     1       4.438   3.356  17.691  0.00  0.00    +0.000 A 
ATOM     29  C   UNL     1       4.571   3.902  16.403  0.00  0.00    +0.000 A 
ATOM     30  C   UNL     1       5.473   4.942  16.153  0.00  0.00    +0.000 A 
BRANCH  25  32
ATOM     31  N   UNL     1       7.974   7.357  16.730  0.00  0.00    +0.000 NA
ATOM     32  C   UNL     1       7.210   6.506  16.930  0.00  0.00    +0.000 C 
ENDBRANCH  25  32
ENDBRANCH  24  28
ENDBRANCH  18  24
ENDBRANCH   1  21
TORSDOF 7
ENDMDL
MODEL 8
REMARK VINA RESULT:      -7.7      3.343     10.984
REMARK  Name = 
REMARK  7 active torsions:
REMARK  status: ('A' for Active; 'I' for Inactive)
REMARK    1  A    between atoms: C_2  and  C_3
REMARK    2  A    between atoms: C_6  and  C_7
REMARK    3  A    between atoms: C_7  and  N_8
REMARK    4  A    between atoms: C_11  and  O_12
REMARK    5  A    between atoms: O_12  and  C_13
REMARK    6  A    between atoms: C_16  and  N_17
REMARK    7  A    between atoms: C_18  and  C_20
REMARK                            x       y       z     vdW  Elec       q    Type
REMARK                         _______ _______ _______ _____ _____    ______ ____
ROOT
ATOM      1  O   UNL     1       1.162  10.949  19.630  0.00  0.00    +0.000 OA
ENDROOT
BRANCH   1   2
ATOM      2  C   UNL     1       1.416   9.606  19.475  0.00  0.00    +0.000 A 
ATOM      3  C   UNL     1       1.823   9.048  18.268  0.00  0.00    +0.000 A 
ATOM      4  C   UNL     1       2.177   7.704  18.169  0.00  0.00    +0.000 A 
ATOM      5  C   UNL     1       2.128   6.863  19.275  0.00  0.00    +0.000 A 
ATOM      6  C   UNL     1       1.667   7.388  20.486  0.00  0.00    +0.000 A 
ATOM      7  C   UNL     1       1.320   8.751  20.586  0.00  0.00    +0.000 A 
ATOM      8 CL   UNL     1       0.727   9.325  22.107  0.00  0.00    +0.000 Cl
BRANCH   5   9
ATOM      9  N   UNL     1       2.511   5.508  19.203  0.00  0.00    +0.000 N 
ATOM     10  C   UNL     1       3.810   5.017  19.145  0.00  0.00    +0.000 C 
ATOM     11  O   UNL     1       4.829   5.703  19.196  0.00  0.00    +0.000 OA
ATOM     12  H   UNL     1       1.784   4.801  19.250  0.00  0.00    +0.000 HD
BRANCH  10  13
ATOM     13  C   UNL     1       3.893   3.579  19.041  0.00  0.00    +0.000 A 
ATOM     14  C   UNL     1       3.269   2.710  18.169  0.00  0.00    +0.000 A 
ATOM     15  C   UNL     1       3.719   1.402  18.509  0.00  0.00    +0.000 A 
ATOM     16  C   UNL     1       4.580   1.563  19.559  0.00  0.00    +0.000 A 
ATOM     17  O   UNL     1       4.698   2.876  19.897  0.00  0.00    +0.000 OA
ENDBRANCH  10  13
ENDBRANCH   5   9
ENDBRANCH   1   2
BRANCH   1  21
ATOM     18  N   UNL     1      -1.343  13.418  20.441  0.00  0.00    +0.000 NA
ATOM     19  C   UNL     1       0.014  13.736  19.984  0.00  0.00    +0.000 C 
ATOM     20  C   UNL     1       0.340  13.086  18.649  0.00  0.00    +0.000 C 
ATOM     21  C   UNL     1       0.233  11.559  18.712  0.00  0.00    +0.000 C 
ATOM     22  C   UNL     1      -1.192  11.228  19.165  0.00  0.00    +0.000 C 
ATOM     23  C   UNL     1      -1.586  11.960  20.455  0.00  0.00    +0.000 C 
BRANCH  18  24
ATOM     24  C   UNL     1      -1.552  13.957  21.807  0.00  0.00    +0.000 C 
BRANCH  24  28
ATOM     25  C   UNL     1      -5.539  13.518  23.475  0.00  0.00    +0.000 A 
ATOM     26  C   UNL     1      -4.452  12.845  24.044  0.00  0.00    +0.000 A 
ATOM     27  C   UNL     1      -3.172  12.969  23.491  0.00  0.00    +0.000 A 
ATOM     28  C   UNL     1      -2.955  13.770  22.361  0.00  0.00    +0.000 A 
ATOM     29  C   UNL     1      -4.053  14.435  21.791  0.00  0.00    +0.000 A 
ATOM     30  C   UNL     1      -5.335  14.307  22.338  0.00  0.00    +0.000 A 
BRANCH  25  32
ATOM     31  N   UNL     1      -7.910  13.300  24.521  0.00  0.00    +0.000 NA
ATOM     32  C   UNL     1      -6.854  13.396  24.050  0.00  0.00    +0.000 C 
ENDBRANCH  25  32
ENDBRANCH  24  28
ENDBRANCH  18  24
ENDBRANCH   1  21
TORSDOF 7
ENDMDL
MODEL 9
REMARK VINA RESULT:      -7.6      1.745      2.233
REMARK  Name = 
REMARK  7 active torsions:
REMARK  status: ('A' for Active; 'I' for Inactive)
REMARK    1  A    between atoms: C_2  and  C_3
REMARK    2  A    between atoms: C_6  and  C_7
REMARK    3  A    between atoms: C_7  and  N_8
REMARK    4  A    between atoms: C_11  and  O_12
REMARK    5  A    between atoms: O_12  and  C_13
REMARK    6  A    between atoms: C_16  and  N_17
REMARK    7  A    between atoms: C_18  and  C_20
REMARK                            x       y       z     vdW  Elec       q    Type
REMARK                         _______ _______ _______ _____ _____    ______ ____
ROOT
ATOM      1  O   UNL     1       2.197   5.795  20.755  0.00  0.00    +0.000 OA
ENDROOT
BRANCH   1   2
ATOM      2  C   UNL     1       1.535   6.996  20.654  0.00  0.00    +0.000 A 
ATOM      3  C   UNL     1       0.560   7.401  21.559  0.00  0.00    +0.000 A 
ATOM      4  C   UNL     1      -0.014   8.668  21.492  0.00  0.00    +0.000 A 
ATOM      5  C   UNL     1       0.358   9.577  20.508  0.00  0.00    +0.000 A 
ATOM      6  C   UNL     1       1.293   9.171  19.551  0.00  0.00    +0.000 A 
ATOM      7  C   UNL     1       1.882   7.892  19.629  0.00  0.00    +0.000 A 
ATOM      8 CL   UNL     1       3.009   7.445  18.394  0.00  0.00    +0.000 Cl
BRANCH   5   9
ATOM      9  N   UNL     1      -0.190  10.875  20.441  0.00  0.00    +0.000 N 
ATOM     10  C   UNL     1      -0.412  11.735  21.508  0.00  0.00    +0.000 C 
ATOM     11  O   UNL     1      -0.114  11.503  22.679  0.00  0.00    +0.000 OA
ATOM     12  H   UNL     1      -0.401  11.259  19.525  0.00  0.00    +0.000 HD
BRANCH  10  13
ATOM     13  C   UNL     1      -1.021  12.991  21.137  0.00  0.00    +0.000 A 
ATOM     14  C   UNL     1      -2.244  13.526  21.484  0.00  0.00    +0.000 A 
ATOM     15  C   UNL     1      -2.328  14.795  20.843  0.00  0.00    +0.000 A 
ATOM     16  C   UNL     1      -1.157  14.945  20.153  0.00  0.00    +0.000 A 
ATOM     17  O   UNL     1      -0.351  13.861  20.318  0.00  0.00    +0.000 OA
ENDBRANCH  10  13
ENDBRANCH   5   9
ENDBRANCH   1   2
BRANCH   1  21
ATOM     18  N   UNL     1       2.903   2.938  18.665  0.00  0.00    +0.000 NA
ATOM     19  C   UNL     1       3.343   3.072  20.058  0.00  0.00    +0.000 C 
ATOM     20  C   UNL     1       2.182   3.317  21.008  0.00  0.00    +0.000 C 
ATOM     21  C   UNL     1       1.409   4.591  20.655  0.00  0.00    +0.000 C 
ATOM     22  C   UNL     1       0.929   4.439  19.210  0.00  0.00    +0.000 C 
ATOM     23  C   UNL     1       2.067   4.082  18.244  0.00  0.00    +0.000 C 
BRANCH  18  24
ATOM     24  C   UNL     1       4.084   2.846  17.772  0.00  0.00    +0.000 C 
BRANCH  24  28
ATOM     25  C   UNL     1       6.576   6.392  17.488  0.00  0.00    +0.000 A 
ATOM     26  C   UNL     1       6.531   5.647  18.671  0.00  0.00    +0.000 A 
ATOM     27  C   UNL     1       5.710   4.518  18.769  0.00  0.00    +0.000 A 
ATOM     28  C   UNL     1       4.920   4.112  17.685  0.00  0.00    +0.000 A 
ATOM     29  C   UNL     1       4.964   4.870  16.503  0.00  0.00    +0.000 A 
ATOM     30  C   UNL     1       5.779   6.004  16.405  0.00  0.00    +0.000 A 
BRANCH  25  32
ATOM     31  N   UNL     1       8.114   8.480  17.295  0.00  0.00    +0.000 NA
ATOM     32  C   UNL     1       7.428   7.549  17.386  0.00  0.00    +0.000 C 
ENDBRANCH  25  32
ENDBRANCH  24  28
ENDBRANCH  18  24
ENDBRANCH   1  21
TORSDOF 7
ENDMDL
