MODEL 1
REMARK VINA RESULT:      -8.5      0.000      0.000
REMARK  Name = 
REMARK  10 active torsions:
REMARK  status: ('A' for Active; 'I' for Inactive)
REMARK    1  A    between atoms: C_1  and  C_2
REMARK    2  A    between atoms: C_2  and  C_3
REMARK    3  A    between atoms: C_2  and  C_4
REMARK    4  A    between atoms: C_7  and  C_8
REMARK    5  A    between atoms: C_9  and  C_10
REMARK    6  A    between atoms: N_12  and  C_13
REMARK    7  A    between atoms: C_13  and  N_15
REMARK    8  A    between atoms: N_15  and  C_16
REMARK    9  A    between atoms: C_19  and  C_20
REMARK   10  A    between atoms: C_20  and  N_21
REMARK                            x       y       z     vdW  Elec       q    Type
REMARK                         _______ _______ _______ _____ _____    ______ ____
ROOT
ATOM      1  C   UNL     1       6.512   6.293  16.238  0.00  0.00    +0.000 C 
ATOM      2  S   UNL     1       7.091   4.778  15.849  0.00  0.00    +0.000 S 
ENDROOT
BRANCH   1   5
ATOM      3  C   UNL     1       7.836   7.639  17.866  0.00  0.00    +0.000 C 
ATOM      4  O   UNL     1       7.980   6.829  18.762  0.00  0.00    +0.000 OA
ATOM      5  N   UNL     1       7.238   7.398  16.647  0.00  0.00    +0.000 N 
ATOM      6  H   UNL     1       7.301   8.110  15.939  0.00  0.00    +0.000 HD
BRANCH   3   8
ATOM      7  C   UNL     1       8.994   9.362  19.109  0.00  0.00    +0.000 C 
ATOM      8  C   UNL     1       8.398   9.020  17.952  0.00  0.00    +0.000 C 
BRANCH   7  12
ATOM      9  C   UNL     1      10.597  13.263  19.907  0.00  0.00    +0.000 A 
ATOM     10  C   UNL     1      10.486  12.765  18.601  0.00  0.00    +0.000 A 
ATOM     11  C   UNL     1       9.968  11.489  18.367  0.00  0.00    +0.000 A 
ATOM     12  C   UNL     1       9.565  10.672  19.431  0.00  0.00    +0.000 A 
ATOM     13  C   UNL     1       9.667  11.166  20.733  0.00  0.00    +0.000 A 
ATOM     14  C   UNL     1      10.178  12.444  20.969  0.00  0.00    +0.000 A 
BRANCH   9  16
ATOM     15  C   UNL     1      10.979  15.465  18.812  0.00  0.00    +0.000 C 
ATOM     16  C   UNL     1      11.077  14.687  20.126  0.00  0.00    +0.000 C 
ATOM     17  C   UNL     1      10.330  15.432  21.237  0.00  0.00    +0.000 C 
ENDBRANCH   9  16
ENDBRANCH   7  12
ENDBRANCH   3   8
ENDBRANCH   1   5
BRANCH   1  18
ATOM     18  N   UNL     1       5.153   6.514  16.278  0.00  0.00    +0.000 N 
ATOM     19  H   UNL     1       4.759   7.004  15.483  0.00  0.00    +0.000 HD
BRANCH  18  20
ATOM     20  C   UNL     1       4.326   6.367  17.416  0.00  0.00    +0.000 A 
ATOM     21  C   UNL     1       3.074   6.990  17.536  0.00  0.00    +0.000 A 
ATOM     22  C   UNL     1       2.265   6.750  18.651  0.00  0.00    +0.000 A 
ATOM     23  C   UNL     1       2.691   5.881  19.663  0.00  0.00    +0.000 A 
ATOM     24  C   UNL     1       3.978   5.331  19.570  0.00  0.00    +0.000 A 
ATOM     25  C   UNL     1       4.767   5.536  18.437  0.00  0.00    +0.000 A 
BRANCH  23  26
ATOM     26  C   UNL     1       1.810   5.537  20.841  0.00  0.00    +0.000 C 
BRANCH  26  27
ATOM     27  N   UNL     1       1.332   4.161  20.964  0.00  0.00    +0.000 NA
ATOM     28  C   UNL     1       2.190   3.158  21.601  0.00  0.00    +0.000 C 
ATOM     29  C   UNL     1       2.963   2.212  20.655  0.00  0.00    +0.000 C 
ATOM     30  O   UNL     1       2.179   1.735  19.555  0.00  0.00    +0.000 OA
ATOM     31  C   UNL     1       1.526   2.803  18.862  0.00  0.00    +0.000 C 
ATOM     32  C   UNL     1       0.628   3.600  19.812  0.00  0.00    +0.000 C 
ENDBRANCH  26  27
ENDBRANCH  23  26
ENDBRANCH  18  20
ENDBRANCH   1  18
TORSDOF 8
ENDMDL
MODEL 2
REMARK VINA RESULT:      -8.4      2.521      3.476
REMARK  Name = 
REMARK  10 active torsions:
REMARK  status: ('A' for Active; 'I' for Inactive)
REMARK    1  A    between atoms: C_1  and  C_2
REMARK    2  A    between atoms: C_2  and  C_3
REMARK    3  A    between atoms: C_2  and  C_4
REMARK    4  A    between atoms: C_7  and  C_8
REMARK    5  A    between atoms: C_9  and  C_10
REMARK    6  A    between atoms: N_12  and  C_13
REMARK    7  A    between atoms: C_13  and  N_15
REMARK    8  A    between atoms: N_15  and  C_16
REMARK    9  A    between atoms: C_19  and  C_20
REMARK   10  A    between atoms: C_20  and  N_21
REMARK                            x       y       z     vdW  Elec       q    Type
REMARK                         _______ _______ _______ _____ _____    ______ ____
ROOT
ATOM      1  C   UNL     1       6.574   5.707  16.467  0.00  0.00    +0.000 C 
ATOM      2  S   UNL     1       6.616   4.884  15.017  0.00  0.00    +0.000 S 
ENDROOT
BRANCH   1   5
ATOM      3  C   UNL     1       7.801   7.321  17.918  0.00  0.00    +0.000 C 
ATOM      4  O   UNL     1       8.136   6.591  18.832  0.00  0.00    +0.000 OA
ATOM      5  N   UNL     1       7.154   6.928  16.766  0.00  0.00    +0.000 N 
ATOM      6  H   UNL     1       7.054   7.601  16.025  0.00  0.00    +0.000 HD
BRANCH   3   8
ATOM      7  C   UNL     1       8.903   9.229  18.916  0.00  0.00    +0.000 C 
ATOM      8  C   UNL     1       8.153   8.772  17.897  0.00  0.00    +0.000 C 
BRANCH   7  12
ATOM      9  C   UNL     1      10.226  13.245  19.659  0.00  0.00    +0.000 A 
ATOM     10  C   UNL     1      10.036  12.327  20.701  0.00  0.00    +0.000 A 
ATOM     11  C   UNL     1       9.598  11.028  20.435  0.00  0.00    +0.000 A 
ATOM     12  C   UNL     1       9.320  10.618  19.124  0.00  0.00    +0.000 A 
ATOM     13  C   UNL     1       9.514  11.526  18.082  0.00  0.00    +0.000 A 
ATOM     14  C   UNL     1       9.959  12.824  18.345  0.00  0.00    +0.000 A 
BRANCH   9  16
ATOM     15  C   UNL     1      10.234  15.636  18.966  0.00  0.00    +0.000 C 
ATOM     16  C   UNL     1      10.791  14.621  19.967  0.00  0.00    +0.000 C 
ATOM     17  C   UNL     1      10.530  15.094  21.401  0.00  0.00    +0.000 C 
ENDBRANCH   9  16
ENDBRANCH   7  12
ENDBRANCH   3   8
ENDBRANCH   1   5
BRANCH   1  18
ATOM     18  N   UNL     1       6.001   5.115  17.571  0.00  0.00    +0.000 N 
ATOM     19  H   UNL     1       6.345   4.191  17.809  0.00  0.00    +0.000 HD
BRANCH  18  20
ATOM     20  C   UNL     1       4.823   5.550  18.223  0.00  0.00    +0.000 A 
ATOM     21  C   UNL     1       4.384   5.014  19.443  0.00  0.00    +0.000 A 
ATOM     22  C   UNL     1       3.253   5.533  20.081  0.00  0.00    +0.000 A 
ATOM     23  C   UNL     1       2.544   6.598  19.511  0.00  0.00    +0.000 A 
ATOM     24  C   UNL     1       2.945   7.068  18.252  0.00  0.00    +0.000 A 
ATOM     25  C   UNL     1       4.100   6.580  17.638  0.00  0.00    +0.000 A 
BRANCH  23  26
ATOM     26  C   UNL     1       1.365   7.236  20.210  0.00  0.00    +0.000 C 
BRANCH  26  27
ATOM     27  N   UNL     1       1.497   8.621  20.656  0.00  0.00    +0.000 NA
ATOM     28  C   UNL     1       1.321   8.936  22.076  0.00  0.00    +0.000 C 
ATOM     29  C   UNL     1      -0.048   9.522  22.488  0.00  0.00    +0.000 C 
ATOM     30  O   UNL     1      -0.547  10.509  21.578  0.00  0.00    +0.000 OA
ATOM     31  C   UNL     1      -0.524  10.047  20.224  0.00  0.00    +0.000 C 
ATOM     32  C   UNL     1       0.895   9.650  19.809  0.00  0.00    +0.000 C 
ENDBRANCH  26  27
ENDBRANCH  23  26
ENDBRANCH  18  20
ENDBRANCH   1  18
TORSDOF 8
ENDMDL
MODEL 3
REMARK VINA RESULT:      -8.1      3.217      4.160
REMARK  Name = 
REMARK  10 active torsions:
REMARK  status: ('A' for Active; 'I' for Inactive)
REMARK    1  A    between atoms: C_1  and  C_2
REMARK    2  A    between atoms: C_2  and  C_3
REMARK    3  A    between atoms: C_2  and  C_4
REMARK    4  A    between atoms: C_7  and  C_8
REMARK    5  A    between atoms: C_9  and  C_10
REMARK    6  A    between atoms: N_12  and  C_13
REMARK    7  A    between atoms: C_13  and  N_15
REMARK    8  A    between atoms: N_15  and  C_16
REMARK    9  A    between atoms: C_19  and  C_20
REMARK   10  A    between atoms: C_20  and  N_21
REMARK                            x       y       z     vdW  Elec       q    Type
REMARK                         _______ _______ _______ _____ _____    ______ ____
ROOT
ATOM      1  C   UNL     1       5.388   5.583  16.737  0.00  0.00    +0.000 C 
ATOM      2  S   UNL     1       5.583   4.704  15.333  0.00  0.00    +0.000 S 
ENDROOT
BRANCH   1   5
ATOM      3  C   UNL     1       7.471   6.212  17.954  0.00  0.00    +0.000 C 
ATOM      4  O   UNL     1       8.046   5.140  17.982  0.00  0.00    +0.000 OA
ATOM      5  N   UNL     1       6.280   6.473  17.311  0.00  0.00    +0.000 N 
ATOM      6  H   UNL     1       5.976   7.430  17.246  0.00  0.00    +0.000 HD
BRANCH   3   8
ATOM      7  C   UNL     1       7.971   8.576  17.845  0.00  0.00    +0.000 C 
ATOM      8  C   UNL     1       8.062   7.441  18.561  0.00  0.00    +0.000 C 
BRANCH   7  12
ATOM      9  C   UNL     1       9.737  12.318  18.989  0.00  0.00    +0.000 A 
ATOM     10  C   UNL     1      10.014  11.130  19.680  0.00  0.00    +0.000 A 
ATOM     11  C   UNL     1       9.422   9.926  19.294  0.00  0.00    +0.000 A 
ATOM     12  C   UNL     1       8.523   9.880  18.220  0.00  0.00    +0.000 A 
ATOM     13  C   UNL     1       8.248  11.059  17.524  0.00  0.00    +0.000 A 
ATOM     14  C   UNL     1       8.845  12.263  17.904  0.00  0.00    +0.000 A 
BRANCH   9  16
ATOM     15  C   UNL     1       9.725  14.799  18.786  0.00  0.00    +0.000 C 
ATOM     16  C   UNL     1      10.466  13.594  19.373  0.00  0.00    +0.000 C 
ATOM     17  C   UNL     1      10.654  13.774  20.882  0.00  0.00    +0.000 C 
ENDBRANCH   9  16
ENDBRANCH   7  12
ENDBRANCH   3   8
ENDBRANCH   1   5
BRANCH   1  18
ATOM     18  N   UNL     1       4.278   5.374  17.524  0.00  0.00    +0.000 N 
ATOM     19  H   UNL     1       3.900   4.433  17.519  0.00  0.00    +0.000 HD
BRANCH  18  20
ATOM     20  C   UNL     1       3.478   6.383  18.110  0.00  0.00    +0.000 A 
ATOM     21  C   UNL     1       3.214   7.609  17.481  0.00  0.00    +0.000 A 
ATOM     22  C   UNL     1       2.356   8.541  18.073  0.00  0.00    +0.000 A 
ATOM     23  C   UNL     1       1.742   8.261  19.300  0.00  0.00    +0.000 A 
ATOM     24  C   UNL     1       2.079   7.067  19.956  0.00  0.00    +0.000 A 
ATOM     25  C   UNL     1       2.901   6.119  19.345  0.00  0.00    +0.000 A 
BRANCH  23  26
ATOM     26  C   UNL     1       0.748   9.209  19.929  0.00  0.00    +0.000 C 
BRANCH  26  27
ATOM     27  N   UNL     1       1.114   9.854  21.188  0.00  0.00    +0.000 NA
ATOM     28  C   UNL     1       0.722   9.230  22.455  0.00  0.00    +0.000 C 
ATOM     29  C   UNL     1      -0.520   9.821  23.160  0.00  0.00    +0.000 C 
ATOM     30  O   UNL     1      -0.558  11.253  23.148  0.00  0.00    +0.000 OA
ATOM     31  C   UNL     1      -0.361  11.781  21.833  0.00  0.00    +0.000 C 
ATOM     32  C   UNL     1       0.975  11.309  21.251  0.00  0.00    +0.000 C 
ENDBRANCH  26  27
ENDBRANCH  23  26
ENDBRANCH  18  20
ENDBRANCH   1  18
TORSDOF 8
ENDMDL
MODEL 4
REMARK VINA RESULT:      -8.1      3.474      4.390
REMARK  Name = 
REMARK  10 active torsions:
REMARK  status: ('A' for Active; 'I' for Inactive)
REMARK    1  A    between atoms: C_1  and  C_2
REMARK    2  A    between atoms: C_2  and  C_3
REMARK    3  A    between atoms: C_2  and  C_4
REMARK    4  A    between atoms: C_7  and  C_8
REMARK    5  A    between atoms: C_9  and  C_10
REMARK    6  A    between atoms: N_12  and  C_13
REMARK    7  A    between atoms: C_13  and  N_15
REMARK    8  A    between atoms: N_15  and  C_16
REMARK    9  A    between atoms: C_19  and  C_20
REMARK   10  A    between atoms: C_20  and  N_21
REMARK                            x       y       z     vdW  Elec       q    Type
REMARK                         _______ _______ _______ _____ _____    ______ ____
ROOT
ATOM      1  C   UNL     1       5.053   5.324  18.192  0.00  0.00    +0.000 C 
ATOM      2  S   UNL     1       5.070   3.748  18.739  0.00  0.00    +0.000 S 
ENDROOT
BRANCH   1   5
ATOM      3  C   UNL     1       7.222   6.410  17.616  0.00  0.00    +0.000 C 
ATOM      4  O   UNL     1       7.520   5.796  16.609  0.00  0.00    +0.000 OA
ATOM      5  N   UNL     1       6.047   6.278  18.325  0.00  0.00    +0.000 N 
ATOM      6  H   UNL     1       5.859   6.938  19.061  0.00  0.00    +0.000 HD
BRANCH   3   8
ATOM      7  C   UNL     1       7.806   8.750  17.796  0.00  0.00    +0.000 C 
ATOM      8  C   UNL     1       8.092   7.490  18.169  0.00  0.00    +0.000 C 
BRANCH   7  12
ATOM      9  C   UNL     1       9.857  12.367  18.868  0.00  0.00    +0.000 A 
ATOM     10  C   UNL     1       8.894  12.339  17.849  0.00  0.00    +0.000 A 
ATOM     11  C   UNL     1       8.246  11.149  17.513  0.00  0.00    +0.000 A 
ATOM     12  C   UNL     1       8.555   9.952  18.173  0.00  0.00    +0.000 A 
ATOM     13  C   UNL     1       9.507   9.975  19.193  0.00  0.00    +0.000 A 
ATOM     14  C   UNL     1      10.152  11.166  19.536  0.00  0.00    +0.000 A 
BRANCH   9  16
ATOM     15  C   UNL     1       9.544  14.413  20.249  0.00  0.00    +0.000 C 
ATOM     16  C   UNL     1      10.478  13.691  19.275  0.00  0.00    +0.000 C 
ATOM     17  C   UNL     1      11.878  13.562  19.884  0.00  0.00    +0.000 C 
ENDBRANCH   9  16
ENDBRANCH   7  12
ENDBRANCH   3   8
ENDBRANCH   1   5
BRANCH   1  18
ATOM     18  N   UNL     1       3.908   5.835  17.622  0.00  0.00    +0.000 N 
ATOM     19  H   UNL     1       3.734   5.568  16.659  0.00  0.00    +0.000 HD
BRANCH  18  20
ATOM     20  C   UNL     1       3.120   6.884  18.150  0.00  0.00    +0.000 A 
ATOM     21  C   UNL     1       2.849   8.066  17.445  0.00  0.00    +0.000 A 
ATOM     22  C   UNL     1       2.002   9.038  17.986  0.00  0.00    +0.000 A 
ATOM     23  C   UNL     1       1.407   8.843  19.239  0.00  0.00    +0.000 A 
ATOM     24  C   UNL     1       1.751   7.695  19.968  0.00  0.00    +0.000 A 
ATOM     25  C   UNL     1       2.562   6.705  19.409  0.00  0.00    +0.000 A 
BRANCH  23  26
ATOM     26  C   UNL     1       0.425   9.834  19.819  0.00  0.00    +0.000 C 
BRANCH  26  27
ATOM     27  N   UNL     1       0.762  10.475  21.087  0.00  0.00    +0.000 NA
ATOM     28  C   UNL     1       0.793   9.670  22.312  0.00  0.00    +0.000 C 
ATOM     29  C   UNL     1      -0.444   9.768  23.233  0.00  0.00    +0.000 C 
ATOM     30  O   UNL     1      -0.935  11.104  23.394  0.00  0.00    +0.000 OA
ATOM     31  C   UNL     1      -1.125  11.758  22.135  0.00  0.00    +0.000 C 
ATOM     32  C   UNL     1       0.182  11.794  21.338  0.00  0.00    +0.000 C 
ENDBRANCH  26  27
ENDBRANCH  23  26
ENDBRANCH  18  20
ENDBRANCH   1  18
TORSDOF 8
ENDMDL
MODEL 5
REMARK VINA RESULT:      -7.9      3.182      4.352
REMARK  Name = 
REMARK  10 active torsions:
REMARK  status: ('A' for Active; 'I' for Inactive)
REMARK    1  A    between atoms: C_1  and  C_2
REMARK    2  A    between atoms: C_2  and  C_3
REMARK    3  A    between atoms: C_2  and  C_4
REMARK    4  A    between atoms: C_7  and  C_8
REMARK    5  A    between atoms: C_9  and  C_10
REMARK    6  A    between atoms: N_12  and  C_13
REMARK    7  A    between atoms: C_13  and  N_15
REMARK    8  A    between atoms: N_15  and  C_16
REMARK    9  A    between atoms: C_19  and  C_20
REMARK   10  A    between atoms: C_20  and  N_21
REMARK                            x       y       z     vdW  Elec       q    Type
REMARK                         _______ _______ _______ _____ _____    ______ ____
ROOT
ATOM      1  C   UNL     1       5.738   5.370  16.235  0.00  0.00    +0.000 C 
ATOM      2  S   UNL     1       5.914   4.568  14.784  0.00  0.00    +0.000 S 
ENDROOT
BRANCH   1   5
ATOM      3  C   UNL     1       7.335   6.000  18.043  0.00  0.00    +0.000 C 
ATOM      4  O   UNL     1       7.384   4.959  18.672  0.00  0.00    +0.000 OA
ATOM      5  N   UNL     1       6.652   6.199  16.862  0.00  0.00    +0.000 N 
ATOM      6  H   UNL     1       6.801   7.063  16.368  0.00  0.00    +0.000 HD
BRANCH   3   8
ATOM      7  C   UNL     1       7.707   8.389  17.961  0.00  0.00    +0.000 C 
ATOM      8  C   UNL     1       8.120   7.204  18.448  0.00  0.00    +0.000 C 
BRANCH   7  12
ATOM      9  C   UNL     1       9.748  12.103  18.646  0.00  0.00    +0.000 A 
ATOM     10  C   UNL     1      10.052  10.948  19.381  0.00  0.00    +0.000 A 
ATOM     11  C   UNL     1       9.369   9.753  19.145  0.00  0.00    +0.000 A 
ATOM     12  C   UNL     1       8.353   9.685  18.183  0.00  0.00    +0.000 A 
ATOM     13  C   UNL     1       8.051  10.830  17.444  0.00  0.00    +0.000 A 
ATOM     14  C   UNL     1       8.738  12.024  17.673  0.00  0.00    +0.000 A 
BRANCH   9  16
ATOM     15  C   UNL     1      11.635  13.102  19.926  0.00  0.00    +0.000 C 
ATOM     16  C   UNL     1      10.569  13.363  18.858  0.00  0.00    +0.000 C 
ATOM     17  C   UNL     1      11.221  13.904  17.582  0.00  0.00    +0.000 C 
ENDBRANCH   9  16
ENDBRANCH   7  12
ENDBRANCH   3   8
ENDBRANCH   1   5
BRANCH   1  18
ATOM     18  N   UNL     1       4.619   5.147  17.007  0.00  0.00    +0.000 N 
ATOM     19  H   UNL     1       4.199   4.227  16.926  0.00  0.00    +0.000 HD
BRANCH  18  20
ATOM     20  C   UNL     1       3.865   6.140  17.675  0.00  0.00    +0.000 A 
ATOM     21  C   UNL     1       3.612   7.406  17.125  0.00  0.00    +0.000 A 
ATOM     22  C   UNL     1       2.798   8.323  17.797  0.00  0.00    +0.000 A 
ATOM     23  C   UNL     1       2.219   7.989  19.028  0.00  0.00    +0.000 A 
ATOM     24  C   UNL     1       2.547   6.753  19.604  0.00  0.00    +0.000 A 
ATOM     25  C   UNL     1       3.324   5.821  18.913  0.00  0.00    +0.000 A 
BRANCH  23  26
ATOM     26  C   UNL     1       1.271   8.923  19.743  0.00  0.00    +0.000 C 
BRANCH  26  27
ATOM     27  N   UNL     1       0.867  10.149  19.059  0.00  0.00    +0.000 NA
ATOM     28  C   UNL     1       0.853  11.412  19.802  0.00  0.00    +0.000 C 
ATOM     29  C   UNL     1      -0.524  11.903  20.303  0.00  0.00    +0.000 C 
ATOM     30  O   UNL     1      -1.573  11.750  19.339  0.00  0.00    +0.000 OA
ATOM     31  C   UNL     1      -1.615  10.425  18.803  0.00  0.00    +0.000 C 
ATOM     32  C   UNL     1      -0.278  10.057  18.154  0.00  0.00    +0.000 C 
ENDBRANCH  26  27
ENDBRANCH  23  26
ENDBRANCH  18  20
ENDBRANCH   1  18
TORSDOF 8
ENDMDL
MODEL 6
REMARK VINA RESULT:      -7.9      3.388      4.597
REMARK  Name = 
REMARK  10 active torsions:
REMARK  status: ('A' for Active; 'I' for Inactive)
REMARK    1  A    between atoms: C_1  and  C_2
REMARK    2  A    between atoms: C_2  and  C_3
REMARK    3  A    between atoms: C_2  and  C_4
REMARK    4  A    between atoms: C_7  and  C_8
REMARK    5  A    between atoms: C_9  and  C_10
REMARK    6  A    between atoms: N_12  and  C_13
REMARK    7  A    between atoms: C_13  and  N_15
REMARK    8  A    between atoms: N_15  and  C_16
REMARK    9  A    between atoms: C_19  and  C_20
REMARK   10  A    between atoms: C_20  and  N_21
REMARK                            x       y       z     vdW  Elec       q    Type
REMARK                         _______ _______ _______ _____ _____    ______ ____
ROOT
ATOM      1  C   UNL     1       5.469   5.209  17.534  0.00  0.00    +0.000 C 
ATOM      2  S   UNL     1       5.818   4.090  16.348  0.00  0.00    +0.000 S 
ENDROOT
BRANCH   1   5
ATOM      3  C   UNL     1       7.353   6.830  17.339  0.00  0.00    +0.000 C 
ATOM      4  O   UNL     1       7.746   6.583  16.215  0.00  0.00    +0.000 OA
ATOM      5  N   UNL     1       6.248   6.275  17.949  0.00  0.00    +0.000 N 
ATOM      6  H   UNL     1       5.947   6.661  18.828  0.00  0.00    +0.000 HD
BRANCH   3   8
ATOM      7  C   UNL     1       8.087   9.112  17.664  0.00  0.00    +0.000 C 
ATOM      8  C   UNL     1       7.997   7.876  18.189  0.00  0.00    +0.000 C 
BRANCH   7  12
ATOM      9  C   UNL     1       9.815  12.609  19.458  0.00  0.00    +0.000 A 
ATOM     10  C   UNL     1       9.091  12.676  18.259  0.00  0.00    +0.000 A 
ATOM     11  C   UNL     1       8.544  11.523  17.691  0.00  0.00    +0.000 A 
ATOM     12  C   UNL     1       8.722  10.272  18.295  0.00  0.00    +0.000 A 
ATOM     13  C   UNL     1       9.437  10.200  19.492  0.00  0.00    +0.000 A 
ATOM     14  C   UNL     1       9.978  11.352  20.066  0.00  0.00    +0.000 A 
BRANCH   9  16
ATOM     15  C   UNL     1      10.012  13.860  21.601  0.00  0.00    +0.000 C 
ATOM     16  C   UNL     1      10.318  13.889  20.101  0.00  0.00    +0.000 C 
ATOM     17  C   UNL     1      11.809  14.157  19.872  0.00  0.00    +0.000 C 
ENDBRANCH   9  16
ENDBRANCH   7  12
ENDBRANCH   3   8
ENDBRANCH   1   5
BRANCH   1  18
ATOM     18  N   UNL     1       4.336   5.058  18.302  0.00  0.00    +0.000 N 
ATOM     19  H   UNL     1       4.025   4.104  18.452  0.00  0.00    +0.000 HD
BRANCH  18  20
ATOM     20  C   UNL     1       3.440   6.090  18.665  0.00  0.00    +0.000 A 
ATOM     21  C   UNL     1       2.744   6.105  19.883  0.00  0.00    +0.000 A 
ATOM     22  C   UNL     1       1.927   7.188  20.222  0.00  0.00    +0.000 A 
ATOM     23  C   UNL     1       1.795   8.277  19.351  0.00  0.00    +0.000 A 
ATOM     24  C   UNL     1       2.431   8.211  18.102  0.00  0.00    +0.000 A 
ATOM     25  C   UNL     1       3.280   7.151  17.783  0.00  0.00    +0.000 A 
BRANCH  23  26
ATOM     26  C   UNL     1       0.986   9.499  19.718  0.00  0.00    +0.000 C 
BRANCH  26  27
ATOM     27  N   UNL     1       0.640  10.440  18.656  0.00  0.00    +0.000 NA
ATOM     28  C   UNL     1       1.101  11.827  18.748  0.00  0.00    +0.000 C 
ATOM     29  C   UNL     1       0.068  12.867  19.239  0.00  0.00    +0.000 C 
ATOM     30  O   UNL     1      -1.234  12.694  18.668  0.00  0.00    +0.000 OA
ATOM     31  C   UNL     1      -1.698  11.346  18.793  0.00  0.00    +0.000 C 
ATOM     32  C   UNL     1      -0.722  10.371  18.128  0.00  0.00    +0.000 C 
ENDBRANCH  26  27
ENDBRANCH  23  26
ENDBRANCH  18  20
ENDBRANCH   1  18
TORSDOF 8
ENDMDL
MODEL 7
REMARK VINA RESULT:      -7.9      1.307      1.784
REMARK  Name = 
REMARK  10 active torsions:
REMARK  status: ('A' for Active; 'I' for Inactive)
REMARK    1  A    between atoms: C_1  and  C_2
REMARK    2  A    between atoms: C_2  and  C_3
REMARK    3  A    between atoms: C_2  and  C_4
REMARK    4  A    between atoms: C_7  and  C_8
REMARK    5  A    between atoms: C_9  and  C_10
REMARK    6  A    between atoms: N_12  and  C_13
REMARK    7  A    between atoms: C_13  and  N_15
REMARK    8  A    between atoms: N_15  and  C_16
REMARK    9  A    between atoms: C_19  and  C_20
REMARK   10  A    between atoms: C_20  and  N_21
REMARK                            x       y       z     vdW  Elec       q    Type
REMARK                         _______ _______ _______ _____ _____    ______ ____
ROOT
ATOM      1  C   UNL     1       6.789   6.463  16.473  0.00  0.00    +0.000 C 
ATOM      2  S   UNL     1       7.366   5.007  15.898  0.00  0.00    +0.000 S 
ENDROOT
BRANCH   1   5
ATOM      3  C   UNL     1       8.062   7.401  18.400  0.00  0.00    +0.000 C 
ATOM      4  O   UNL     1       8.199   6.405  19.084  0.00  0.00    +0.000 OA
ATOM      5  N   UNL     1       7.491   7.448  17.146  0.00  0.00    +0.000 N 
ATOM      6  H   UNL     1       7.559   8.306  16.625  0.00  0.00    +0.000 HD
BRANCH   3   8
ATOM      7  C   UNL     1       8.672   9.682  17.873  0.00  0.00    +0.000 C 
ATOM      8  C   UNL     1       8.604   8.728  18.819  0.00  0.00    +0.000 C 
BRANCH   7  12
ATOM      9  C   UNL     1      10.102  13.692  18.426  0.00  0.00    +0.000 A 
ATOM     10  C   UNL     1       8.820  13.430  17.922  0.00  0.00    +0.000 A 
ATOM     11  C   UNL     1       8.380  12.116  17.744  0.00  0.00    +0.000 A 
ATOM     12  C   UNL     1       9.214  11.032  18.046  0.00  0.00    +0.000 A 
ATOM     13  C   UNL     1      10.489  11.288  18.555  0.00  0.00    +0.000 A 
ATOM     14  C   UNL     1      10.929  12.600  18.740  0.00  0.00    +0.000 A 
BRANCH   9  16
ATOM     15  C   UNL     1       9.961  16.035  17.599  0.00  0.00    +0.000 C 
ATOM     16  C   UNL     1      10.520  15.127  18.696  0.00  0.00    +0.000 C 
ATOM     17  C   UNL     1      10.104  15.647  20.076  0.00  0.00    +0.000 C 
ENDBRANCH   9  16
ENDBRANCH   7  12
ENDBRANCH   3   8
ENDBRANCH   1   5
BRANCH   1  18
ATOM     18  N   UNL     1       5.442   6.740  16.395  0.00  0.00    +0.000 N 
ATOM     19  H   UNL     1       5.197   7.668  16.066  0.00  0.00    +0.000 HD
BRANCH  18  20
ATOM     20  C   UNL     1       4.405   5.970  16.972  0.00  0.00    +0.000 A 
ATOM     21  C   UNL     1       3.545   6.467  17.963  0.00  0.00    +0.000 A 
ATOM     22  C   UNL     1       2.490   5.686  18.444  0.00  0.00    +0.000 A 
ATOM     23  C   UNL     1       2.274   4.397  17.940  0.00  0.00    +0.000 A 
ATOM     24  C   UNL     1       3.190   3.883  17.011  0.00  0.00    +0.000 A 
ATOM     25  C   UNL     1       4.216   4.678  16.499  0.00  0.00    +0.000 A 
BRANCH  23  26
ATOM     26  C   UNL     1       1.097   3.556  18.379  0.00  0.00    +0.000 C 
BRANCH  26  27
ATOM     27  N   UNL     1       1.301   2.601  19.466  0.00  0.00    +0.000 NA
ATOM     28  C   UNL     1       1.000   3.006  20.842  0.00  0.00    +0.000 C 
ATOM     29  C   UNL     1       2.205   3.411  21.721  0.00  0.00    +0.000 C 
ATOM     30  O   UNL     1       3.338   2.547  21.574  0.00  0.00    +0.000 OA
ATOM     31  C   UNL     1       3.690   2.358  20.200  0.00  0.00    +0.000 C 
ATOM     32  C   UNL     1       2.511   1.781  19.410  0.00  0.00    +0.000 C 
ENDBRANCH  26  27
ENDBRANCH  23  26
ENDBRANCH  18  20
ENDBRANCH   1  18
TORSDOF 8
ENDMDL
MODEL 8
REMARK VINA RESULT:      -7.9      1.634      2.300
REMARK  Name = 
REMARK  10 active torsions:
REMARK  status: ('A' for Active; 'I' for Inactive)
REMARK    1  A    between atoms: C_1  and  C_2
REMARK    2  A    between atoms: C_2  and  C_3
REMARK    3  A    between atoms: C_2  and  C_4
REMARK    4  A    between atoms: C_7  and  C_8
REMARK    5  A    between atoms: C_9  and  C_10
REMARK    6  A    between atoms: N_12  and  C_13
REMARK    7  A    between atoms: C_13  and  N_15
REMARK    8  A    between atoms: N_15  and  C_16
REMARK    9  A    between atoms: C_19  and  C_20
REMARK   10  A    between atoms: C_20  and  N_21
REMARK                            x       y       z     vdW  Elec       q    Type
REMARK                         _______ _______ _______ _____ _____    ______ ____
ROOT
ATOM      1  C   UNL     1       7.951   6.041  18.964  0.00  0.00    +0.000 C 
ATOM      2  S   UNL     1       8.316   5.107  20.297  0.00  0.00    +0.000 S 
ENDROOT
BRANCH   1   5
ATOM      3  C   UNL     1       7.862   8.197  17.715  0.00  0.00    +0.000 C 
ATOM      4  O   UNL     1       7.324   7.837  16.685  0.00  0.00    +0.000 OA
ATOM      5  N   UNL     1       8.089   7.411  18.825  0.00  0.00    +0.000 N 
ATOM      6  H   UNL     1       8.418   7.859  19.664  0.00  0.00    +0.000 HD
BRANCH   3   8
ATOM      7  C   UNL     1       9.193   9.838  18.893  0.00  0.00    +0.000 C 
ATOM      8  C   UNL     1       8.272   9.615  17.939  0.00  0.00    +0.000 C 
BRANCH   7  12
ATOM      9  C   UNL     1      10.702  13.608  20.287  0.00  0.00    +0.000 A 
ATOM     10  C   UNL     1       9.927  12.775  21.107  0.00  0.00    +0.000 A 
ATOM     11  C   UNL     1       9.441  11.556  20.629  0.00  0.00    +0.000 A 
ATOM     12  C   UNL     1       9.700  11.147  19.314  0.00  0.00    +0.000 A 
ATOM     13  C   UNL     1      10.476  11.969  18.496  0.00  0.00    +0.000 A 
ATOM     14  C   UNL     1      10.969  13.185  18.974  0.00  0.00    +0.000 A 
BRANCH   9  16
ATOM     15  C   UNL     1      11.631  15.847  19.722  0.00  0.00    +0.000 C 
ATOM     16  C   UNL     1      11.294  14.883  20.862  0.00  0.00    +0.000 C 
ATOM     17  C   UNL     1      10.397  15.577  21.892  0.00  0.00    +0.000 C 
ENDBRANCH   9  16
ENDBRANCH   7  12
ENDBRANCH   3   8
ENDBRANCH   1   5
BRANCH   1  18
ATOM     18  N   UNL     1       7.342   5.463  17.873  0.00  0.00    +0.000 N 
ATOM     19  H   UNL     1       7.885   5.447  17.017  0.00  0.00    +0.000 HD
BRANCH  18  20
ATOM     20  C   UNL     1       5.968   5.143  17.767  0.00  0.00    +0.000 A 
ATOM     21  C   UNL     1       5.483   4.122  16.937  0.00  0.00    +0.000 A 
ATOM     22  C   UNL     1       4.122   3.799  16.927  0.00  0.00    +0.000 A 
ATOM     23  C   UNL     1       3.224   4.489  17.751  0.00  0.00    +0.000 A 
ATOM     24  C   UNL     1       3.709   5.562  18.514  0.00  0.00    +0.000 A 
ATOM     25  C   UNL     1       5.073   5.854  18.556  0.00  0.00    +0.000 A 
BRANCH  23  26
ATOM     26  C   UNL     1       1.762   4.115  17.827  0.00  0.00    +0.000 C 
BRANCH  26  27
ATOM     27  N   UNL     1       1.306   3.351  18.985  0.00  0.00    +0.000 NA
ATOM     28  C   UNL     1       0.951   4.060  20.218  0.00  0.00    +0.000 C 
ATOM     29  C   UNL     1       2.013   4.063  21.341  0.00  0.00    +0.000 C 
ATOM     30  O   UNL     1       2.653   2.796  21.529  0.00  0.00    +0.000 OA
ATOM     31  C   UNL     1       3.147   2.259  20.298  0.00  0.00    +0.000 C 
ATOM     32  C   UNL     1       2.015   2.106  19.278  0.00  0.00    +0.000 C 
ENDBRANCH  26  27
ENDBRANCH  23  26
ENDBRANCH  18  20
ENDBRANCH   1  18
TORSDOF 8
ENDMDL
MODEL 9
REMARK VINA RESULT:      -7.9      3.218      4.204
REMARK  Name = 
REMARK  10 active torsions:
REMARK  status: ('A' for Active; 'I' for Inactive)
REMARK    1  A    between atoms: C_1  and  C_2
REMARK    2  A    between atoms: C_2  and  C_3
REMARK    3  A    between atoms: C_2  and  C_4
REMARK    4  A    between atoms: C_7  and  C_8
REMARK    5  A    between atoms: C_9  and  C_10
REMARK    6  A    between atoms: N_12  and  C_13
REMARK    7  A    between atoms: C_13  and  N_15
REMARK    8  A    between atoms: N_15  and  C_16
REMARK    9  A    between atoms: C_19  and  C_20
REMARK   10  A    between atoms: C_20  and  N_21
REMARK                            x       y       z     vdW  Elec       q    Type
REMARK                         _______ _______ _______ _____ _____    ______ ____
ROOT
ATOM      1  C   UNL     1       5.731   5.716  16.576  0.00  0.00    +0.000 C 
ATOM      2  S   UNL     1       5.917   4.607  15.344  0.00  0.00    +0.000 S 
ENDROOT
BRANCH   1   5
ATOM      3  C   UNL     1       7.412   7.136  17.748  0.00  0.00    +0.000 C 
ATOM      4  O   UNL     1       7.923   6.315  18.487  0.00  0.00    +0.000 OA
ATOM      5  N   UNL     1       6.456   6.876  16.789  0.00  0.00    +0.000 N 
ATOM      6  H   UNL     1       6.212   7.614  16.150  0.00  0.00    +0.000 HD
BRANCH   3   8
ATOM      7  C   UNL     1       8.678   8.956  18.717  0.00  0.00    +0.000 C 
ATOM      8  C   UNL     1       7.850   8.563  17.731  0.00  0.00    +0.000 C 
BRANCH   7  12
ATOM      9  C   UNL     1      10.050  12.992  19.223  0.00  0.00    +0.000 A 
ATOM     10  C   UNL     1       9.520  12.540  18.005  0.00  0.00    +0.000 A 
ATOM     11  C   UNL     1       9.087  11.220  17.863  0.00  0.00    +0.000 A 
ATOM     12  C   UNL     1       9.188  10.313  18.925  0.00  0.00    +0.000 A 
ATOM     13  C   UNL     1       9.708  10.759  20.141  0.00  0.00    +0.000 A 
ATOM     14  C   UNL     1      10.135  12.080  20.289  0.00  0.00    +0.000 A 
BRANCH   9  16
ATOM     15  C   UNL     1       9.528  15.102  20.435  0.00  0.00    +0.000 C 
ATOM     16  C   UNL     1      10.426  14.455  19.378  0.00  0.00    +0.000 C 
ATOM     17  C   UNL     1      11.901  14.685  19.725  0.00  0.00    +0.000 C 
ENDBRANCH   9  16
ENDBRANCH   7  12
ENDBRANCH   3   8
ENDBRANCH   1   5
BRANCH   1  18
ATOM     18  N   UNL     1       4.839   5.461  17.594  0.00  0.00    +0.000 N 
ATOM     19  H   UNL     1       4.723   4.487  17.850  0.00  0.00    +0.000 HD
BRANCH  18  20
ATOM     20  C   UNL     1       3.897   6.378  18.115  0.00  0.00    +0.000 A 
ATOM     21  C   UNL     1       3.497   7.535  17.430  0.00  0.00    +0.000 A 
ATOM     22  C   UNL     1       2.506   8.368  17.959  0.00  0.00    +0.000 A 
ATOM     23  C   UNL     1       1.895   8.057  19.180  0.00  0.00    +0.000 A 
ATOM     24  C   UNL     1       2.362   6.943  19.894  0.00  0.00    +0.000 A 
ATOM     25  C   UNL     1       3.320   6.088  19.344  0.00  0.00    +0.000 A 
BRANCH  23  26
ATOM     26  C   UNL     1       0.767   8.889  19.743  0.00  0.00    +0.000 C 
BRANCH  26  27
ATOM     27  N   UNL     1       0.972  10.330  19.870  0.00  0.00    +0.000 NA
ATOM     28  C   UNL     1       0.918  10.948  21.197  0.00  0.00    +0.000 C 
ATOM     29  C   UNL     1      -0.397  11.668  21.570  0.00  0.00    +0.000 C 
ATOM     30  O   UNL     1      -0.940  12.460  20.506  0.00  0.00    +0.000 OA
ATOM     31  C   UNL     1      -1.037  11.719  19.286  0.00  0.00    +0.000 C 
ATOM     32  C   UNL     1       0.333  11.181  18.865  0.00  0.00    +0.000 C 
ENDBRANCH  26  27
ENDBRANCH  23  26
ENDBRANCH  18  20
ENDBRANCH   1  18
TORSDOF 8
ENDMDL
