MODEL 1
REMARK VINA RESULT:      -6.6      0.000      0.000
REMARK  Name = 
REMARK  8 active torsions:
REMARK  status: ('A' for Active; 'I' for Inactive)
REMARK    1  A    between atoms: C_1  and  C_2
REMARK    2  A    between atoms: C_2  and  C_3
REMARK    3  A    between atoms: C_4  and  S_5
REMARK    4  A    between atoms: S_5  and  C_6
REMARK    5  A    between atoms: N_12  and  O_13
REMARK    6  A    between atoms: O_13  and  C_14
REMARK    7  A    between atoms: C_14  and  C_15
REMARK    8  A    between atoms: C_14  and  C_16
REMARK                            x       y       z     vdW  Elec       q    Type
REMARK                         _______ _______ _______ _____ _____    ______ ____
ROOT
ATOM      1  C   UNL     1       2.565   6.808  19.118  0.00  0.00    +0.000 A 
ATOM      2  C   UNL     1       3.007   5.600  18.702  0.00  0.00    +0.000 A 
ATOM      3  N   UNL     1       2.729   4.447  19.455  0.00  0.00    +0.000 N 
ATOM      4  C   UNL     1       2.280   4.510  20.764  0.00  0.00    +0.000 A 
ATOM      5  S   UNL     1       2.278   3.305  21.928  0.00  0.00    +0.000 S 
ATOM      6  N   UNL     1       1.770   5.724  21.139  0.00  0.00    +0.000 N 
ATOM      7  C   UNL     1       1.771   6.853  20.378  0.00  0.00    +0.000 A 
ATOM      8  O   UNL     1       1.181   7.862  20.753  0.00  0.00    +0.000 OA
ATOM      9  H   UNL     1       1.329   5.792  22.046  0.00  0.00    +0.000 HD
ENDROOT
BRANCH   1  11
ATOM     10  C   UNL     1       1.570   8.591  17.614  0.00  0.00    +0.000 C 
ATOM     11  C   UNL     1       2.751   8.169  18.477  0.00  0.00    +0.000 C 
ENDBRANCH   1  11
BRANCH   2  12
ATOM     12  S   UNL     1       4.087   5.401  17.334  0.00  0.00    +0.000 S 
BRANCH  12  13
ATOM     13  C   UNL     1       5.677   5.958  17.906  0.00  0.00    +0.000 A 
ATOM     14  C   UNL     1       6.268   7.031  17.222  0.00  0.00    +0.000 A 
ATOM     15  C   UNL     1       7.543   7.481  17.567  0.00  0.00    +0.000 A 
ATOM     16  C   UNL     1       8.238   6.867  18.605  0.00  0.00    +0.000 A 
ATOM     17  C   UNL     1       7.646   5.828  19.320  0.00  0.00    +0.000 A 
ATOM     18  C   UNL     1       6.368   5.381  18.977  0.00  0.00    +0.000 A 
ENDBRANCH  12  13
ENDBRANCH   2  12
BRANCH   3  19
ATOM     19  O   UNL     1       3.297   3.231  18.982  0.00  0.00    +0.000 OA
BRANCH  19  20
ATOM     20  C   UNL     1       2.320   2.337  18.412  0.00  0.00    +0.000 C 
ATOM     21  C   UNL     1       0.867   2.773  18.576  0.00  0.00    +0.000 C 
ATOM     22  C   UNL     1       2.656   2.206  16.928  0.00  0.00    +0.000 C 
ENDBRANCH  19  20
ENDBRANCH   3  19
TORSDOF 5
ENDMDL
MODEL 2
REMARK VINA RESULT:      -6.6      0.210      1.072
REMARK  Name = 
REMARK  8 active torsions:
REMARK  status: ('A' for Active; 'I' for Inactive)
REMARK    1  A    between atoms: C_1  and  C_2
REMARK    2  A    between atoms: C_2  and  C_3
REMARK    3  A    between atoms: C_4  and  S_5
REMARK    4  A    between atoms: S_5  and  C_6
REMARK    5  A    between atoms: N_12  and  O_13
REMARK    6  A    between atoms: O_13  and  C_14
REMARK    7  A    between atoms: C_14  and  C_15
REMARK    8  A    between atoms: C_14  and  C_16
REMARK                            x       y       z     vdW  Elec       q    Type
REMARK                         _______ _______ _______ _____ _____    ______ ____
ROOT
ATOM      1  C   UNL     1       2.719   6.849  18.901  0.00  0.00    +0.000 A 
ATOM      2  C   UNL     1       3.130   5.610  18.549  0.00  0.00    +0.000 A 
ATOM      3  N   UNL     1       2.822   4.506  19.361  0.00  0.00    +0.000 N 
ATOM      4  C   UNL     1       2.375   4.648  20.664  0.00  0.00    +0.000 A 
ATOM      5  S   UNL     1       2.342   3.506  21.889  0.00  0.00    +0.000 S 
ATOM      6  N   UNL     1       1.896   5.893  20.975  0.00  0.00    +0.000 N 
ATOM      7  C   UNL     1       1.925   6.980  20.155  0.00  0.00    +0.000 A 
ATOM      8  O   UNL     1       1.362   8.022  20.476  0.00  0.00    +0.000 OA
ATOM      9  H   UNL     1       1.457   6.019  21.876  0.00  0.00    +0.000 HD
ENDROOT
BRANCH   1  11
ATOM     10  C   UNL     1       1.661   8.755  17.605  0.00  0.00    +0.000 C 
ATOM     11  C   UNL     1       2.938   8.170  18.189  0.00  0.00    +0.000 C 
ENDBRANCH   1  11
BRANCH   2  12
ATOM     12  S   UNL     1       4.204   5.312  17.195  0.00  0.00    +0.000 S 
BRANCH  12  13
ATOM     13  C   UNL     1       5.784   5.956  17.698  0.00  0.00    +0.000 A 
ATOM     14  C   UNL     1       6.438   5.304  18.754  0.00  0.00    +0.000 A 
ATOM     15  C   UNL     1       7.648   5.790  19.252  0.00  0.00    +0.000 A 
ATOM     16  C   UNL     1       8.222   6.928  18.693  0.00  0.00    +0.000 A 
ATOM     17  C   UNL     1       7.604   7.561  17.616  0.00  0.00    +0.000 A 
ATOM     18  C   UNL     1       6.395   7.072  17.116  0.00  0.00    +0.000 A 
ENDBRANCH  12  13
ENDBRANCH   2  12
BRANCH   3  19
ATOM     19  O   UNL     1       3.359   3.253  18.953  0.00  0.00    +0.000 OA
BRANCH  19  20
ATOM     20  C   UNL     1       2.354   2.341  18.463  0.00  0.00    +0.000 C 
ATOM     21  C   UNL     1       0.916   2.839  18.577  0.00  0.00    +0.000 C 
ATOM     22  C   UNL     1       2.690   2.060  17.000  0.00  0.00    +0.000 C 
ENDBRANCH  19  20
ENDBRANCH   3  19
TORSDOF 5
ENDMDL
MODEL 3
REMARK VINA RESULT:      -6.2      2.052      5.502
REMARK  Name = 
REMARK  8 active torsions:
REMARK  status: ('A' for Active; 'I' for Inactive)
REMARK    1  A    between atoms: C_1  and  C_2
REMARK    2  A    between atoms: C_2  and  C_3
REMARK    3  A    between atoms: C_4  and  S_5
REMARK    4  A    between atoms: S_5  and  C_6
REMARK    5  A    between atoms: N_12  and  O_13
REMARK    6  A    between atoms: O_13  and  C_14
REMARK    7  A    between atoms: C_14  and  C_15
REMARK    8  A    between atoms: C_14  and  C_16
REMARK                            x       y       z     vdW  Elec       q    Type
REMARK                         _______ _______ _______ _____ _____    ______ ____
ROOT
ATOM      1  C   UNL     1       2.021   4.180  18.948  0.00  0.00    +0.000 A 
ATOM      2  C   UNL     1       2.896   5.206  18.854  0.00  0.00    +0.000 A 
ATOM      3  N   UNL     1       3.821   5.251  17.798  0.00  0.00    +0.000 N 
ATOM      4  C   UNL     1       4.093   4.148  17.006  0.00  0.00    +0.000 A 
ATOM      5  S   UNL     1       5.404   3.882  15.997  0.00  0.00    +0.000 S 
ATOM      6  N   UNL     1       3.154   3.153  17.064  0.00  0.00    +0.000 N 
ATOM      7  C   UNL     1       2.072   3.132  17.890  0.00  0.00    +0.000 A 
ATOM      8  O   UNL     1       1.219   2.257  17.783  0.00  0.00    +0.000 OA
ATOM      9  H   UNL     1       3.247   2.377  16.423  0.00  0.00    +0.000 HD
ENDROOT
BRANCH   1  11
ATOM     10  C   UNL     1       1.451   3.103  21.173  0.00  0.00    +0.000 C 
ATOM     11  C   UNL     1       0.952   3.925  19.993  0.00  0.00    +0.000 C 
ENDBRANCH   1  11
BRANCH   2  12
ATOM     12  S   UNL     1       3.070   6.426  20.102  0.00  0.00    +0.000 S 
BRANCH  12  13
ATOM     13  C   UNL     1       2.100   7.809  19.544  0.00  0.00    +0.000 A 
ATOM     14  C   UNL     1       1.306   8.465  20.497  0.00  0.00    +0.000 A 
ATOM     15  C   UNL     1       0.465   9.515  20.125  0.00  0.00    +0.000 A 
ATOM     16  C   UNL     1       0.415   9.925  18.796  0.00  0.00    +0.000 A 
ATOM     17  C   UNL     1       1.229   9.310  17.847  0.00  0.00    +0.000 A 
ATOM     18  C   UNL     1       2.074   8.262  18.221  0.00  0.00    +0.000 A 
ENDBRANCH  12  13
ENDBRANCH   2  12
BRANCH   3  19
ATOM     19  O   UNL     1       4.753   6.326  17.821  0.00  0.00    +0.000 OA
BRANCH  19  20
ATOM     20  C   UNL     1       6.125   5.882  17.862  0.00  0.00    +0.000 C 
ATOM     21  C   UNL     1       7.155   6.909  17.401  0.00  0.00    +0.000 C 
ATOM     22  C   UNL     1       6.412   5.474  19.306  0.00  0.00    +0.000 C 
ENDBRANCH  19  20
ENDBRANCH   3  19
TORSDOF 5
ENDMDL
MODEL 4
REMARK VINA RESULT:      -6.1      3.077      4.601
REMARK  Name = 
REMARK  8 active torsions:
REMARK  status: ('A' for Active; 'I' for Inactive)
REMARK    1  A    between atoms: C_1  and  C_2
REMARK    2  A    between atoms: C_2  and  C_3
REMARK    3  A    between atoms: C_4  and  S_5
REMARK    4  A    between atoms: S_5  and  C_6
REMARK    5  A    between atoms: N_12  and  O_13
REMARK    6  A    between atoms: O_13  and  C_14
REMARK    7  A    between atoms: C_14  and  C_15
REMARK    8  A    between atoms: C_14  and  C_16
REMARK                            x       y       z     vdW  Elec       q    Type
REMARK                         _______ _______ _______ _____ _____    ______ ____
ROOT
ATOM      1  C   UNL     1       6.821   6.123  17.970  0.00  0.00    +0.000 A 
ATOM      2  C   UNL     1       5.601   5.898  17.433  0.00  0.00    +0.000 A 
ATOM      3  N   UNL     1       4.711   5.004  18.051  0.00  0.00    +0.000 N 
ATOM      4  C   UNL     1       5.122   4.105  19.021  0.00  0.00    +0.000 A 
ATOM      5  S   UNL     1       4.339   2.729  19.571  0.00  0.00    +0.000 S 
ATOM      6  N   UNL     1       6.328   4.395  19.601  0.00  0.00    +0.000 N 
ATOM      7  C   UNL     1       7.162   5.406  19.230  0.00  0.00    +0.000 A 
ATOM      8  O   UNL     1       8.165   5.663  19.889  0.00  0.00    +0.000 OA
ATOM      9  H   UNL     1       6.620   3.835  20.389  0.00  0.00    +0.000 HD
ENDROOT
BRANCH   1  11
ATOM     10  C   UNL     1       7.676   8.502  17.764  0.00  0.00    +0.000 C 
ATOM     11  C   UNL     1       7.933   7.030  17.477  0.00  0.00    +0.000 C 
ENDBRANCH   1  11
BRANCH   2  12
ATOM     12  S   UNL     1       5.114   6.538  15.874  0.00  0.00    +0.000 S 
BRANCH  12  13
ATOM     13  C   UNL     1       5.758   5.393  14.675  0.00  0.00    +0.000 A 
ATOM     14  C   UNL     1       7.073   5.597  14.231  0.00  0.00    +0.000 A 
ATOM     15  C   UNL     1       7.627   4.783  13.242  0.00  0.00    +0.000 A 
ATOM     16  C   UNL     1       6.873   3.751  12.691  0.00  0.00    +0.000 A 
ATOM     17  C   UNL     1       5.580   3.511  13.152  0.00  0.00    +0.000 A 
ATOM     18  C   UNL     1       5.029   4.323  14.146  0.00  0.00    +0.000 A 
ENDBRANCH  12  13
ENDBRANCH   2  12
BRANCH   3  19
ATOM     19  O   UNL     1       3.480   4.772  17.376  0.00  0.00    +0.000 OA
BRANCH  19  20
ATOM     20  C   UNL     1       2.330   5.179  18.146  0.00  0.00    +0.000 C 
ATOM     21  C   UNL     1       1.978   6.661  18.054  0.00  0.00    +0.000 C 
ATOM     22  C   UNL     1       1.153   4.336  17.660  0.00  0.00    +0.000 C 
ENDBRANCH  19  20
ENDBRANCH   3  19
TORSDOF 5
ENDMDL
MODEL 5
REMARK VINA RESULT:      -6.1      2.069      5.433
REMARK  Name = 
REMARK  8 active torsions:
REMARK  status: ('A' for Active; 'I' for Inactive)
REMARK    1  A    between atoms: C_1  and  C_2
REMARK    2  A    between atoms: C_2  and  C_3
REMARK    3  A    between atoms: C_4  and  S_5
REMARK    4  A    between atoms: S_5  and  C_6
REMARK    5  A    between atoms: N_12  and  O_13
REMARK    6  A    between atoms: O_13  and  C_14
REMARK    7  A    between atoms: C_14  and  C_15
REMARK    8  A    between atoms: C_14  and  C_16
REMARK                            x       y       z     vdW  Elec       q    Type
REMARK                         _______ _______ _______ _____ _____    ______ ____
ROOT
ATOM      1  C   UNL     1       2.073   4.214  18.933  0.00  0.00    +0.000 A 
ATOM      2  C   UNL     1       2.962   5.227  18.834  0.00  0.00    +0.000 A 
ATOM      3  N   UNL     1       3.886   5.257  17.776  0.00  0.00    +0.000 N 
ATOM      4  C   UNL     1       4.140   4.148  16.987  0.00  0.00    +0.000 A 
ATOM      5  S   UNL     1       5.446   3.861  15.976  0.00  0.00    +0.000 S 
ATOM      6  N   UNL     1       3.188   3.166  17.049  0.00  0.00    +0.000 N 
ATOM      7  C   UNL     1       2.108   3.162  17.878  0.00  0.00    +0.000 A 
ATOM      8  O   UNL     1       1.243   2.298  17.776  0.00  0.00    +0.000 OA
ATOM      9  H   UNL     1       3.270   2.387  16.411  0.00  0.00    +0.000 HD
ENDROOT
BRANCH   1  11
ATOM     10  C   UNL     1       1.490   3.143  21.157  0.00  0.00    +0.000 C 
ATOM     11  C   UNL     1       1.003   3.977  19.981  0.00  0.00    +0.000 C 
ENDBRANCH   1  11
BRANCH   2  12
ATOM     12  S   UNL     1       3.155   6.449  20.078  0.00  0.00    +0.000 S 
BRANCH  12  13
ATOM     13  C   UNL     1       2.073   7.778  19.602  0.00  0.00    +0.000 A 
ATOM     14  C   UNL     1       2.098   8.179  18.257  0.00  0.00    +0.000 A 
ATOM     15  C   UNL     1       1.329   9.258  17.820  0.00  0.00    +0.000 A 
ATOM     16  C   UNL     1       0.521   9.944  18.722  0.00  0.00    +0.000 A 
ATOM     17  C   UNL     1       0.455   9.531  20.051  0.00  0.00    +0.000 A 
ATOM     18  C   UNL     1       1.221   8.447  20.487  0.00  0.00    +0.000 A 
ENDBRANCH  12  13
ENDBRANCH   2  12
BRANCH   3  19
ATOM     19  O   UNL     1       4.833   6.319  17.794  0.00  0.00    +0.000 OA
BRANCH  19  20
ATOM     20  C   UNL     1       6.197   5.856  17.862  0.00  0.00    +0.000 C 
ATOM     21  C   UNL     1       7.248   6.864  17.403  0.00  0.00    +0.000 C 
ATOM     22  C   UNL     1       6.457   5.463  19.314  0.00  0.00    +0.000 C 
ENDBRANCH  19  20
ENDBRANCH   3  19
TORSDOF 5
ENDMDL
MODEL 6
REMARK VINA RESULT:      -6.0      2.252      4.227
REMARK  Name = 
REMARK  8 active torsions:
REMARK  status: ('A' for Active; 'I' for Inactive)
REMARK    1  A    between atoms: C_1  and  C_2
REMARK    2  A    between atoms: C_2  and  C_3
REMARK    3  A    between atoms: C_4  and  S_5
REMARK    4  A    between atoms: S_5  and  C_6
REMARK    5  A    between atoms: N_12  and  O_13
REMARK    6  A    between atoms: O_13  and  C_14
REMARK    7  A    between atoms: C_14  and  C_15
REMARK    8  A    between atoms: C_14  and  C_16
REMARK                            x       y       z     vdW  Elec       q    Type
REMARK                         _______ _______ _______ _____ _____    ______ ____
ROOT
ATOM      1  C   UNL     1       2.719   3.459  19.914  0.00  0.00    +0.000 A 
ATOM      2  C   UNL     1       2.686   4.354  18.902  0.00  0.00    +0.000 A 
ATOM      3  N   UNL     1       2.367   5.698  19.158  0.00  0.00    +0.000 N 
ATOM      4  C   UNL     1       1.789   6.107  20.348  0.00  0.00    +0.000 A 
ATOM      5  S   UNL     1       0.987   7.539  20.684  0.00  0.00    +0.000 S 
ATOM      6  N   UNL     1       1.899   5.212  21.379  0.00  0.00    +0.000 N 
ATOM      7  C   UNL     1       2.425   3.959  21.286  0.00  0.00    +0.000 A 
ATOM      8  O   UNL     1       2.593   3.275  22.291  0.00  0.00    +0.000 OA
ATOM      9  H   UNL     1       1.593   5.506  22.295  0.00  0.00    +0.000 HD
ENDROOT
BRANCH   1  11
ATOM     10  C   UNL     1       4.517   1.670  19.954  0.00  0.00    +0.000 C 
ATOM     11  C   UNL     1       3.028   1.975  19.871  0.00  0.00    +0.000 C 
ENDBRANCH   1  11
BRANCH   2  12
ATOM     12  S   UNL     1       2.849   3.894  17.218  0.00  0.00    +0.000 S 
BRANCH  12  13
ATOM     13  C   UNL     1       4.573   4.114  16.836  0.00  0.00    +0.000 A 
ATOM     14  C   UNL     1       5.449   4.324  17.911  0.00  0.00    +0.000 A 
ATOM     15  C   UNL     1       6.804   4.573  17.689  0.00  0.00    +0.000 A 
ATOM     16  C   UNL     1       7.299   4.606  16.389  0.00  0.00    +0.000 A 
ATOM     17  C   UNL     1       6.448   4.357  15.314  0.00  0.00    +0.000 A 
ATOM     18  C   UNL     1       5.093   4.104  15.537  0.00  0.00    +0.000 A 
ENDBRANCH  12  13
ENDBRANCH   2  12
BRANCH   3  19
ATOM     19  O   UNL     1       2.282   6.554  18.024  0.00  0.00    +0.000 OA
BRANCH  19  20
ATOM     20  C   UNL     1       3.226   7.644  18.069  0.00  0.00    +0.000 C 
ATOM     21  C   UNL     1       4.398   7.529  17.098  0.00  0.00    +0.000 C 
ATOM     22  C   UNL     1       2.439   8.920  17.780  0.00  0.00    +0.000 C 
ENDBRANCH  19  20
ENDBRANCH   3  19
TORSDOF 5
ENDMDL
MODEL 7
REMARK VINA RESULT:      -6.0      2.293      4.187
REMARK  Name = 
REMARK  8 active torsions:
REMARK  status: ('A' for Active; 'I' for Inactive)
REMARK    1  A    between atoms: C_1  and  C_2
REMARK    2  A    between atoms: C_2  and  C_3
REMARK    3  A    between atoms: C_4  and  S_5
REMARK    4  A    between atoms: S_5  and  C_6
REMARK    5  A    between atoms: N_12  and  O_13
REMARK    6  A    between atoms: O_13  and  C_14
REMARK    7  A    between atoms: C_14  and  C_15
REMARK    8  A    between atoms: C_14  and  C_16
REMARK                            x       y       z     vdW  Elec       q    Type
REMARK                         _______ _______ _______ _____ _____    ______ ____
ROOT
ATOM      1  C   UNL     1       2.786   3.345  19.806  0.00  0.00    +0.000 A 
ATOM      2  C   UNL     1       2.736   4.271  18.822  0.00  0.00    +0.000 A 
ATOM      3  N   UNL     1       2.410   5.604  19.121  0.00  0.00    +0.000 N 
ATOM      4  C   UNL     1       1.841   5.972  20.329  0.00  0.00    +0.000 A 
ATOM      5  S   UNL     1       1.032   7.388  20.715  0.00  0.00    +0.000 S 
ATOM      6  N   UNL     1       1.968   5.047  21.330  0.00  0.00    +0.000 N 
ATOM      7  C   UNL     1       2.503   3.802  21.195  0.00  0.00    +0.000 A 
ATOM      8  O   UNL     1       2.686   3.090  22.177  0.00  0.00    +0.000 OA
ATOM      9  H   UNL     1       1.670   5.312  22.259  0.00  0.00    +0.000 HD
ENDROOT
BRANCH   1  11
ATOM     10  C   UNL     1       4.598   1.571  19.760  0.00  0.00    +0.000 C 
ATOM     11  C   UNL     1       3.106   1.866  19.715  0.00  0.00    +0.000 C 
ENDBRANCH   1  11
BRANCH   2  12
ATOM     12  S   UNL     1       2.884   3.862  17.122  0.00  0.00    +0.000 S 
BRANCH  12  13
ATOM     13  C   UNL     1       4.585   4.181  16.710  0.00  0.00    +0.000 A 
ATOM     14  C   UNL     1       4.914   4.262  15.349  0.00  0.00    +0.000 A 
ATOM     15  C   UNL     1       6.237   4.441  14.944  0.00  0.00    +0.000 A 
ATOM     16  C   UNL     1       7.245   4.551  15.897  0.00  0.00    +0.000 A 
ATOM     17  C   UNL     1       6.927   4.515  17.253  0.00  0.00    +0.000 A 
ATOM     18  C   UNL     1       5.602   4.340  17.657  0.00  0.00    +0.000 A 
ENDBRANCH  12  13
ENDBRANCH   2  12
BRANCH   3  19
ATOM     19  O   UNL     1       2.306   6.492  18.014  0.00  0.00    +0.000 OA
BRANCH  19  20
ATOM     20  C   UNL     1       3.224   7.602  18.095  0.00  0.00    +0.000 C 
ATOM     21  C   UNL     1       4.436   7.512  17.172  0.00  0.00    +0.000 C 
ATOM     22  C   UNL     1       2.422   8.862  17.774  0.00  0.00    +0.000 C 
ENDBRANCH  19  20
ENDBRANCH   3  19
TORSDOF 5
ENDMDL
MODEL 8
REMARK VINA RESULT:      -6.0      2.494      3.347
REMARK  Name = 
REMARK  8 active torsions:
REMARK  status: ('A' for Active; 'I' for Inactive)
REMARK    1  A    between atoms: C_1  and  C_2
REMARK    2  A    between atoms: C_2  and  C_3
REMARK    3  A    between atoms: C_4  and  S_5
REMARK    4  A    between atoms: S_5  and  C_6
REMARK    5  A    between atoms: N_12  and  O_13
REMARK    6  A    between atoms: O_13  and  C_14
REMARK    7  A    between atoms: C_14  and  C_15
REMARK    8  A    between atoms: C_14  and  C_16
REMARK                            x       y       z     vdW  Elec       q    Type
REMARK                         _______ _______ _______ _____ _____    ______ ____
ROOT
ATOM      1  C   UNL     1       4.505   6.565  17.688  0.00  0.00    +0.000 A 
ATOM      2  C   UNL     1       4.665   5.277  18.064  0.00  0.00    +0.000 A 
ATOM      3  N   UNL     1       3.709   4.655  18.884  0.00  0.00    +0.000 N 
ATOM      4  C   UNL     1       2.755   5.376  19.582  0.00  0.00    +0.000 A 
ATOM      5  S   UNL     1       1.818   4.886  20.883  0.00  0.00    +0.000 S 
ATOM      6  N   UNL     1       2.560   6.656  19.136  0.00  0.00    +0.000 N 
ATOM      7  C   UNL     1       3.283   7.273  18.161  0.00  0.00    +0.000 A 
ATOM      8  O   UNL     1       2.955   8.379  17.744  0.00  0.00    +0.000 OA
ATOM      9  H   UNL     1       1.799   7.186  19.537  0.00  0.00    +0.000 HD
ENDROOT
BRANCH   1  11
ATOM     10  C   UNL     1       6.727   7.771  17.487  0.00  0.00    +0.000 C 
ATOM     11  C   UNL     1       5.402   7.429  16.822  0.00  0.00    +0.000 C 
ENDBRANCH   1  11
BRANCH   2  12
ATOM     12  S   UNL     1       6.122   4.360  17.725  0.00  0.00    +0.000 S 
BRANCH  12  13
ATOM     13  C   UNL     1       6.292   4.387  15.954  0.00  0.00    +0.000 A 
ATOM     14  C   UNL     1       5.246   3.838  15.198  0.00  0.00    +0.000 A 
ATOM     15  C   UNL     1       5.335   3.760  13.808  0.00  0.00    +0.000 A 
ATOM     16  C   UNL     1       6.469   4.238  13.158  0.00  0.00    +0.000 A 
ATOM     17  C   UNL     1       7.497   4.824  13.893  0.00  0.00    +0.000 A 
ATOM     18  C   UNL     1       7.405   4.905  15.284  0.00  0.00    +0.000 A 
ENDBRANCH  12  13
ENDBRANCH   2  12
BRANCH   3  19
ATOM     19  O   UNL     1       3.997   3.322  19.291  0.00  0.00    +0.000 OA
BRANCH  19  20
ATOM     20  C   UNL     1       3.091   2.353  18.726  0.00  0.00    +0.000 C 
ATOM     21  C   UNL     1       2.409   2.779  17.429  0.00  0.00    +0.000 C 
ATOM     22  C   UNL     1       3.900   1.079  18.490  0.00  0.00    +0.000 C 
ENDBRANCH  19  20
ENDBRANCH   3  19
TORSDOF 5
ENDMDL
MODEL 9
REMARK VINA RESULT:      -6.0      2.487      3.296
REMARK  Name = 
REMARK  8 active torsions:
REMARK  status: ('A' for Active; 'I' for Inactive)
REMARK    1  A    between atoms: C_1  and  C_2
REMARK    2  A    between atoms: C_2  and  C_3
REMARK    3  A    between atoms: C_4  and  S_5
REMARK    4  A    between atoms: S_5  and  C_6
REMARK    5  A    between atoms: N_12  and  O_13
REMARK    6  A    between atoms: O_13  and  C_14
REMARK    7  A    between atoms: C_14  and  C_15
REMARK    8  A    between atoms: C_14  and  C_16
REMARK                            x       y       z     vdW  Elec       q    Type
REMARK                         _______ _______ _______ _____ _____    ______ ____
ROOT
ATOM      1  C   UNL     1       4.471   6.572  17.676  0.00  0.00    +0.000 A 
ATOM      2  C   UNL     1       4.630   5.288  18.067  0.00  0.00    +0.000 A 
ATOM      3  N   UNL     1       3.667   4.673  18.884  0.00  0.00    +0.000 N 
ATOM      4  C   UNL     1       2.703   5.398  19.565  0.00  0.00    +0.000 A 
ATOM      5  S   UNL     1       1.755   4.920  20.861  0.00  0.00    +0.000 S 
ATOM      6  N   UNL     1       2.510   6.673  19.103  0.00  0.00    +0.000 N 
ATOM      7  C   UNL     1       3.242   7.282  18.130  0.00  0.00    +0.000 A 
ATOM      8  O   UNL     1       2.916   8.383  17.697  0.00  0.00    +0.000 OA
ATOM      9  H   UNL     1       1.744   7.205  19.491  0.00  0.00    +0.000 HD
ENDROOT
BRANCH   1  11
ATOM     10  C   UNL     1       6.714   7.737  17.464  0.00  0.00    +0.000 C 
ATOM     11  C   UNL     1       5.374   7.429  16.811  0.00  0.00    +0.000 C 
ENDBRANCH   1  11
BRANCH   2  12
ATOM     12  S   UNL     1       6.092   4.371  17.753  0.00  0.00    +0.000 S 
BRANCH  12  13
ATOM     13  C   UNL     1       6.222   4.287  15.981  0.00  0.00    +0.000 A 
ATOM     14  C   UNL     1       7.373   4.833  15.393  0.00  0.00    +0.000 A 
ATOM     15  C   UNL     1       7.517   4.867  14.005  0.00  0.00    +0.000 A 
ATOM     16  C   UNL     1       6.515   4.347  13.191  0.00  0.00    +0.000 A 
ATOM     17  C   UNL     1       5.386   3.764  13.763  0.00  0.00    +0.000 A 
ATOM     18  C   UNL     1       5.245   3.727  15.152  0.00  0.00    +0.000 A 
ENDBRANCH  12  13
ENDBRANCH   2  12
BRANCH   3  19
ATOM     19  O   UNL     1       3.954   3.345  19.309  0.00  0.00    +0.000 OA
BRANCH  19  20
ATOM     20  C   UNL     1       3.071   2.365  18.726  0.00  0.00    +0.000 C 
ATOM     21  C   UNL     1       2.397   2.789  17.424  0.00  0.00    +0.000 C 
ATOM     22  C   UNL     1       3.903   1.106  18.492  0.00  0.00    +0.000 C 
ENDBRANCH  19  20
ENDBRANCH   3  19
TORSDOF 5
ENDMDL
