MODEL 1
REMARK VINA RESULT:      -7.5      0.000      0.000
REMARK  Name = 
REMARK  9 active torsions:
REMARK  status: ('A' for Active; 'I' for Inactive)
REMARK    1  A    between atoms: C_1  and  C_2
REMARK    2  A    between atoms: C_6  and  O_7
REMARK    3  A    between atoms: O_7  and  C_8
REMARK    4  A    between atoms: C_8  and  C_9
REMARK    5  A    between atoms: C_9  and  C_10
REMARK    6  A    between atoms: C_10  and  N_11
REMARK    7  A    between atoms: C_12  and  C_14
REMARK    8  A    between atoms: C_14  and  N_15
REMARK    9  A    between atoms: C_18  and  C_19
REMARK                            x       y       z     vdW  Elec       q    Type
REMARK                         _______ _______ _______ _____ _____    ______ ____
ROOT
ATOM      1  N   UNL     1       2.608   2.940  19.184  0.00  0.00    +0.000 N 
ATOM      2  C   UNL     1       2.653   3.186  17.826  0.00  0.00    +0.000 C 
ATOM      3  O   UNL     1       1.625   3.411  17.172  0.00  0.00    +0.000 OA
ATOM      4  H   UNL     1       3.475   2.890  19.713  0.00  0.00    +0.000 HD
ENDROOT
BRANCH   1   5
ATOM      5  C   UNL     1       1.339   2.937  19.887  0.00  0.00    +0.000 C 
BRANCH   5   6
ATOM      6  C   UNL     1       0.983   4.281  20.516  0.00  0.00    +0.000 C 
BRANCH   6   7
ATOM      7  C   UNL     1       2.250   5.009  20.961  0.00  0.00    +0.000 C 
BRANCH   7   8
ATOM      8  O   UNL     1       2.872   5.616  19.831  0.00  0.00    +0.000 OA
BRANCH   8  14
ATOM      9  C   UNL     1       0.499   9.902  20.748  0.00  0.00    +0.000 C 
ATOM     10  C   UNL     1       1.287   8.994  19.849  0.00  0.00    +0.000 A 
ATOM     11  C   UNL     1       1.627   9.388  18.550  0.00  0.00    +0.000 A 
ATOM     12  C   UNL     1       2.360   8.532  17.730  0.00  0.00    +0.000 A 
ATOM     13  C   UNL     1       2.757   7.280  18.202  0.00  0.00    +0.000 A 
ATOM     14  C   UNL     1       2.426   6.868  19.493  0.00  0.00    +0.000 A 
ATOM     15  C   UNL     1       1.692   7.731  20.313  0.00  0.00    +0.000 A 
ENDBRANCH   8  14
ENDBRANCH   7   8
ENDBRANCH   6   7
ENDBRANCH   5   6
ENDBRANCH   1   5
BRANCH   2  16
ATOM     16  C   UNL     1       4.037   3.107  17.180  0.00  0.00    +0.000 C 
BRANCH  16  17
ATOM     17  N   UNL     1       4.838   4.330  17.314  0.00  0.00    +0.000 N 
ATOM     18  C   UNL     1       5.043   5.143  16.210  0.00  0.00    +0.000 A 
ATOM     19  C   UNL     1       5.899   6.182  16.260  0.00  0.00    +0.000 A 
ATOM     20  C   UNL     1       6.525   6.550  17.513  0.00  0.00    +0.000 A 
ATOM     21  C   UNL     1       7.472   7.709  17.564  0.00  0.00    +0.000 C 
ATOM     22  C   UNL     1       6.297   5.804  18.604  0.00  0.00    +0.000 A 
ATOM     23  C   UNL     1       5.577   4.506  18.482  0.00  0.00    +0.000 A 
ATOM     24  O   UNL     1       5.713   3.670  19.356  0.00  0.00    +0.000 OA
ENDBRANCH  16  17
ENDBRANCH   2  16
TORSDOF 7
ENDMDL
MODEL 2
REMARK VINA RESULT:      -6.8      3.743      7.303
REMARK  Name = 
REMARK  9 active torsions:
REMARK  status: ('A' for Active; 'I' for Inactive)
REMARK    1  A    between atoms: C_1  and  C_2
REMARK    2  A    between atoms: C_6  and  O_7
REMARK    3  A    between atoms: O_7  and  C_8
REMARK    4  A    between atoms: C_8  and  C_9
REMARK    5  A    between atoms: C_9  and  C_10
REMARK    6  A    between atoms: C_10  and  N_11
REMARK    7  A    between atoms: C_12  and  C_14
REMARK    8  A    between atoms: C_14  and  N_15
REMARK    9  A    between atoms: C_18  and  C_19
REMARK                            x       y       z     vdW  Elec       q    Type
REMARK                         _______ _______ _______ _____ _____    ______ ____
ROOT
ATOM      1  N   UNL     1       6.137   6.221  17.680  0.00  0.00    +0.000 N 
ATOM      2  C   UNL     1       5.833   4.976  17.170  0.00  0.00    +0.000 C 
ATOM      3  O   UNL     1       6.718   4.186  16.811  0.00  0.00    +0.000 OA
ATOM      4  H   UNL     1       5.399   6.791  18.086  0.00  0.00    +0.000 HD
ENDROOT
BRANCH   1   5
ATOM      5  C   UNL     1       7.519   6.645  17.808  0.00  0.00    +0.000 C 
BRANCH   5   6
ATOM      6  C   UNL     1       7.746   8.112  17.453  0.00  0.00    +0.000 C 
BRANCH   6   7
ATOM      7  C   UNL     1       8.617   8.784  18.512  0.00  0.00    +0.000 C 
BRANCH   7   8
ATOM      8  O   UNL     1       8.413  10.195  18.470  0.00  0.00    +0.000 OA
BRANCH   8  14
ATOM      9  C   UNL     1      12.159  13.143  17.015  0.00  0.00    +0.000 C 
ATOM     10  C   UNL     1      11.382  12.421  18.077  0.00  0.00    +0.000 A 
ATOM     11  C   UNL     1      11.759  12.501  19.422  0.00  0.00    +0.000 A 
ATOM     12  C   UNL     1      11.025  11.825  20.395  0.00  0.00    +0.000 A 
ATOM     13  C   UNL     1       9.911  11.067  20.030  0.00  0.00    +0.000 A 
ATOM     14  C   UNL     1       9.520  10.973  18.693  0.00  0.00    +0.000 A 
ATOM     15  C   UNL     1      10.259  11.655  17.721  0.00  0.00    +0.000 A 
ENDBRANCH   8  14
ENDBRANCH   7   8
ENDBRANCH   6   7
ENDBRANCH   5   6
ENDBRANCH   1   5
BRANCH   2  16
ATOM     16  C   UNL     1       4.343   4.659  17.026  0.00  0.00    +0.000 C 
BRANCH  16  17
ATOM     17  N   UNL     1       3.712   4.151  18.250  0.00  0.00    +0.000 N 
ATOM     18  C   UNL     1       3.385   2.807  18.347  0.00  0.00    +0.000 A 
ATOM     19  C   UNL     1       2.665   2.340  19.386  0.00  0.00    +0.000 A 
ATOM     20  C   UNL     1       2.331   3.213  20.492  0.00  0.00    +0.000 A 
ATOM     21  C   UNL     1       1.535   2.687  21.646  0.00  0.00    +0.000 C 
ATOM     22  C   UNL     1       2.686   4.505  20.437  0.00  0.00    +0.000 A 
ATOM     23  C   UNL     1       3.232   5.076  19.174  0.00  0.00    +0.000 A 
ATOM     24  O   UNL     1       3.181   6.278  18.997  0.00  0.00    +0.000 OA
ENDBRANCH  16  17
ENDBRANCH   2  16
TORSDOF 7
ENDMDL
MODEL 3
REMARK VINA RESULT:      -6.7      1.388      1.541
REMARK  Name = 
REMARK  9 active torsions:
REMARK  status: ('A' for Active; 'I' for Inactive)
REMARK    1  A    between atoms: C_1  and  C_2
REMARK    2  A    between atoms: C_6  and  O_7
REMARK    3  A    between atoms: O_7  and  C_8
REMARK    4  A    between atoms: C_8  and  C_9
REMARK    5  A    between atoms: C_9  and  C_10
REMARK    6  A    between atoms: C_10  and  N_11
REMARK    7  A    between atoms: C_12  and  C_14
REMARK    8  A    between atoms: C_14  and  N_15
REMARK    9  A    between atoms: C_18  and  C_19
REMARK                            x       y       z     vdW  Elec       q    Type
REMARK                         _______ _______ _______ _____ _____    ______ ____
ROOT
ATOM      1  N   UNL     1       4.325   2.625  18.369  0.00  0.00    +0.000 N 
ATOM      2  C   UNL     1       4.265   3.382  17.217  0.00  0.00    +0.000 C 
ATOM      3  O   UNL     1       3.183   3.716  16.714  0.00  0.00    +0.000 OA
ATOM      4  H   UNL     1       5.221   2.480  18.827  0.00  0.00    +0.000 HD
ENDROOT
BRANCH   1   5
ATOM      5  C   UNL     1       3.107   2.191  19.026  0.00  0.00    +0.000 C 
BRANCH   5   6
ATOM      6  C   UNL     1       2.822   2.923  20.335  0.00  0.00    +0.000 C 
BRANCH   6   7
ATOM      7  C   UNL     1       3.243   4.387  20.225  0.00  0.00    +0.000 C 
BRANCH   7   8
ATOM      8  O   UNL     1       2.204   5.220  20.736  0.00  0.00    +0.000 OA
BRANCH   8  14
ATOM      9  C   UNL     1       0.693   9.966  20.576  0.00  0.00    +0.000 C 
ATOM     10  C   UNL     1       1.343   8.765  19.954  0.00  0.00    +0.000 A 
ATOM     11  C   UNL     1       1.851   8.817  18.651  0.00  0.00    +0.000 A 
ATOM     12  C   UNL     1       2.452   7.692  18.090  0.00  0.00    +0.000 A 
ATOM     13  C   UNL     1       2.551   6.511  18.826  0.00  0.00    +0.000 A 
ATOM     14  C   UNL     1       2.049   6.437  20.126  0.00  0.00    +0.000 A 
ATOM     15  C   UNL     1       1.448   7.570  20.686  0.00  0.00    +0.000 A 
ENDBRANCH   8  14
ENDBRANCH   7   8
ENDBRANCH   6   7
ENDBRANCH   5   6
ENDBRANCH   1   5
BRANCH   2  16
ATOM     16  C   UNL     1       5.610   3.734  16.578  0.00  0.00    +0.000 C 
BRANCH  16  17
ATOM     17  N   UNL     1       6.164   5.025  17.005  0.00  0.00    +0.000 N 
ATOM     18  C   UNL     1       5.551   6.202  16.604  0.00  0.00    +0.000 A 
ATOM     19  C   UNL     1       6.120   7.399  16.844  0.00  0.00    +0.000 A 
ATOM     20  C   UNL     1       7.323   7.486  17.645  0.00  0.00    +0.000 A 
ATOM     21  C   UNL     1       7.949   8.820  17.914  0.00  0.00    +0.000 C 
ATOM     22  C   UNL     1       7.900   6.358  18.085  0.00  0.00    +0.000 A 
ATOM     23  C   UNL     1       7.429   5.036  17.588  0.00  0.00    +0.000 A 
ATOM     24  O   UNL     1       8.171   4.076  17.665  0.00  0.00    +0.000 OA
ENDBRANCH  16  17
ENDBRANCH   2  16
TORSDOF 7
ENDMDL
MODEL 4
REMARK VINA RESULT:      -6.6      1.530      1.931
REMARK  Name = 
REMARK  9 active torsions:
REMARK  status: ('A' for Active; 'I' for Inactive)
REMARK    1  A    between atoms: C_1  and  C_2
REMARK    2  A    between atoms: C_6  and  O_7
REMARK    3  A    between atoms: O_7  and  C_8
REMARK    4  A    between atoms: C_8  and  C_9
REMARK    5  A    between atoms: C_9  and  C_10
REMARK    6  A    between atoms: C_10  and  N_11
REMARK    7  A    between atoms: C_12  and  C_14
REMARK    8  A    between atoms: C_14  and  N_15
REMARK    9  A    between atoms: C_18  and  C_19
REMARK                            x       y       z     vdW  Elec       q    Type
REMARK                         _______ _______ _______ _____ _____    ______ ____
ROOT
ATOM      1  N   UNL     1       2.891   4.441  17.364  0.00  0.00    +0.000 N 
ATOM      2  C   UNL     1       3.909   3.537  17.143  0.00  0.00    +0.000 C 
ATOM      3  O   UNL     1       3.941   2.439  17.717  0.00  0.00    +0.000 OA
ATOM      4  H   UNL     1       2.823   5.272  16.783  0.00  0.00    +0.000 HD
ENDROOT
BRANCH   1   5
ATOM      5  C   UNL     1       1.820   4.127  18.291  0.00  0.00    +0.000 C 
BRANCH   5   6
ATOM      6  C   UNL     1       2.268   4.069  19.749  0.00  0.00    +0.000 C 
BRANCH   6   7
ATOM      7  C   UNL     1       2.124   5.442  20.402  0.00  0.00    +0.000 C 
BRANCH   7   8
ATOM      8  O   UNL     1       2.868   6.403  19.657  0.00  0.00    +0.000 OA
BRANCH   8  14
ATOM      9  C   UNL     1       0.017  10.293  20.916  0.00  0.00    +0.000 C 
ATOM     10  C   UNL     1       0.854   9.533  19.928  0.00  0.00    +0.000 A 
ATOM     11  C   UNL     1       1.048  10.015  18.630  0.00  0.00    +0.000 A 
ATOM     12  C   UNL     1       1.829   9.297  17.726  0.00  0.00    +0.000 A 
ATOM     13  C   UNL     1       2.420   8.094  18.115  0.00  0.00    +0.000 A 
ATOM     14  C   UNL     1       2.237   7.594  19.406  0.00  0.00    +0.000 A 
ATOM     15  C   UNL     1       1.454   8.320  20.309  0.00  0.00    +0.000 A 
ENDBRANCH   8  14
ENDBRANCH   7   8
ENDBRANCH   6   7
ENDBRANCH   5   6
ENDBRANCH   1   5
BRANCH   2  16
ATOM     16  C   UNL     1       5.015   3.997  16.190  0.00  0.00    +0.000 C 
BRANCH  16  17
ATOM     17  N   UNL     1       5.958   4.956  16.776  0.00  0.00    +0.000 N 
ATOM     18  C   UNL     1       6.695   4.600  17.895  0.00  0.00    +0.000 A 
ATOM     19  C   UNL     1       7.448   5.505  18.549  0.00  0.00    +0.000 A 
ATOM     20  C   UNL     1       7.606   6.842  18.017  0.00  0.00    +0.000 A 
ATOM     21  C   UNL     1       8.448   7.843  18.746  0.00  0.00    +0.000 C 
ATOM     22  C   UNL     1       6.939   7.188  16.906  0.00  0.00    +0.000 A 
ATOM     23  C   UNL     1       5.900   6.280  16.347  0.00  0.00    +0.000 A 
ATOM     24  O   UNL     1       5.048   6.739  15.610  0.00  0.00    +0.000 OA
ENDBRANCH  16  17
ENDBRANCH   2  16
TORSDOF 7
ENDMDL
MODEL 5
REMARK VINA RESULT:      -6.6      0.893      1.390
REMARK  Name = 
REMARK  9 active torsions:
REMARK  status: ('A' for Active; 'I' for Inactive)
REMARK    1  A    between atoms: C_1  and  C_2
REMARK    2  A    between atoms: C_6  and  O_7
REMARK    3  A    between atoms: O_7  and  C_8
REMARK    4  A    between atoms: C_8  and  C_9
REMARK    5  A    between atoms: C_9  and  C_10
REMARK    6  A    between atoms: C_10  and  N_11
REMARK    7  A    between atoms: C_12  and  C_14
REMARK    8  A    between atoms: C_14  and  N_15
REMARK    9  A    between atoms: C_18  and  C_19
REMARK                            x       y       z     vdW  Elec       q    Type
REMARK                         _______ _______ _______ _____ _____    ______ ____
ROOT
ATOM      1  N   UNL     1       2.866   2.696  19.636  0.00  0.00    +0.000 N 
ATOM      2  C   UNL     1       2.932   2.803  18.262  0.00  0.00    +0.000 C 
ATOM      3  O   UNL     1       1.921   3.007  17.576  0.00  0.00    +0.000 OA
ATOM      4  H   UNL     1       3.725   2.661  20.179  0.00  0.00    +0.000 HD
ENDROOT
BRANCH   1   5
ATOM      5  C   UNL     1       1.593   2.817  20.321  0.00  0.00    +0.000 C 
BRANCH   5   6
ATOM      6  C   UNL     1       1.037   4.239  20.334  0.00  0.00    +0.000 C 
BRANCH   6   7
ATOM      7  C   UNL     1       2.008   5.181  21.042  0.00  0.00    +0.000 C 
BRANCH   7   8
ATOM      8  O   UNL     1       2.868   5.789  20.081  0.00  0.00    +0.000 OA
BRANCH   8  14
ATOM      9  C   UNL     1       0.430  10.129  20.305  0.00  0.00    +0.000 C 
ATOM     10  C   UNL     1       1.285   9.130  19.582  0.00  0.00    +0.000 A 
ATOM     11  C   UNL     1       1.724   9.373  18.276  0.00  0.00    +0.000 A 
ATOM     12  C   UNL     1       2.518   8.434  17.620  0.00  0.00    +0.000 A 
ATOM     13  C   UNL     1       2.878   7.250  18.264  0.00  0.00    +0.000 A 
ATOM     14  C   UNL     1       2.449   6.988  19.566  0.00  0.00    +0.000 A 
ATOM     15  C   UNL     1       1.654   7.934  20.221  0.00  0.00    +0.000 A 
ENDBRANCH   8  14
ENDBRANCH   7   8
ENDBRANCH   6   7
ENDBRANCH   5   6
ENDBRANCH   1   5
BRANCH   2  16
ATOM     16  C   UNL     1       4.317   2.601  17.643  0.00  0.00    +0.000 C 
BRANCH  16  17
ATOM     17  N   UNL     1       5.170   3.795  17.666  0.00  0.00    +0.000 N 
ATOM     18  C   UNL     1       5.588   4.318  18.880  0.00  0.00    +0.000 A 
ATOM     19  C   UNL     1       6.236   5.497  18.943  0.00  0.00    +0.000 A 
ATOM     20  C   UNL     1       6.626   6.180  17.727  0.00  0.00    +0.000 A 
ATOM     21  C   UNL     1       7.352   7.488  17.803  0.00  0.00    +0.000 C 
ATOM     22  C   UNL     1       6.274   5.660  16.542  0.00  0.00    +0.000 A 
ATOM     23  C   UNL     1       5.326   4.513  16.483  0.00  0.00    +0.000 A 
ATOM     24  O   UNL     1       4.715   4.304  15.452  0.00  0.00    +0.000 OA
ENDBRANCH  16  17
ENDBRANCH   2  16
TORSDOF 7
ENDMDL
MODEL 6
REMARK VINA RESULT:      -6.6      1.485      1.987
REMARK  Name = 
REMARK  9 active torsions:
REMARK  status: ('A' for Active; 'I' for Inactive)
REMARK    1  A    between atoms: C_1  and  C_2
REMARK    2  A    between atoms: C_6  and  O_7
REMARK    3  A    between atoms: O_7  and  C_8
REMARK    4  A    between atoms: C_8  and  C_9
REMARK    5  A    between atoms: C_9  and  C_10
REMARK    6  A    between atoms: C_10  and  N_11
REMARK    7  A    between atoms: C_12  and  C_14
REMARK    8  A    between atoms: C_14  and  N_15
REMARK    9  A    between atoms: C_18  and  C_19
REMARK                            x       y       z     vdW  Elec       q    Type
REMARK                         _______ _______ _______ _____ _____    ______ ____
ROOT
ATOM      1  N   UNL     1       4.279   3.050  18.268  0.00  0.00    +0.000 N 
ATOM      2  C   UNL     1       4.397   3.671  17.042  0.00  0.00    +0.000 C 
ATOM      3  O   UNL     1       3.405   4.067  16.415  0.00  0.00    +0.000 OA
ATOM      4  H   UNL     1       5.114   2.857  18.816  0.00  0.00    +0.000 HD
ENDROOT
BRANCH   1   5
ATOM      5  C   UNL     1       2.971   2.838  18.860  0.00  0.00    +0.000 C 
BRANCH   5   6
ATOM      6  C   UNL     1       2.935   3.074  20.368  0.00  0.00    +0.000 C 
BRANCH   6   7
ATOM      7  C   UNL     1       2.627   4.540  20.666  0.00  0.00    +0.000 C 
BRANCH   7   8
ATOM      8  O   UNL     1       3.382   5.373  19.789  0.00  0.00    +0.000 OA
BRANCH   8  14
ATOM      9  C   UNL     1       0.396   9.282  20.588  0.00  0.00    +0.000 C 
ATOM     10  C   UNL     1       1.371   8.515  19.743  0.00  0.00    +0.000 A 
ATOM     11  C   UNL     1       1.767   8.994  18.490  0.00  0.00    +0.000 A 
ATOM     12  C   UNL     1       2.673   8.270  17.718  0.00  0.00    +0.000 A 
ATOM     13  C   UNL     1       3.190   7.064  18.195  0.00  0.00    +0.000 A 
ATOM     14  C   UNL     1       2.806   6.567  19.442  0.00  0.00    +0.000 A 
ATOM     15  C   UNL     1       1.897   7.300  20.212  0.00  0.00    +0.000 A 
ENDBRANCH   8  14
ENDBRANCH   7   8
ENDBRANCH   6   7
ENDBRANCH   5   6
ENDBRANCH   1   5
BRANCH   2  16
ATOM     16  C   UNL     1       5.819   3.790  16.489  0.00  0.00    +0.000 C 
BRANCH  16  17
ATOM     17  N   UNL     1       6.552   4.974  16.953  0.00  0.00    +0.000 N 
ATOM     18  C   UNL     1       7.252   4.924  18.149  0.00  0.00    +0.000 A 
ATOM     19  C   UNL     1       7.801   6.033  18.680  0.00  0.00    +0.000 A 
ATOM     20  C   UNL     1       7.784   7.279  17.943  0.00  0.00    +0.000 A 
ATOM     21  C   UNL     1       8.401   8.508  18.536  0.00  0.00    +0.000 C 
ATOM     22  C   UNL     1       7.155   7.332  16.760  0.00  0.00    +0.000 A 
ATOM     23  C   UNL     1       6.317   6.187  16.309  0.00  0.00    +0.000 A 
ATOM     24  O   UNL     1       5.460   6.376  15.467  0.00  0.00    +0.000 OA
ENDBRANCH  16  17
ENDBRANCH   2  16
TORSDOF 7
ENDMDL
MODEL 7
REMARK VINA RESULT:      -6.6      1.332      1.778
REMARK  Name = 
REMARK  9 active torsions:
REMARK  status: ('A' for Active; 'I' for Inactive)
REMARK    1  A    between atoms: C_1  and  C_2
REMARK    2  A    between atoms: C_6  and  O_7
REMARK    3  A    between atoms: O_7  and  C_8
REMARK    4  A    between atoms: C_8  and  C_9
REMARK    5  A    between atoms: C_9  and  C_10
REMARK    6  A    between atoms: C_10  and  N_11
REMARK    7  A    between atoms: C_12  and  C_14
REMARK    8  A    between atoms: C_14  and  N_15
REMARK    9  A    between atoms: C_18  and  C_19
REMARK                            x       y       z     vdW  Elec       q    Type
REMARK                         _______ _______ _______ _____ _____    ______ ____
ROOT
ATOM      1  N   UNL     1       2.157   3.159  18.637  0.00  0.00    +0.000 N 
ATOM      2  C   UNL     1       3.375   2.647  18.239  0.00  0.00    +0.000 C 
ATOM      3  O   UNL     1       3.912   1.705  18.838  0.00  0.00    +0.000 OA
ATOM      4  H   UNL     1       1.684   3.841  18.049  0.00  0.00    +0.000 HD
ENDROOT
BRANCH   1   5
ATOM      5  C   UNL     1       1.467   2.602  19.784  0.00  0.00    +0.000 C 
BRANCH   5   6
ATOM      6  C   UNL     1       1.620   3.435  21.055  0.00  0.00    +0.000 C 
BRANCH   6   7
ATOM      7  C   UNL     1       2.528   4.635  20.796  0.00  0.00    +0.000 C 
BRANCH   7   8
ATOM      8  O   UNL     1       1.793   5.840  20.998  0.00  0.00    +0.000 OA
BRANCH   8  14
ATOM      9  C   UNL     1       1.018  10.377  19.088  0.00  0.00    +0.000 C 
ATOM     10  C   UNL     1       1.628   9.007  19.032  0.00  0.00    +0.000 A 
ATOM     11  C   UNL     1       2.429   8.621  17.953  0.00  0.00    +0.000 A 
ATOM     12  C   UNL     1       2.988   7.345  17.918  0.00  0.00    +0.000 A 
ATOM     13  C   UNL     1       2.750   6.448  18.961  0.00  0.00    +0.000 A 
ATOM     14  C   UNL     1       1.951   6.813  20.046  0.00  0.00    +0.000 A 
ATOM     15  C   UNL     1       1.394   8.096  20.077  0.00  0.00    +0.000 A 
ENDBRANCH   8  14
ENDBRANCH   7   8
ENDBRANCH   6   7
ENDBRANCH   5   6
ENDBRANCH   1   5
BRANCH   2  16
ATOM     16  C   UNL     1       4.039   3.349  17.052  0.00  0.00    +0.000 C 
BRANCH  16  17
ATOM     17  N   UNL     1       5.149   4.237  17.418  0.00  0.00    +0.000 N 
ATOM     18  C   UNL     1       5.498   4.389  18.751  0.00  0.00    +0.000 A 
ATOM     19  C   UNL     1       6.401   5.311  19.134  0.00  0.00    +0.000 A 
ATOM     20  C   UNL     1       7.126   6.077  18.141  0.00  0.00    +0.000 A 
ATOM     21  C   UNL     1       8.134   7.097  18.571  0.00  0.00    +0.000 C 
ATOM     22  C   UNL     1       6.837   5.905  16.842  0.00  0.00    +0.000 A 
ATOM     23  C   UNL     1       5.653   5.095  16.443  0.00  0.00    +0.000 A 
ATOM     24  O   UNL     1       5.170   5.258  15.339  0.00  0.00    +0.000 OA
ENDBRANCH  16  17
ENDBRANCH   2  16
TORSDOF 7
ENDMDL
MODEL 8
REMARK VINA RESULT:      -6.4      1.839      5.547
REMARK  Name = 
REMARK  9 active torsions:
REMARK  status: ('A' for Active; 'I' for Inactive)
REMARK    1  A    between atoms: C_1  and  C_2
REMARK    2  A    between atoms: C_6  and  O_7
REMARK    3  A    between atoms: O_7  and  C_8
REMARK    4  A    between atoms: C_8  and  C_9
REMARK    5  A    between atoms: C_9  and  C_10
REMARK    6  A    between atoms: C_10  and  N_11
REMARK    7  A    between atoms: C_12  and  C_14
REMARK    8  A    between atoms: C_14  and  N_15
REMARK    9  A    between atoms: C_18  and  C_19
REMARK                            x       y       z     vdW  Elec       q    Type
REMARK                         _______ _______ _______ _____ _____    ______ ____
ROOT
ATOM      1  N   UNL     1       2.049   4.634  18.583  0.00  0.00    +0.000 N 
ATOM      2  C   UNL     1       2.001   5.352  19.761  0.00  0.00    +0.000 C 
ATOM      3  O   UNL     1       1.346   4.959  20.736  0.00  0.00    +0.000 OA
ATOM      4  H   UNL     1       2.697   4.914  17.852  0.00  0.00    +0.000 HD
ENDROOT
BRANCH   1   5
ATOM      5  C   UNL     1       1.320   3.387  18.454  0.00  0.00    +0.000 C 
BRANCH   5   6
ATOM      6  C   UNL     1       2.211   2.148  18.501  0.00  0.00    +0.000 C 
BRANCH   6   7
ATOM      7  C   UNL     1       3.681   2.550  18.398  0.00  0.00    +0.000 C 
BRANCH   7   8
ATOM      8  O   UNL     1       3.926   3.138  17.123  0.00  0.00    +0.000 OA
BRANCH   8  14
ATOM      9  C   UNL     1       7.669   5.787  19.073  0.00  0.00    +0.000 C 
ATOM     10  C   UNL     1       6.851   5.318  17.905  0.00  0.00    +0.000 A 
ATOM     11  C   UNL     1       7.144   5.743  16.605  0.00  0.00    +0.000 A 
ATOM     12  C   UNL     1       6.374   5.297  15.533  0.00  0.00    +0.000 A 
ATOM     13  C   UNL     1       5.308   4.423  15.753  0.00  0.00    +0.000 A 
ATOM     14  C   UNL     1       4.997   3.989  17.043  0.00  0.00    +0.000 A 
ATOM     15  C   UNL     1       5.775   4.438  18.116  0.00  0.00    +0.000 A 
ENDBRANCH   8  14
ENDBRANCH   7   8
ENDBRANCH   6   7
ENDBRANCH   5   6
ENDBRANCH   1   5
BRANCH   2  16
ATOM     16  C   UNL     1       2.761   6.680  19.765  0.00  0.00    +0.000 C 
BRANCH  16  17
ATOM     17  N   UNL     1       1.931   7.853  19.464  0.00  0.00    +0.000 N 
ATOM     18  C   UNL     1       1.994   8.436  18.208  0.00  0.00    +0.000 A 
ATOM     19  C   UNL     1       1.370   9.601  17.949  0.00  0.00    +0.000 A 
ATOM     20  C   UNL     1       0.507  10.202  18.945  0.00  0.00    +0.000 A 
ATOM     21  C   UNL     1      -0.190  11.494  18.650  0.00  0.00    +0.000 C 
ATOM     22  C   UNL     1       0.394   9.622  20.149  0.00  0.00    +0.000 A 
ATOM     23  C   UNL     1       1.295   8.497  20.523  0.00  0.00    +0.000 A 
ATOM     24  O   UNL     1       1.466   8.242  21.699  0.00  0.00    +0.000 OA
ENDBRANCH  16  17
ENDBRANCH   2  16
TORSDOF 7
ENDMDL
MODEL 9
REMARK VINA RESULT:      -6.4      1.803      5.505
REMARK  Name = 
REMARK  9 active torsions:
REMARK  status: ('A' for Active; 'I' for Inactive)
REMARK    1  A    between atoms: C_1  and  C_2
REMARK    2  A    between atoms: C_6  and  O_7
REMARK    3  A    between atoms: O_7  and  C_8
REMARK    4  A    between atoms: C_8  and  C_9
REMARK    5  A    between atoms: C_9  and  C_10
REMARK    6  A    between atoms: C_10  and  N_11
REMARK    7  A    between atoms: C_12  and  C_14
REMARK    8  A    between atoms: C_14  and  N_15
REMARK    9  A    between atoms: C_18  and  C_19
REMARK                            x       y       z     vdW  Elec       q    Type
REMARK                         _______ _______ _______ _____ _____    ______ ____
ROOT
ATOM      1  N   UNL     1       2.344   5.134  20.135  0.00  0.00    +0.000 N 
ATOM      2  C   UNL     1       2.375   5.849  18.955  0.00  0.00    +0.000 C 
ATOM      3  O   UNL     1       2.084   5.325  17.870  0.00  0.00    +0.000 OA
ATOM      4  H   UNL     1       2.459   5.622  21.020  0.00  0.00    +0.000 HD
ENDROOT
BRANCH   1   5
ATOM      5  C   UNL     1       1.969   3.733  20.135  0.00  0.00    +0.000 C 
BRANCH   5   6
ATOM      6  C   UNL     1       3.098   2.796  20.557  0.00  0.00    +0.000 C 
BRANCH   6   7
ATOM      7  C   UNL     1       4.055   2.560  19.390  0.00  0.00    +0.000 C 
BRANCH   7   8
ATOM      8  O   UNL     1       5.205   3.389  19.544  0.00  0.00    +0.000 OA
BRANCH   8  14
ATOM      9  C   UNL     1       7.274   7.462  17.551  0.00  0.00    +0.000 C 
ATOM     10  C   UNL     1       6.449   6.212  17.445  0.00  0.00    +0.000 A 
ATOM     11  C   UNL     1       5.879   5.829  16.226  0.00  0.00    +0.000 A 
ATOM     12  C   UNL     1       5.116   4.666  16.147  0.00  0.00    +0.000 A 
ATOM     13  C   UNL     1       4.919   3.879  17.282  0.00  0.00    +0.000 A 
ATOM     14  C   UNL     1       5.478   4.245  18.508  0.00  0.00    +0.000 A 
ATOM     15  C   UNL     1       6.244   5.412  18.582  0.00  0.00    +0.000 A 
ENDBRANCH   8  14
ENDBRANCH   7   8
ENDBRANCH   6   7
ENDBRANCH   5   6
ENDBRANCH   1   5
BRANCH   2  16
ATOM     16  C   UNL     1       2.840   7.302  19.067  0.00  0.00    +0.000 C 
BRANCH  16  17
ATOM     17  N   UNL     1       1.752   8.277  19.196  0.00  0.00    +0.000 N 
ATOM     18  C   UNL     1       1.401   9.064  18.110  0.00  0.00    +0.000 A 
ATOM     19  C   UNL     1       0.519  10.073  18.237  0.00  0.00    +0.000 A 
ATOM     20  C   UNL     1      -0.182  10.275  19.489  0.00  0.00    +0.000 A 
ATOM     21  C   UNL     1      -1.166  11.396  19.624  0.00  0.00    +0.000 C 
ATOM     22  C   UNL     1       0.109   9.489  20.536  0.00  0.00    +0.000 A 
ATOM     23  C   UNL     1       1.273   8.563  20.473  0.00  0.00    +0.000 A 
ATOM     24  O   UNL     1       1.766   8.160  21.509  0.00  0.00    +0.000 OA
ENDBRANCH  16  17
ENDBRANCH   2  16
TORSDOF 7
ENDMDL
