MODEL 1
REMARK VINA RESULT:      -6.7      0.000      0.000
REMARK  Name = 
REMARK  12 active torsions:
REMARK  status: ('A' for Active; 'I' for Inactive)
REMARK    1  A    between atoms: C_1  and  O_2
REMARK    2  A    between atoms: O_2  and  C_3
REMARK    3  A    between atoms: C_3  and  C_4
REMARK    4  A    between atoms: C_4  and  N_5
REMARK    5  A    between atoms: C_6  and  C_8
REMARK    6  A    between atoms: C_8  and  C_9
REMARK    7  A    between atoms: C_8  and  N_10
REMARK    8  A    between atoms: N_10  and  C_11
REMARK    9  A    between atoms: N_10  and  S_19
REMARK   10  A    between atoms: C_14  and  O_15
REMARK   11  A    between atoms: O_15  and  C_16
REMARK   12  A    between atoms: S_19  and  C_20
REMARK                            x       y       z     vdW  Elec       q    Type
REMARK                         _______ _______ _______ _____ _____    ______ ____
ROOT
ATOM      1  N   UNL     1       5.529   4.994  18.003  0.00  0.00    +0.000 N 
ENDROOT
BRANCH   1   2
ATOM      2  C   UNL     1       4.528   5.970  18.301  0.00  0.00    +0.000 A 
ATOM      3  C   UNL     1       4.257   7.014  17.414  0.00  0.00    +0.000 A 
ATOM      4  C   UNL     1       3.202   7.891  17.673  0.00  0.00    +0.000 A 
ATOM      5  C   UNL     1       2.397   7.714  18.798  0.00  0.00    +0.000 A 
ATOM      6  C   UNL     1       2.695   6.695  19.703  0.00  0.00    +0.000 A 
ATOM      7  C   UNL     1       3.769   5.830  19.460  0.00  0.00    +0.000 A 
BRANCH   5   8
ATOM      8  O   UNL     1       1.372   8.611  18.924  0.00  0.00    +0.000 OA
ATOM      9  C   UNL     1       1.371   9.681  17.984  0.00  0.00    +0.000 C 
ENDBRANCH   5   8
ENDBRANCH   1   2
BRANCH   1  10
ATOM     10  S   UNL     1       7.125   5.337  18.459  0.00  0.00    +0.000 S 
ATOM     11  C   UNL     1       7.438   6.939  17.732  0.00  0.00    +0.000 C 
ATOM     12  O   UNL     1       7.175   5.505  19.900  0.00  0.00    +0.000 OA
ATOM     13  O   UNL     1       7.989   4.380  17.808  0.00  0.00    +0.000 OA
ENDBRANCH   1  10
BRANCH   1  14
ATOM     14  C   UNL     1       5.226   3.821  17.122  0.00  0.00    +0.000 C 
ATOM     15  C   UNL     1       5.260   4.175  15.624  0.00  0.00    +0.000 C 
BRANCH  14  17
ATOM     16  N   UNL     1       3.774   2.282  18.446  0.00  0.00    +0.000 N 
ATOM     17  C   UNL     1       3.876   3.131  17.373  0.00  0.00    +0.000 C 
ATOM     18  O   UNL     1       2.924   3.277  16.605  0.00  0.00    +0.000 OA
ATOM     19  H   UNL     1       4.577   2.116  19.041  0.00  0.00    +0.000 HD
BRANCH  16  20
ATOM     20  C   UNL     1       2.508   1.619  18.721  0.00  0.00    +0.000 C 
BRANCH  20  21
ATOM     21  C   UNL     1       1.539   2.468  19.536  0.00  0.00    +0.000 C 
BRANCH  21  23
ATOM     22  C   UNL     1       2.048   3.401  21.641  0.00  0.00    +0.000 C 
ATOM     23  O   UNL     1       1.748   2.210  20.927  0.00  0.00    +0.000 OA
ENDBRANCH  21  23
ENDBRANCH  20  21
ENDBRANCH  16  20
ENDBRANCH  14  17
ENDBRANCH   1  14
TORSDOF 8
ENDMDL
MODEL 2
REMARK VINA RESULT:      -6.6      2.463      5.205
REMARK  Name = 
REMARK  12 active torsions:
REMARK  status: ('A' for Active; 'I' for Inactive)
REMARK    1  A    between atoms: C_1  and  O_2
REMARK    2  A    between atoms: O_2  and  C_3
REMARK    3  A    between atoms: C_3  and  C_4
REMARK    4  A    between atoms: C_4  and  N_5
REMARK    5  A    between atoms: C_6  and  C_8
REMARK    6  A    between atoms: C_8  and  C_9
REMARK    7  A    between atoms: C_8  and  N_10
REMARK    8  A    between atoms: N_10  and  C_11
REMARK    9  A    between atoms: N_10  and  S_19
REMARK   10  A    between atoms: C_14  and  O_15
REMARK   11  A    between atoms: O_15  and  C_16
REMARK   12  A    between atoms: S_19  and  C_20
REMARK                            x       y       z     vdW  Elec       q    Type
REMARK                         _______ _______ _______ _____ _____    ______ ____
ROOT
ATOM      1  N   UNL     1       6.069   5.237  17.429  0.00  0.00    +0.000 N 
ENDROOT
BRANCH   1   2
ATOM      2  C   UNL     1       4.842   4.639  17.854  0.00  0.00    +0.000 A 
ATOM      3  C   UNL     1       4.422   3.413  17.332  0.00  0.00    +0.000 A 
ATOM      4  C   UNL     1       3.278   2.795  17.841  0.00  0.00    +0.000 A 
ATOM      5  C   UNL     1       2.567   3.380  18.889  0.00  0.00    +0.000 A 
ATOM      6  C   UNL     1       2.965   4.623  19.380  0.00  0.00    +0.000 A 
ATOM      7  C   UNL     1       4.096   5.259  18.854  0.00  0.00    +0.000 A 
BRANCH   5   8
ATOM      8  O   UNL     1       1.488   2.663  19.328  0.00  0.00    +0.000 OA
ATOM      9  C   UNL     1       0.702   3.289  20.338  0.00  0.00    +0.000 C 
ENDBRANCH   5   8
ENDBRANCH   1   2
BRANCH   1  10
ATOM     10  S   UNL     1       7.353   5.270  18.533  0.00  0.00    +0.000 S 
ATOM     11  C   UNL     1       8.017   6.921  18.363  0.00  0.00    +0.000 C 
ATOM     12  O   UNL     1       6.818   5.163  19.879  0.00  0.00    +0.000 OA
ATOM     13  O   UNL     1       8.358   4.341  18.074  0.00  0.00    +0.000 OA
ENDBRANCH   1  10
BRANCH   1  14
ATOM     14  C   UNL     1       6.148   6.008  16.148  0.00  0.00    +0.000 C 
ATOM     15  C   UNL     1       4.787   6.574  15.705  0.00  0.00    +0.000 C 
BRANCH  14  17
ATOM     16  N   UNL     1       5.874   4.381  14.274  0.00  0.00    +0.000 N 
ATOM     17  C   UNL     1       6.711   5.239  14.942  0.00  0.00    +0.000 C 
ATOM     18  O   UNL     1       7.894   5.332  14.612  0.00  0.00    +0.000 OA
ATOM     19  H   UNL     1       4.917   4.260  14.585  0.00  0.00    +0.000 HD
BRANCH  16  20
ATOM     20  C   UNL     1       6.369   3.644  13.121  0.00  0.00    +0.000 C 
BRANCH  20  21
ATOM     21  C   UNL     1       5.304   3.377  12.064  0.00  0.00    +0.000 C 
BRANCH  21  23
ATOM     22  C   UNL     1       6.790   1.764  11.199  0.00  0.00    +0.000 C 
ATOM     23  O   UNL     1       5.449   2.039  11.582  0.00  0.00    +0.000 OA
ENDBRANCH  21  23
ENDBRANCH  20  21
ENDBRANCH  16  20
ENDBRANCH  14  17
ENDBRANCH   1  14
TORSDOF 8
ENDMDL
MODEL 3
REMARK VINA RESULT:      -6.6      2.862      5.538
REMARK  Name = 
REMARK  12 active torsions:
REMARK  status: ('A' for Active; 'I' for Inactive)
REMARK    1  A    between atoms: C_1  and  O_2
REMARK    2  A    between atoms: O_2  and  C_3
REMARK    3  A    between atoms: C_3  and  C_4
REMARK    4  A    between atoms: C_4  and  N_5
REMARK    5  A    between atoms: C_6  and  C_8
REMARK    6  A    between atoms: C_8  and  C_9
REMARK    7  A    between atoms: C_8  and  N_10
REMARK    8  A    between atoms: N_10  and  C_11
REMARK    9  A    between atoms: N_10  and  S_19
REMARK   10  A    between atoms: C_14  and  O_15
REMARK   11  A    between atoms: O_15  and  C_16
REMARK   12  A    between atoms: S_19  and  C_20
REMARK                            x       y       z     vdW  Elec       q    Type
REMARK                         _______ _______ _______ _____ _____    ______ ____
ROOT
ATOM      1  N   UNL     1       5.332   5.033  17.222  0.00  0.00    +0.000 N 
ENDROOT
BRANCH   1   2
ATOM      2  C   UNL     1       4.264   4.412  17.942  0.00  0.00    +0.000 A 
ATOM      3  C   UNL     1       4.354   4.201  19.320  0.00  0.00    +0.000 A 
ATOM      4  C   UNL     1       3.257   3.694  20.019  0.00  0.00    +0.000 A 
ATOM      5  C   UNL     1       2.060   3.425  19.356  0.00  0.00    +0.000 A 
ATOM      6  C   UNL     1       1.987   3.599  17.974  0.00  0.00    +0.000 A 
ATOM      7  C   UNL     1       3.093   4.081  17.265  0.00  0.00    +0.000 A 
BRANCH   5   8
ATOM      8  O   UNL     1       1.046   2.969  20.153  0.00  0.00    +0.000 OA
ATOM      9  C   UNL     1       1.364   2.830  21.534  0.00  0.00    +0.000 C 
ENDBRANCH   5   8
ENDBRANCH   1   2
BRANCH   1  10
ATOM     10  S   UNL     1       5.135   6.651  16.761  0.00  0.00    +0.000 S 
ATOM     11  C   UNL     1       6.668   7.424  17.259  0.00  0.00    +0.000 C 
ATOM     12  O   UNL     1       5.074   6.722  15.312  0.00  0.00    +0.000 OA
ATOM     13  O   UNL     1       4.075   7.217  17.561  0.00  0.00    +0.000 OA
ENDBRANCH   1  10
BRANCH   1  14
ATOM     14  C   UNL     1       6.479   4.227  16.696  0.00  0.00    +0.000 C 
ATOM     15  C   UNL     1       7.803   4.525  17.423  0.00  0.00    +0.000 C 
BRANCH  14  17
ATOM     16  N   UNL     1       6.069   3.589  14.317  0.00  0.00    +0.000 N 
ATOM     17  C   UNL     1       6.767   4.381  15.194  0.00  0.00    +0.000 C 
ATOM     18  O   UNL     1       7.641   5.144  14.778  0.00  0.00    +0.000 OA
ATOM     19  H   UNL     1       5.394   2.918  14.665  0.00  0.00    +0.000 HD
BRANCH  16  20
ATOM     20  C   UNL     1       6.307   3.714  12.887  0.00  0.00    +0.000 C 
BRANCH  20  21
ATOM     21  C   UNL     1       5.149   3.220  12.030  0.00  0.00    +0.000 C 
BRANCH  21  23
ATOM     22  C   UNL     1       6.986   1.941  11.289  0.00  0.00    +0.000 C 
ATOM     23  O   UNL     1       5.571   2.071  11.290  0.00  0.00    +0.000 OA
ENDBRANCH  21  23
ENDBRANCH  20  21
ENDBRANCH  16  20
ENDBRANCH  14  17
ENDBRANCH   1  14
TORSDOF 8
ENDMDL
MODEL 4
REMARK VINA RESULT:      -6.6      2.263      5.140
REMARK  Name = 
REMARK  12 active torsions:
REMARK  status: ('A' for Active; 'I' for Inactive)
REMARK    1  A    between atoms: C_1  and  O_2
REMARK    2  A    between atoms: O_2  and  C_3
REMARK    3  A    between atoms: C_3  and  C_4
REMARK    4  A    between atoms: C_4  and  N_5
REMARK    5  A    between atoms: C_6  and  C_8
REMARK    6  A    between atoms: C_8  and  C_9
REMARK    7  A    between atoms: C_8  and  N_10
REMARK    8  A    between atoms: N_10  and  C_11
REMARK    9  A    between atoms: N_10  and  S_19
REMARK   10  A    between atoms: C_14  and  O_15
REMARK   11  A    between atoms: O_15  and  C_16
REMARK   12  A    between atoms: S_19  and  C_20
REMARK                            x       y       z     vdW  Elec       q    Type
REMARK                         _______ _______ _______ _____ _____    ______ ____
ROOT
ATOM      1  N   UNL     1       5.912   5.527  18.118  0.00  0.00    +0.000 N 
ENDROOT
BRANCH   1   2
ATOM      2  C   UNL     1       4.909   4.653  18.642  0.00  0.00    +0.000 A 
ATOM      3  C   UNL     1       4.120   5.036  19.730  0.00  0.00    +0.000 A 
ATOM      4  C   UNL     1       3.075   4.214  20.155  0.00  0.00    +0.000 A 
ATOM      5  C   UNL     1       2.793   3.025  19.482  0.00  0.00    +0.000 A 
ATOM      6  C   UNL     1       3.608   2.626  18.422  0.00  0.00    +0.000 A 
ATOM      7  C   UNL     1       4.674   3.435  18.010  0.00  0.00    +0.000 A 
BRANCH   5   8
ATOM      8  O   UNL     1       1.723   2.325  19.966  0.00  0.00    +0.000 OA
ATOM      9  C   UNL     1       0.669   3.111  20.515  0.00  0.00    +0.000 C 
ENDBRANCH   5   8
ENDBRANCH   1   2
BRANCH   1  10
ATOM     10  S   UNL     1       7.454   5.466  18.818  0.00  0.00    +0.000 S 
ATOM     11  C   UNL     1       8.130   7.089  18.495  0.00  0.00    +0.000 C 
ATOM     12  O   UNL     1       7.311   5.343  20.257  0.00  0.00    +0.000 OA
ATOM     13  O   UNL     1       8.240   4.506  18.081  0.00  0.00    +0.000 OA
ENDBRANCH   1  10
BRANCH   1  14
ATOM     14  C   UNL     1       5.559   6.613  17.149  0.00  0.00    +0.000 C 
ATOM     15  C   UNL     1       4.106   7.097  17.297  0.00  0.00    +0.000 C 
BRANCH  14  17
ATOM     16  N   UNL     1       6.695   5.326  15.335  0.00  0.00    +0.000 N 
ATOM     17  C   UNL     1       5.753   6.268  15.664  0.00  0.00    +0.000 C 
ATOM     18  O   UNL     1       5.131   6.858  14.778  0.00  0.00    +0.000 OA
ATOM     19  H   UNL     1       7.248   4.887  16.062  0.00  0.00    +0.000 HD
BRANCH  16  20
ATOM     20  C   UNL     1       6.897   4.967  13.940  0.00  0.00    +0.000 C 
BRANCH  20  21
ATOM     21  C   UNL     1       6.177   3.688  13.529  0.00  0.00    +0.000 C 
BRANCH  21  23
ATOM     22  C   UNL     1       5.124   2.750  11.639  0.00  0.00    +0.000 C 
ATOM     23  O   UNL     1       6.170   3.593  12.102  0.00  0.00    +0.000 OA
ENDBRANCH  21  23
ENDBRANCH  20  21
ENDBRANCH  16  20
ENDBRANCH  14  17
ENDBRANCH   1  14
TORSDOF 8
ENDMDL
MODEL 5
REMARK VINA RESULT:      -6.5      1.283      1.729
REMARK  Name = 
REMARK  12 active torsions:
REMARK  status: ('A' for Active; 'I' for Inactive)
REMARK    1  A    between atoms: C_1  and  O_2
REMARK    2  A    between atoms: O_2  and  C_3
REMARK    3  A    between atoms: C_3  and  C_4
REMARK    4  A    between atoms: C_4  and  N_5
REMARK    5  A    between atoms: C_6  and  C_8
REMARK    6  A    between atoms: C_8  and  C_9
REMARK    7  A    between atoms: C_8  and  N_10
REMARK    8  A    between atoms: N_10  and  C_11
REMARK    9  A    between atoms: N_10  and  S_19
REMARK   10  A    between atoms: C_14  and  O_15
REMARK   11  A    between atoms: O_15  and  C_16
REMARK   12  A    between atoms: S_19  and  C_20
REMARK                            x       y       z     vdW  Elec       q    Type
REMARK                         _______ _______ _______ _____ _____    ______ ____
ROOT
ATOM      1  N   UNL     1       5.119   5.132  18.266  0.00  0.00    +0.000 N 
ENDROOT
BRANCH   1   2
ATOM      2  C   UNL     1       4.061   6.079  18.424  0.00  0.00    +0.000 A 
ATOM      3  C   UNL     1       3.262   6.079  19.569  0.00  0.00    +0.000 A 
ATOM      4  C   UNL     1       2.307   7.081  19.752  0.00  0.00    +0.000 A 
ATOM      5  C   UNL     1       2.166   8.101  18.812  0.00  0.00    +0.000 A 
ATOM      6  C   UNL     1       2.937   8.077  17.650  0.00  0.00    +0.000 A 
ATOM      7  C   UNL     1       3.877   7.058  17.450  0.00  0.00    +0.000 A 
BRANCH   5   8
ATOM      8  O   UNL     1       1.226   9.046  19.119  0.00  0.00    +0.000 OA
ATOM      9  C   UNL     1       1.410  10.320  18.509  0.00  0.00    +0.000 C 
ENDBRANCH   5   8
ENDBRANCH   1   2
BRANCH   1  10
ATOM     10  S   UNL     1       6.704   5.668  18.533  0.00  0.00    +0.000 S 
ATOM     11  C   UNL     1       7.705   4.510  17.610  0.00  0.00    +0.000 C 
ATOM     12  O   UNL     1       6.871   6.968  17.907  0.00  0.00    +0.000 OA
ATOM     13  O   UNL     1       7.004   5.492  19.934  0.00  0.00    +0.000 OA
ENDBRANCH   1  10
BRANCH   1  14
ATOM     14  C   UNL     1       4.865   3.783  17.666  0.00  0.00    +0.000 C 
ATOM     15  C   UNL     1       4.324   3.861  16.227  0.00  0.00    +0.000 C 
BRANCH  14  17
ATOM     16  N   UNL     1       2.586   2.832  18.036  0.00  0.00    +0.000 N 
ATOM     17  C   UNL     1       3.895   2.881  18.445  0.00  0.00    +0.000 C 
ATOM     18  O   UNL     1       4.253   2.263  19.449  0.00  0.00    +0.000 OA
ATOM     19  H   UNL     1       2.280   3.390  17.247  0.00  0.00    +0.000 HD
BRANCH  16  20
ATOM     20  C   UNL     1       1.642   1.980  18.743  0.00  0.00    +0.000 C 
BRANCH  20  21
ATOM     21  C   UNL     1       0.527   2.752  19.438  0.00  0.00    +0.000 C 
BRANCH  21  23
ATOM     22  C   UNL     1       1.502   2.669  21.583  0.00  0.00    +0.000 C 
ATOM     23  O   UNL     1       1.084   3.509  20.516  0.00  0.00    +0.000 OA
ENDBRANCH  21  23
ENDBRANCH  20  21
ENDBRANCH  16  20
ENDBRANCH  14  17
ENDBRANCH   1  14
TORSDOF 8
ENDMDL
MODEL 6
REMARK VINA RESULT:      -6.5      2.197      5.499
REMARK  Name = 
REMARK  12 active torsions:
REMARK  status: ('A' for Active; 'I' for Inactive)
REMARK    1  A    between atoms: C_1  and  O_2
REMARK    2  A    between atoms: O_2  and  C_3
REMARK    3  A    between atoms: C_3  and  C_4
REMARK    4  A    between atoms: C_4  and  N_5
REMARK    5  A    between atoms: C_6  and  C_8
REMARK    6  A    between atoms: C_8  and  C_9
REMARK    7  A    between atoms: C_8  and  N_10
REMARK    8  A    between atoms: N_10  and  C_11
REMARK    9  A    between atoms: N_10  and  S_19
REMARK   10  A    between atoms: C_14  and  O_15
REMARK   11  A    between atoms: O_15  and  C_16
REMARK   12  A    between atoms: S_19  and  C_20
REMARK                            x       y       z     vdW  Elec       q    Type
REMARK                         _______ _______ _______ _____ _____    ______ ____
ROOT
ATOM      1  N   UNL     1       3.639   4.005  18.908  0.00  0.00    +0.000 N 
ENDROOT
BRANCH   1   2
ATOM      2  C   UNL     1       4.685   4.341  17.993  0.00  0.00    +0.000 A 
ATOM      3  C   UNL     1       4.632   3.928  16.659  0.00  0.00    +0.000 A 
ATOM      4  C   UNL     1       5.607   4.360  15.758  0.00  0.00    +0.000 A 
ATOM      5  C   UNL     1       6.618   5.226  16.173  0.00  0.00    +0.000 A 
ATOM      6  C   UNL     1       6.691   5.604  17.514  0.00  0.00    +0.000 A 
ATOM      7  C   UNL     1       5.731   5.152  18.426  0.00  0.00    +0.000 A 
BRANCH   5   8
ATOM      8  O   UNL     1       7.491   5.610  15.193  0.00  0.00    +0.000 OA
ATOM      9  C   UNL     1       7.316   4.976  13.929  0.00  0.00    +0.000 C 
ENDBRANCH   5   8
ENDBRANCH   1   2
BRANCH   1  10
ATOM     10  S   UNL     1       3.795   2.566  19.788  0.00  0.00    +0.000 S 
ATOM     11  C   UNL     1       3.460   1.292  18.580  0.00  0.00    +0.000 C 
ATOM     12  O   UNL     1       5.180   2.413  20.196  0.00  0.00    +0.000 OA
ATOM     13  O   UNL     1       2.740   2.530  20.772  0.00  0.00    +0.000 OA
ENDBRANCH   1  10
BRANCH   1  14
ATOM     14  C   UNL     1       2.351   4.769  18.923  0.00  0.00    +0.000 C 
ATOM     15  C   UNL     1       1.473   4.485  17.692  0.00  0.00    +0.000 C 
BRANCH  14  17
ATOM     16  N   UNL     1       2.529   7.016  17.848  0.00  0.00    +0.000 N 
ATOM     17  C   UNL     1       2.485   6.298  19.017  0.00  0.00    +0.000 C 
ATOM     18  O   UNL     1       2.615   6.869  20.101  0.00  0.00    +0.000 OA
ATOM     19  H   UNL     1       2.484   6.538  16.956  0.00  0.00    +0.000 HD
BRANCH  16  20
ATOM     20  C   UNL     1       2.645   8.466  17.899  0.00  0.00    +0.000 C 
BRANCH  20  21
ATOM     21  C   UNL     1       1.301   9.185  17.898  0.00  0.00    +0.000 C 
BRANCH  21  23
ATOM     22  C   UNL     1       0.081  10.076  19.708  0.00  0.00    +0.000 C 
ATOM     23  O   UNL     1       1.284  10.146  18.956  0.00  0.00    +0.000 OA
ENDBRANCH  21  23
ENDBRANCH  20  21
ENDBRANCH  16  20
ENDBRANCH  14  17
ENDBRANCH   1  14
TORSDOF 8
ENDMDL
MODEL 7
REMARK VINA RESULT:      -6.5      0.537      1.160
REMARK  Name = 
REMARK  12 active torsions:
REMARK  status: ('A' for Active; 'I' for Inactive)
REMARK    1  A    between atoms: C_1  and  O_2
REMARK    2  A    between atoms: O_2  and  C_3
REMARK    3  A    between atoms: C_3  and  C_4
REMARK    4  A    between atoms: C_4  and  N_5
REMARK    5  A    between atoms: C_6  and  C_8
REMARK    6  A    between atoms: C_8  and  C_9
REMARK    7  A    between atoms: C_8  and  N_10
REMARK    8  A    between atoms: N_10  and  C_11
REMARK    9  A    between atoms: N_10  and  S_19
REMARK   10  A    between atoms: C_14  and  O_15
REMARK   11  A    between atoms: O_15  and  C_16
REMARK   12  A    between atoms: S_19  and  C_20
REMARK                            x       y       z     vdW  Elec       q    Type
REMARK                         _______ _______ _______ _____ _____    ______ ____
ROOT
ATOM      1  N   UNL     1       5.139   4.929  18.063  0.00  0.00    +0.000 N 
ENDROOT
BRANCH   1   2
ATOM      2  C   UNL     1       4.125   5.902  18.327  0.00  0.00    +0.000 A 
ATOM      3  C   UNL     1       3.393   5.871  19.516  0.00  0.00    +0.000 A 
ATOM      4  C   UNL     1       2.486   6.894  19.802  0.00  0.00    +0.000 A 
ATOM      5  C   UNL     1       2.328   7.964  18.921  0.00  0.00    +0.000 A 
ATOM      6  C   UNL     1       3.032   7.971  17.716  0.00  0.00    +0.000 A 
ATOM      7  C   UNL     1       3.922   6.934  17.414  0.00  0.00    +0.000 A 
BRANCH   5   8
ATOM      8  O   UNL     1       1.441   8.922  19.327  0.00  0.00    +0.000 OA
ATOM      9  C   UNL     1       0.908   9.745  18.293  0.00  0.00    +0.000 C 
ENDBRANCH   5   8
ENDBRANCH   1   2
BRANCH   1  10
ATOM     10  S   UNL     1       6.732   5.315  18.491  0.00  0.00    +0.000 S 
ATOM     11  C   UNL     1       7.022   6.881  17.679  0.00  0.00    +0.000 C 
ATOM     12  O   UNL     1       6.788   5.559  19.921  0.00  0.00    +0.000 OA
ATOM     13  O   UNL     1       7.604   4.336  17.886  0.00  0.00    +0.000 OA
ENDBRANCH   1  10
BRANCH   1  14
ATOM     14  C   UNL     1       4.847   3.716  17.235  0.00  0.00    +0.000 C 
ATOM     15  C   UNL     1       5.020   3.966  15.727  0.00  0.00    +0.000 C 
BRANCH  14  17
ATOM     16  N   UNL     1       3.206   2.358  18.539  0.00  0.00    +0.000 N 
ATOM     17  C   UNL     1       3.447   3.108  17.416  0.00  0.00    +0.000 C 
ATOM     18  O   UNL     1       2.574   3.230  16.554  0.00  0.00    +0.000 OA
ATOM     19  H   UNL     1       3.945   2.208  19.217  0.00  0.00    +0.000 HD
BRANCH  16  20
ATOM     20  C   UNL     1       1.889   1.776  18.749  0.00  0.00    +0.000 C 
BRANCH  20  21
ATOM     21  C   UNL     1       0.906   2.721  19.429  0.00  0.00    +0.000 C 
BRANCH  21  23
ATOM     22  C   UNL     1       1.471   2.635  21.717  0.00  0.00    +0.000 C 
ATOM     23  O   UNL     1       1.566   3.382  20.512  0.00  0.00    +0.000 OA
ENDBRANCH  21  23
ENDBRANCH  20  21
ENDBRANCH  16  20
ENDBRANCH  14  17
ENDBRANCH   1  14
TORSDOF 8
ENDMDL
MODEL 8
REMARK VINA RESULT:      -6.4      2.165      4.740
REMARK  Name = 
REMARK  12 active torsions:
REMARK  status: ('A' for Active; 'I' for Inactive)
REMARK    1  A    between atoms: C_1  and  O_2
REMARK    2  A    between atoms: O_2  and  C_3
REMARK    3  A    between atoms: C_3  and  C_4
REMARK    4  A    between atoms: C_4  and  N_5
REMARK    5  A    between atoms: C_6  and  C_8
REMARK    6  A    between atoms: C_8  and  C_9
REMARK    7  A    between atoms: C_8  and  N_10
REMARK    8  A    between atoms: N_10  and  C_11
REMARK    9  A    between atoms: N_10  and  S_19
REMARK   10  A    between atoms: C_14  and  O_15
REMARK   11  A    between atoms: O_15  and  C_16
REMARK   12  A    between atoms: S_19  and  C_20
REMARK                            x       y       z     vdW  Elec       q    Type
REMARK                         _______ _______ _______ _____ _____    ______ ____
ROOT
ATOM      1  N   UNL     1       4.131   4.515  18.247  0.00  0.00    +0.000 N 
ENDROOT
BRANCH   1   2
ATOM      2  C   UNL     1       3.518   5.779  18.511  0.00  0.00    +0.000 A 
ATOM      3  C   UNL     1       3.509   6.788  17.545  0.00  0.00    +0.000 A 
ATOM      4  C   UNL     1       2.810   7.973  17.783  0.00  0.00    +0.000 A 
ATOM      5  C   UNL     1       2.096   8.146  18.969  0.00  0.00    +0.000 A 
ATOM      6  C   UNL     1       2.140   7.153  19.948  0.00  0.00    +0.000 A 
ATOM      7  C   UNL     1       2.862   5.974  19.724  0.00  0.00    +0.000 A 
BRANCH   5   8
ATOM      8  O   UNL     1       1.421   9.330  19.072  0.00  0.00    +0.000 OA
ATOM      9  C   UNL     1       1.754  10.316  18.098  0.00  0.00    +0.000 C 
ENDBRANCH   5   8
ENDBRANCH   1   2
BRANCH   1  10
ATOM     10  S   UNL     1       3.119   3.163  18.105  0.00  0.00    +0.000 S 
ATOM     11  C   UNL     1       2.769   2.715  19.800  0.00  0.00    +0.000 C 
ATOM     12  O   UNL     1       1.863   3.578  17.506  0.00  0.00    +0.000 OA
ATOM     13  O   UNL     1       3.887   2.092  17.515  0.00  0.00    +0.000 OA
ENDBRANCH   1  10
BRANCH   1  14
ATOM     14  C   UNL     1       5.617   4.347  18.322  0.00  0.00    +0.000 C 
ATOM     15  C   UNL     1       6.277   5.307  19.326  0.00  0.00    +0.000 C 
BRANCH  14  17
ATOM     16  N   UNL     1       5.802   4.016  15.854  0.00  0.00    +0.000 N 
ATOM     17  C   UNL     1       6.373   4.519  16.995  0.00  0.00    +0.000 C 
ATOM     18  O   UNL     1       7.491   5.037  16.952  0.00  0.00    +0.000 OA
ATOM     19  H   UNL     1       4.911   3.535  15.901  0.00  0.00    +0.000 HD
BRANCH  16  20
ATOM     20  C   UNL     1       6.485   4.170  14.578  0.00  0.00    +0.000 C 
BRANCH  20  21
ATOM     21  C   UNL     1       5.559   4.059  13.373  0.00  0.00    +0.000 C 
BRANCH  21  23
ATOM     22  C   UNL     1       5.085   2.676  11.523  0.00  0.00    +0.000 C 
ATOM     23  O   UNL     1       6.052   3.043  12.497  0.00  0.00    +0.000 OA
ENDBRANCH  21  23
ENDBRANCH  20  21
ENDBRANCH  16  20
ENDBRANCH  14  17
ENDBRANCH   1  14
TORSDOF 8
ENDMDL
MODEL 9
REMARK VINA RESULT:      -6.4      2.996      6.260
REMARK  Name = 
REMARK  12 active torsions:
REMARK  status: ('A' for Active; 'I' for Inactive)
REMARK    1  A    between atoms: C_1  and  O_2
REMARK    2  A    between atoms: O_2  and  C_3
REMARK    3  A    between atoms: C_3  and  C_4
REMARK    4  A    between atoms: C_4  and  N_5
REMARK    5  A    between atoms: C_6  and  C_8
REMARK    6  A    between atoms: C_8  and  C_9
REMARK    7  A    between atoms: C_8  and  N_10
REMARK    8  A    between atoms: N_10  and  C_11
REMARK    9  A    between atoms: N_10  and  S_19
REMARK   10  A    between atoms: C_14  and  O_15
REMARK   11  A    between atoms: O_15  and  C_16
REMARK   12  A    between atoms: S_19  and  C_20
REMARK                            x       y       z     vdW  Elec       q    Type
REMARK                         _______ _______ _______ _____ _____    ______ ____
ROOT
ATOM      1  N   UNL     1       6.349   5.295  17.478  0.00  0.00    +0.000 N 
ENDROOT
BRANCH   1   2
ATOM      2  C   UNL     1       5.156   5.092  18.240  0.00  0.00    +0.000 A 
ATOM      3  C   UNL     1       4.958   3.913  18.962  0.00  0.00    +0.000 A 
ATOM      4  C   UNL     1       3.838   3.781  19.786  0.00  0.00    +0.000 A 
ATOM      5  C   UNL     1       2.929   4.832  19.915  0.00  0.00    +0.000 A 
ATOM      6  C   UNL     1       3.109   5.992  19.161  0.00  0.00    +0.000 A 
ATOM      7  C   UNL     1       4.216   6.117  18.314  0.00  0.00    +0.000 A 
BRANCH   5   8
ATOM      8  O   UNL     1       1.895   4.600  20.779  0.00  0.00    +0.000 OA
ATOM      9  C   UNL     1       1.122   3.432  20.515  0.00  0.00    +0.000 C 
ENDBRANCH   5   8
ENDBRANCH   1   2
BRANCH   1  10
ATOM     10  S   UNL     1       6.445   4.563  15.954  0.00  0.00    +0.000 S 
ATOM     11  C   UNL     1       5.445   5.618  14.913  0.00  0.00    +0.000 C 
ATOM     12  O   UNL     1       7.811   4.660  15.472  0.00  0.00    +0.000 OA
ATOM     13  O   UNL     1       5.792   3.278  16.035  0.00  0.00    +0.000 OA
ENDBRANCH   1  10
BRANCH   1  14
ATOM     14  C   UNL     1       7.556   5.935  18.092  0.00  0.00    +0.000 C 
ATOM     15  C   UNL     1       7.617   5.755  19.619  0.00  0.00    +0.000 C 
BRANCH  14  17
ATOM     16  N   UNL     1       8.529   8.161  18.667  0.00  0.00    +0.000 N 
ATOM     17  C   UNL     1       7.720   7.439  17.826  0.00  0.00    +0.000 C 
ATOM     18  O   UNL     1       7.099   8.007  16.926  0.00  0.00    +0.000 OA
ATOM     19  H   UNL     1       8.990   7.703  19.444  0.00  0.00    +0.000 HD
BRANCH  16  20
ATOM     20  C   UNL     1       8.715   9.586  18.439  0.00  0.00    +0.000 C 
BRANCH  20  21
ATOM     21  C   UNL     1       9.361  10.312  19.613  0.00  0.00    +0.000 C 
BRANCH  21  23
ATOM     22  C   UNL     1      10.550  12.329  19.334  0.00  0.00    +0.000 C 
ATOM     23  O   UNL     1       9.267  11.723  19.401  0.00  0.00    +0.000 OA
ENDBRANCH  21  23
ENDBRANCH  20  21
ENDBRANCH  16  20
ENDBRANCH  14  17
ENDBRANCH   1  14
TORSDOF 8
ENDMDL
