MODEL 1
REMARK VINA RESULT:      -8.9      0.000      0.000
REMARK  Name = 
REMARK  7 active torsions:
REMARK  status: ('A' for Active; 'I' for Inactive)
REMARK    1  A    between atoms: C_10  and  N_11
REMARK    2  A    between atoms: N_14  and  C_15
REMARK    3  A    between atoms: C_15  and  C_16
REMARK    4  A    between atoms: C_16  and  O_17
REMARK    5  A    between atoms: C_16  and  C_18
REMARK    6  A    between atoms: C_18  and  N_19
REMARK    7  A    between atoms: N_19  and  C_20
REMARK                            x       y       z     vdW  Elec       q    Type
REMARK                         _______ _______ _______ _____ _____    ______ ____
ROOT
ATOM      1  N   UNL     1       4.162   3.404  17.592  0.00  0.00    +0.000 N 
ATOM      2  C   UNL     1       2.768   3.402  17.163  0.00  0.00    +0.000 C 
ATOM      3  C   UNL     1       2.107   2.097  17.629  0.00  0.00    +0.000 C 
ATOM      4  N   UNL     1       2.245   1.913  19.095  0.00  0.00    +0.000 NA
ATOM      5  C   UNL     1       3.685   1.868  19.442  0.00  0.00    +0.000 C 
ATOM      6  C   UNL     1       4.399   3.164  19.014  0.00  0.00    +0.000 C 
ENDROOT
BRANCH   1  16
ATOM      7  O   UNL     1       8.413   8.147  18.271  0.00  0.00    +0.000 OA
ATOM      8  C   UNL     1       7.812   7.134  17.948  0.00  0.00    +0.000 C 
ATOM      9  C   UNL     1       7.226   6.230  18.996  0.00  0.00    +0.000 C 
ATOM     10  C   UNL     1       5.847   5.787  18.529  0.00  0.00    +0.000 C 
ATOM     11  C   UNL     1       5.950   5.131  17.157  0.00  0.00    +0.000 A 
ATOM     12  C   UNL     1       6.886   5.690  16.244  0.00  0.00    +0.000 A 
ATOM     13  C   UNL     1       7.031   5.152  14.964  0.00  0.00    +0.000 A 
ATOM     14  C   UNL     1       6.291   4.039  14.583  0.00  0.00    +0.000 A 
ATOM     15  C   UNL     1       5.386   3.463  15.471  0.00  0.00    +0.000 A 
ATOM     16  C   UNL     1       5.175   3.998  16.763  0.00  0.00    +0.000 A 
ATOM     17  N   UNL     1       7.693   6.798  16.637  0.00  0.00    +0.000 N 
ATOM     18  H   UNL     1       8.181   7.355  15.919  0.00  0.00    +0.000 HD
ENDBRANCH   1  16
BRANCH   4  19
ATOM     19  C   UNL     1       1.527   2.923  19.924  0.00  0.00    +0.000 C 
BRANCH  19  20
ATOM     20  C   UNL     1       2.326   3.430  21.140  0.00  0.00    +0.000 C 
BRANCH  20  21
ATOM     21  O   UNL     1       1.919   2.743  22.299  0.00  0.00    +0.000 OA
ATOM     22  H   UNL     1       1.078   2.259  22.088  0.00  0.00    +0.000 HD
ENDBRANCH  20  21
BRANCH  20  23
ATOM     23  C   UNL     1       2.158   4.941  21.330  0.00  0.00    +0.000 C 
BRANCH  23  24
ATOM     24  N   UNL     1       2.657   5.677  20.184  0.00  0.00    +0.000 N 
ATOM     25  H   UNL     1       3.383   5.251  19.586  0.00  0.00    +0.000 HD
BRANCH  24  26
ATOM     26  C   UNL     1       2.177   6.978  19.854  0.00  0.00    +0.000 A 
ATOM     27  C   UNL     1       2.419   7.556  18.589  0.00  0.00    +0.000 A 
ATOM     28  C   UNL     1       1.934   8.828  18.289  0.00  0.00    +0.000 A 
ATOM     29  C   UNL     1       1.205   9.543  19.241  0.00  0.00    +0.000 A 
ATOM     30 BR   UNL     1       0.543  11.283  18.821  0.00  0.00    +0.000 Br
ATOM     31  C   UNL     1       0.960   8.981  20.499  0.00  0.00    +0.000 A 
ATOM     32  C   UNL     1       1.442   7.706  20.804  0.00  0.00    +0.000 A 
ENDBRANCH  24  26
ENDBRANCH  23  24
ENDBRANCH  20  23
ENDBRANCH  19  20
ENDBRANCH   4  19
TORSDOF 7
ENDMDL
MODEL 2
REMARK VINA RESULT:      -8.8      1.442      2.566
REMARK  Name = 
REMARK  7 active torsions:
REMARK  status: ('A' for Active; 'I' for Inactive)
REMARK    1  A    between atoms: C_10  and  N_11
REMARK    2  A    between atoms: N_14  and  C_15
REMARK    3  A    between atoms: C_15  and  C_16
REMARK    4  A    between atoms: C_16  and  O_17
REMARK    5  A    between atoms: C_16  and  C_18
REMARK    6  A    between atoms: C_18  and  N_19
REMARK    7  A    between atoms: N_19  and  C_20
REMARK                            x       y       z     vdW  Elec       q    Type
REMARK                         _______ _______ _______ _____ _____    ______ ____
ROOT
ATOM      1  N   UNL     1       4.390   3.771  18.157  0.00  0.00    +0.000 N 
ATOM      2  C   UNL     1       3.087   3.704  17.505  0.00  0.00    +0.000 C 
ATOM      3  C   UNL     1       2.599   2.248  17.520  0.00  0.00    +0.000 C 
ATOM      4  N   UNL     1       2.567   1.701  18.899  0.00  0.00    +0.000 NA
ATOM      5  C   UNL     1       3.934   1.751  19.469  0.00  0.00    +0.000 C 
ATOM      6  C   UNL     1       4.471   3.195  19.497  0.00  0.00    +0.000 C 
ENDROOT
BRANCH   1  16
ATOM      7  O   UNL     1       7.558   4.633  12.657  0.00  0.00    +0.000 OA
ATOM      8  C   UNL     1       7.001   4.770  13.736  0.00  0.00    +0.000 C 
ATOM      9  C   UNL     1       5.625   4.205  13.959  0.00  0.00    +0.000 C 
ATOM     10  C   UNL     1       5.586   3.573  15.342  0.00  0.00    +0.000 C 
ATOM     11  C   UNL     1       5.993   4.599  16.393  0.00  0.00    +0.000 A 
ATOM     12  C   UNL     1       7.022   5.513  16.036  0.00  0.00    +0.000 A 
ATOM     13  C   UNL     1       7.459   6.476  16.948  0.00  0.00    +0.000 A 
ATOM     14  C   UNL     1       6.863   6.577  18.200  0.00  0.00    +0.000 A 
ATOM     15  C   UNL     1       5.838   5.706  18.559  0.00  0.00    +0.000 A 
ATOM     16  C   UNL     1       5.391   4.689  17.684  0.00  0.00    +0.000 A 
ATOM     17  N   UNL     1       7.608   5.459  14.737  0.00  0.00    +0.000 N 
ATOM     18  H   UNL     1       8.503   5.938  14.558  0.00  0.00    +0.000 HD
ENDBRANCH   1  16
BRANCH   4  19
ATOM     19  C   UNL     1       1.584   2.354  19.810  0.00  0.00    +0.000 C 
BRANCH  19  20
ATOM     20  C   UNL     1       2.211   3.324  20.830  0.00  0.00    +0.000 C 
BRANCH  20  21
ATOM     21  O   UNL     1       2.164   2.759  22.118  0.00  0.00    +0.000 OA
ATOM     22  H   UNL     1       1.934   3.481  22.759  0.00  0.00    +0.000 HD
ENDBRANCH  20  21
BRANCH  20  23
ATOM     23  C   UNL     1       1.503   4.683  20.818  0.00  0.00    +0.000 C 
BRANCH  23  24
ATOM     24  N   UNL     1       2.441   5.767  20.597  0.00  0.00    +0.000 N 
ATOM     25  H   UNL     1       3.449   5.603  20.752  0.00  0.00    +0.000 HD
BRANCH  24  26
ATOM     26  C   UNL     1       2.017   7.059  20.171  0.00  0.00    +0.000 A 
ATOM     27  C   UNL     1       1.302   7.921  21.029  0.00  0.00    +0.000 A 
ATOM     28  C   UNL     1       0.903   9.184  20.591  0.00  0.00    +0.000 A 
ATOM     29  C   UNL     1       1.208   9.604  19.295  0.00  0.00    +0.000 A 
ATOM     30 BR   UNL     1       0.659  11.334  18.704  0.00  0.00    +0.000 Br
ATOM     31  C   UNL     1       1.915   8.758  18.435  0.00  0.00    +0.000 A 
ATOM     32  C   UNL     1       2.318   7.492  18.870  0.00  0.00    +0.000 A 
ENDBRANCH  24  26
ENDBRANCH  23  24
ENDBRANCH  20  23
ENDBRANCH  19  20
ENDBRANCH   4  19
TORSDOF 7
ENDMDL
MODEL 3
REMARK VINA RESULT:      -8.5      2.821      6.069
REMARK  Name = 
REMARK  7 active torsions:
REMARK  status: ('A' for Active; 'I' for Inactive)
REMARK    1  A    between atoms: C_10  and  N_11
REMARK    2  A    between atoms: N_14  and  C_15
REMARK    3  A    between atoms: C_15  and  C_16
REMARK    4  A    between atoms: C_16  and  O_17
REMARK    5  A    between atoms: C_16  and  C_18
REMARK    6  A    between atoms: C_18  and  N_19
REMARK    7  A    between atoms: N_19  and  C_20
REMARK                            x       y       z     vdW  Elec       q    Type
REMARK                         _______ _______ _______ _____ _____    ______ ____
ROOT
ATOM      1  N   UNL     1       2.072   6.012  19.483  0.00  0.00    +0.000 N 
ATOM      2  C   UNL     1       2.719   5.562  20.711  0.00  0.00    +0.000 C 
ATOM      3  C   UNL     1       2.035   4.273  21.189  0.00  0.00    +0.000 C 
ATOM      4  N   UNL     1       2.044   3.231  20.133  0.00  0.00    +0.000 NA
ATOM      5  C   UNL     1       1.320   3.742  18.945  0.00  0.00    +0.000 C 
ATOM      6  C   UNL     1       1.975   5.029  18.407  0.00  0.00    +0.000 C 
ENDROOT
BRANCH   1  16
ATOM      7  O   UNL     1      -0.170  11.052  22.739  0.00  0.00    +0.000 OA
ATOM      8  C   UNL     1       0.429  10.304  21.982  0.00  0.00    +0.000 C 
ATOM      9  C   UNL     1       1.073   9.049  22.503  0.00  0.00    +0.000 C 
ATOM     10  C   UNL     1       0.802   7.926  21.513  0.00  0.00    +0.000 C 
ATOM     11  C   UNL     1       1.297   8.325  20.127  0.00  0.00    +0.000 A 
ATOM     12  C   UNL     1       1.130   9.686  19.752  0.00  0.00    +0.000 A 
ATOM     13  C   UNL     1       1.548  10.128  18.494  0.00  0.00    +0.000 A 
ATOM     14  C   UNL     1       2.167   9.250  17.614  0.00  0.00    +0.000 A 
ATOM     15  C   UNL     1       2.360   7.919  17.972  0.00  0.00    +0.000 A 
ATOM     16  C   UNL     1       1.917   7.417  19.218  0.00  0.00    +0.000 A 
ATOM     17  N   UNL     1       0.545  10.613  20.664  0.00  0.00    +0.000 N 
ATOM     18  H   UNL     1       0.199  11.522  20.319  0.00  0.00    +0.000 HD
ENDBRANCH   1  16
BRANCH   4  19
ATOM     19  C   UNL     1       3.397   2.728  19.759  0.00  0.00    +0.000 C 
BRANCH  19  20
ATOM     20  C   UNL     1       3.506   2.218  18.310  0.00  0.00    +0.000 C 
BRANCH  20  21
ATOM     21  O   UNL     1       3.919   0.872  18.308  0.00  0.00    +0.000 OA
ATOM     22  H   UNL     1       4.266   0.661  17.402  0.00  0.00    +0.000 HD
ENDBRANCH  20  21
BRANCH  20  23
ATOM     23  C   UNL     1       4.473   3.073  17.486  0.00  0.00    +0.000 C 
BRANCH  23  24
ATOM     24  N   UNL     1       5.598   3.520  18.286  0.00  0.00    +0.000 N 
ATOM     25  H   UNL     1       6.005   2.880  18.987  0.00  0.00    +0.000 HD
BRANCH  24  26
ATOM     26  C   UNL     1       6.162   4.820  18.138  0.00  0.00    +0.000 A 
ATOM     27  C   UNL     1       5.538   5.810  17.349  0.00  0.00    +0.000 A 
ATOM     28  C   UNL     1       6.108   7.077  17.225  0.00  0.00    +0.000 A 
ATOM     29  C   UNL     1       7.303   7.376  17.881  0.00  0.00    +0.000 A 
ATOM     30 BR   UNL     1       8.075   9.113  17.706  0.00  0.00    +0.000 Br
ATOM     31  C   UNL     1       7.932   6.402  18.664  0.00  0.00    +0.000 A 
ATOM     32  C   UNL     1       7.364   5.131  18.793  0.00  0.00    +0.000 A 
ENDBRANCH  24  26
ENDBRANCH  23  24
ENDBRANCH  20  23
ENDBRANCH  19  20
ENDBRANCH   4  19
TORSDOF 7
ENDMDL
MODEL 4
REMARK VINA RESULT:      -8.1      2.955      6.695
REMARK  Name = 
REMARK  7 active torsions:
REMARK  status: ('A' for Active; 'I' for Inactive)
REMARK    1  A    between atoms: C_10  and  N_11
REMARK    2  A    between atoms: N_14  and  C_15
REMARK    3  A    between atoms: C_15  and  C_16
REMARK    4  A    between atoms: C_16  and  O_17
REMARK    5  A    between atoms: C_16  and  C_18
REMARK    6  A    between atoms: C_18  and  N_19
REMARK    7  A    between atoms: N_19  and  C_20
REMARK                            x       y       z     vdW  Elec       q    Type
REMARK                         _______ _______ _______ _____ _____    ______ ____
ROOT
ATOM      1  N   UNL     1       2.137   6.948  19.670  0.00  0.00    +0.000 N 
ATOM      2  C   UNL     1       3.259   6.483  18.860  0.00  0.00    +0.000 C 
ATOM      3  C   UNL     1       4.084   5.484  19.683  0.00  0.00    +0.000 C 
ATOM      4  N   UNL     1       3.245   4.364  20.177  0.00  0.00    +0.000 NA
ATOM      5  C   UNL     1       2.167   4.912  21.035  0.00  0.00    +0.000 C 
ATOM      6  C   UNL     1       1.291   5.910  20.254  0.00  0.00    +0.000 C 
ENDROOT
BRANCH   1  16
ATOM      7  O   UNL     1      -1.122  10.984  23.427  0.00  0.00    +0.000 OA
ATOM      8  C   UNL     1      -0.381  10.473  22.600  0.00  0.00    +0.000 C 
ATOM      9  C   UNL     1       0.529   9.343  22.990  0.00  0.00    +0.000 C 
ATOM     10  C   UNL     1       0.501   8.302  21.880  0.00  0.00    +0.000 C 
ATOM     11  C   UNL     1       0.879   8.949  20.552  0.00  0.00    +0.000 A 
ATOM     12  C   UNL     1       0.412  10.273  20.325  0.00  0.00    +0.000 A 
ATOM     13  C   UNL     1       0.707  10.930  19.129  0.00  0.00    +0.000 A 
ATOM     14  C   UNL     1       1.494  10.311  18.165  0.00  0.00    +0.000 A 
ATOM     15  C   UNL     1       1.980   9.024  18.379  0.00  0.00    +0.000 A 
ATOM     16  C   UNL     1       1.674   8.304  19.557  0.00  0.00    +0.000 A 
ATOM     17  N   UNL     1      -0.352  10.943  21.326  0.00  0.00    +0.000 N 
ATOM     18  H   UNL     1      -0.894  11.785  21.078  0.00  0.00    +0.000 HD
ENDBRANCH   1  16
BRANCH   4  19
ATOM     19  C   UNL     1       2.685   3.483  19.112  0.00  0.00    +0.000 C 
BRANCH  19  20
ATOM     20  C   UNL     1       3.735   2.624  18.382  0.00  0.00    +0.000 C 
BRANCH  20  21
ATOM     21  O   UNL     1       4.887   2.497  19.181  0.00  0.00    +0.000 OA
ATOM     22  H   UNL     1       5.544   1.945  18.683  0.00  0.00    +0.000 HD
ENDBRANCH  20  21
BRANCH  20  23
ATOM     23  C   UNL     1       4.095   3.220  17.018  0.00  0.00    +0.000 C 
BRANCH  23  24
ATOM     24  N   UNL     1       5.526   3.423  16.890  0.00  0.00    +0.000 N 
ATOM     25  H   UNL     1       6.129   2.626  16.631  0.00  0.00    +0.000 HD
BRANCH  24  26
ATOM     26  C   UNL     1       6.132   4.693  17.114  0.00  0.00    +0.000 A 
ATOM     27  C   UNL     1       5.671   5.857  16.462  0.00  0.00    +0.000 A 
ATOM     28  C   UNL     1       6.278   7.090  16.703  0.00  0.00    +0.000 A 
ATOM     29  C   UNL     1       7.350   7.181  17.593  0.00  0.00    +0.000 A 
ATOM     30 BR   UNL     1       8.173   8.872  17.918  0.00  0.00    +0.000 Br
ATOM     31  C   UNL     1       7.817   6.034  18.244  0.00  0.00    +0.000 A 
ATOM     32  C   UNL     1       7.211   4.797  18.007  0.00  0.00    +0.000 A 
ENDBRANCH  24  26
ENDBRANCH  23  24
ENDBRANCH  20  23
ENDBRANCH  19  20
ENDBRANCH   4  19
TORSDOF 7
ENDMDL
MODEL 5
REMARK VINA RESULT:      -8.1      3.059      6.908
REMARK  Name = 
REMARK  7 active torsions:
REMARK  status: ('A' for Active; 'I' for Inactive)
REMARK    1  A    between atoms: C_10  and  N_11
REMARK    2  A    between atoms: N_14  and  C_15
REMARK    3  A    between atoms: C_15  and  C_16
REMARK    4  A    between atoms: C_16  and  O_17
REMARK    5  A    between atoms: C_16  and  C_18
REMARK    6  A    between atoms: C_18  and  N_19
REMARK    7  A    between atoms: N_19  and  C_20
REMARK                            x       y       z     vdW  Elec       q    Type
REMARK                         _______ _______ _______ _____ _____    ______ ____
ROOT
ATOM      1  N   UNL     1       1.842   7.360  19.407  0.00  0.00    +0.000 N 
ATOM      2  C   UNL     1       1.977   6.620  20.657  0.00  0.00    +0.000 C 
ATOM      3  C   UNL     1       1.431   5.199  20.454  0.00  0.00    +0.000 C 
ATOM      4  N   UNL     1       2.104   4.517  19.321  0.00  0.00    +0.000 NA
ATOM      5  C   UNL     1       1.873   5.297  18.082  0.00  0.00    +0.000 C 
ATOM      6  C   UNL     1       2.419   6.732  18.221  0.00  0.00    +0.000 C 
ENDROOT
BRANCH   1  16
ATOM      7  O   UNL     1      -1.480  11.255  23.256  0.00  0.00    +0.000 OA
ATOM      8  C   UNL     1      -0.689  10.767  22.464  0.00  0.00    +0.000 C 
ATOM      9  C   UNL     1       0.045   9.500  22.803  0.00  0.00    +0.000 C 
ATOM     10  C   UNL     1       0.064   8.613  21.566  0.00  0.00    +0.000 C 
ATOM     11  C   UNL     1       0.680   9.369  20.395  0.00  0.00    +0.000 A 
ATOM     12  C   UNL     1       0.381  10.756  20.295  0.00  0.00    +0.000 A 
ATOM     13  C   UNL     1       0.898  11.517  19.244  0.00  0.00    +0.000 A 
ATOM     14  C   UNL     1       1.743  10.934  18.308  0.00  0.00    +0.000 A 
ATOM     15  C   UNL     1       2.066   9.583  18.402  0.00  0.00    +0.000 A 
ATOM     16  C   UNL     1       1.534   8.764  19.424  0.00  0.00    +0.000 A 
ATOM     17  N   UNL     1      -0.442  11.383  21.278  0.00  0.00    +0.000 N 
ATOM     18  H   UNL     1      -0.860  12.305  21.083  0.00  0.00    +0.000 HD
ENDBRANCH   1  16
BRANCH   4  19
ATOM     19  C   UNL     1       3.558   4.252  19.522  0.00  0.00    +0.000 C 
BRANCH  19  20
ATOM     20  C   UNL     1       4.096   3.038  18.740  0.00  0.00    +0.000 C 
BRANCH  20  21
ATOM     21  O   UNL     1       5.229   2.516  19.391  0.00  0.00    +0.000 OA
ATOM     22  H   UNL     1       4.956   1.685  19.860  0.00  0.00    +0.000 HD
ENDBRANCH  20  21
BRANCH  20  23
ATOM     23  C   UNL     1       4.436   3.410  17.294  0.00  0.00    +0.000 C 
BRANCH  23  24
ATOM     24  N   UNL     1       5.855   3.660  17.131  0.00  0.00    +0.000 N 
ATOM     25  H   UNL     1       6.472   2.892  16.821  0.00  0.00    +0.000 HD
BRANCH  24  26
ATOM     26  C   UNL     1       6.432   4.937  17.387  0.00  0.00    +0.000 A 
ATOM     27  C   UNL     1       7.454   5.108  18.346  0.00  0.00    +0.000 A 
ATOM     28  C   UNL     1       8.006   6.368  18.574  0.00  0.00    +0.000 A 
ATOM     29  C   UNL     1       7.550   7.474  17.854  0.00  0.00    +0.000 A 
ATOM     30 BR   UNL     1       8.314   9.194  18.172  0.00  0.00    +0.000 Br
ATOM     31  C   UNL     1       6.538   7.318  16.902  0.00  0.00    +0.000 A 
ATOM     32  C   UNL     1       5.981   6.057  16.669  0.00  0.00    +0.000 A 
ENDBRANCH  24  26
ENDBRANCH  23  24
ENDBRANCH  20  23
ENDBRANCH  19  20
ENDBRANCH   4  19
TORSDOF 7
ENDMDL
MODEL 6
REMARK VINA RESULT:      -7.8      3.852      6.115
REMARK  Name = 
REMARK  7 active torsions:
REMARK  status: ('A' for Active; 'I' for Inactive)
REMARK    1  A    between atoms: C_10  and  N_11
REMARK    2  A    between atoms: N_14  and  C_15
REMARK    3  A    between atoms: C_15  and  C_16
REMARK    4  A    between atoms: C_16  and  O_17
REMARK    5  A    between atoms: C_16  and  C_18
REMARK    6  A    between atoms: C_18  and  N_19
REMARK    7  A    between atoms: N_19  and  C_20
REMARK                            x       y       z     vdW  Elec       q    Type
REMARK                         _______ _______ _______ _____ _____    ______ ____
ROOT
ATOM      1  N   UNL     1       2.348   7.165  19.223  0.00  0.00    +0.000 N 
ATOM      2  C   UNL     1       1.556   7.726  20.312  0.00  0.00    +0.000 C 
ATOM      3  C   UNL     1       1.710   9.254  20.302  0.00  0.00    +0.000 C 
ATOM      4  N   UNL     1       1.341   9.827  18.985  0.00  0.00    +0.000 NA
ATOM      5  C   UNL     1       2.226   9.253  17.944  0.00  0.00    +0.000 C 
ATOM      6  C   UNL     1       2.099   7.718  17.894  0.00  0.00    +0.000 C 
ENDROOT
BRANCH   1  16
ATOM      7  O   UNL     1       7.747   4.528  17.004  0.00  0.00    +0.000 OA
ATOM      8  C   UNL     1       6.769   4.844  17.664  0.00  0.00    +0.000 C 
ATOM      9  C   UNL     1       6.455   6.293  17.913  0.00  0.00    +0.000 C 
ATOM     10  C   UNL     1       4.954   6.491  17.757  0.00  0.00    +0.000 C 
ATOM     11  C   UNL     1       4.206   5.544  18.688  0.00  0.00    +0.000 A 
ATOM     12  C   UNL     1       4.758   4.245  18.864  0.00  0.00    +0.000 A 
ATOM     13  C   UNL     1       4.125   3.316  19.693  0.00  0.00    +0.000 A 
ATOM     14  C   UNL     1       2.972   3.665  20.386  0.00  0.00    +0.000 A 
ATOM     15  C   UNL     1       2.430   4.940  20.244  0.00  0.00    +0.000 A 
ATOM     16  C   UNL     1       3.012   5.901  19.386  0.00  0.00    +0.000 A 
ATOM     17  N   UNL     1       5.969   3.887  18.203  0.00  0.00    +0.000 N 
ATOM     18  H   UNL     1       6.236   2.894  18.126  0.00  0.00    +0.000 HD
ENDBRANCH   1  16
BRANCH   4  19
ATOM     19  C   UNL     1      -0.094   9.670  18.612  0.00  0.00    +0.000 C 
BRANCH  19  20
ATOM     20  C   UNL     1      -0.871  10.997  18.503  0.00  0.00    +0.000 C 
BRANCH  20  21
ATOM     21  O   UNL     1      -1.438  11.114  17.221  0.00  0.00    +0.000 OA
ATOM     22  H   UNL     1      -1.365  10.231  16.773  0.00  0.00    +0.000 HD
ENDBRANCH  20  21
BRANCH  20  23
ATOM     23  C   UNL     1       0.031  12.199  18.799  0.00  0.00    +0.000 C 
BRANCH  23  24
ATOM     24  N   UNL     1       0.309  12.317  20.217  0.00  0.00    +0.000 N 
ATOM     25  H   UNL     1       1.289  12.371  20.538  0.00  0.00    +0.000 HD
BRANCH  24  26
ATOM     26  C   UNL     1      -0.731  12.359  21.191  0.00  0.00    +0.000 A 
ATOM     27  C   UNL     1      -0.787  11.430  22.252  0.00  0.00    +0.000 A 
ATOM     28  C   UNL     1      -1.813  11.496  23.195  0.00  0.00    +0.000 A 
ATOM     29  C   UNL     1      -2.794  12.484  23.095  0.00  0.00    +0.000 A 
ATOM     30 BR   UNL     1      -4.193  12.567  24.391  0.00  0.00    +0.000 Br
ATOM     31  C   UNL     1      -2.750  13.409  22.047  0.00  0.00    +0.000 A 
ATOM     32  C   UNL     1      -1.724  13.348  21.099  0.00  0.00    +0.000 A 
ENDBRANCH  24  26
ENDBRANCH  23  24
ENDBRANCH  20  23
ENDBRANCH  19  20
ENDBRANCH   4  19
TORSDOF 7
ENDMDL
MODEL 7
REMARK VINA RESULT:      -7.7      2.771      6.081
REMARK  Name = 
REMARK  7 active torsions:
REMARK  status: ('A' for Active; 'I' for Inactive)
REMARK    1  A    between atoms: C_10  and  N_11
REMARK    2  A    between atoms: N_14  and  C_15
REMARK    3  A    between atoms: C_15  and  C_16
REMARK    4  A    between atoms: C_16  and  O_17
REMARK    5  A    between atoms: C_16  and  C_18
REMARK    6  A    between atoms: C_18  and  N_19
REMARK    7  A    between atoms: N_19  and  C_20
REMARK                            x       y       z     vdW  Elec       q    Type
REMARK                         _______ _______ _______ _____ _____    ______ ____
ROOT
ATOM      1  N   UNL     1       2.107   5.926  19.507  0.00  0.00    +0.000 N 
ATOM      2  C   UNL     1       2.907   5.495  20.648  0.00  0.00    +0.000 C 
ATOM      3  C   UNL     1       2.237   4.273  21.291  0.00  0.00    +0.000 C 
ATOM      4  N   UNL     1       2.032   3.184  20.304  0.00  0.00    +0.000 NA
ATOM      5  C   UNL     1       1.164   3.682  19.210  0.00  0.00    +0.000 C 
ATOM      6  C   UNL     1       1.797   4.902  18.512  0.00  0.00    +0.000 C 
ENDROOT
BRANCH   1  16
ATOM      7  O   UNL     1      -0.139  11.110  22.525  0.00  0.00    +0.000 OA
ATOM      8  C   UNL     1       0.470  10.327  21.812  0.00  0.00    +0.000 C 
ATOM      9  C   UNL     1       1.073   9.079  22.394  0.00  0.00    +0.000 C 
ATOM     10  C   UNL     1       0.811   7.928  21.432  0.00  0.00    +0.000 C 
ATOM     11  C   UNL     1       1.356   8.273  20.051  0.00  0.00    +0.000 A 
ATOM     12  C   UNL     1       1.227   9.624  19.626  0.00  0.00    +0.000 A 
ATOM     13  C   UNL     1       1.692  10.016  18.369  0.00  0.00    +0.000 A 
ATOM     14  C   UNL     1       2.321   9.098  17.537  0.00  0.00    +0.000 A 
ATOM     15  C   UNL     1       2.478   7.776  17.945  0.00  0.00    +0.000 A 
ATOM     16  C   UNL     1       1.987   7.324  19.191  0.00  0.00    +0.000 A 
ATOM     17  N   UNL     1       0.632  10.591  20.489  0.00  0.00    +0.000 N 
ATOM     18  H   UNL     1       0.314  11.493  20.104  0.00  0.00    +0.000 HD
ENDBRANCH   1  16
BRANCH   4  19
ATOM     19  C   UNL     1       3.284   2.585  19.761  0.00  0.00    +0.000 C 
BRANCH  19  20
ATOM     20  C   UNL     1       3.105   1.843  18.423  0.00  0.00    +0.000 C 
BRANCH  20  21
ATOM     21  O   UNL     1       3.926   0.699  18.399  0.00  0.00    +0.000 OA
ATOM     22  H   UNL     1       3.539   0.060  17.744  0.00  0.00    +0.000 HD
ENDBRANCH  20  21
BRANCH  20  23
ATOM     23  C   UNL     1       3.423   2.751  17.232  0.00  0.00    +0.000 C 
BRANCH  23  24
ATOM     24  N   UNL     1       4.854   2.883  17.033  0.00  0.00    +0.000 N 
ATOM     25  H   UNL     1       5.404   2.054  16.760  0.00  0.00    +0.000 HD
BRANCH  24  26
ATOM     26  C   UNL     1       5.530   4.126  17.204  0.00  0.00    +0.000 A 
ATOM     27  C   UNL     1       5.943   4.572  18.477  0.00  0.00    +0.000 A 
ATOM     28  C   UNL     1       6.609   5.790  18.617  0.00  0.00    +0.000 A 
ATOM     29  C   UNL     1       6.870   6.579  17.496  0.00  0.00    +0.000 A 
ATOM     30 BR   UNL     1       7.783   8.243  17.697  0.00  0.00    +0.000 Br
ATOM     31  C   UNL     1       6.464   6.148  16.229  0.00  0.00    +0.000 A 
ATOM     32  C   UNL     1       5.798   4.927  16.083  0.00  0.00    +0.000 A 
ENDBRANCH  24  26
ENDBRANCH  23  24
ENDBRANCH  20  23
ENDBRANCH  19  20
ENDBRANCH   4  19
TORSDOF 7
ENDMDL
MODEL 8
REMARK VINA RESULT:      -7.6      4.583      7.395
REMARK  Name = 
REMARK  7 active torsions:
REMARK  status: ('A' for Active; 'I' for Inactive)
REMARK    1  A    between atoms: C_10  and  N_11
REMARK    2  A    between atoms: N_14  and  C_15
REMARK    3  A    between atoms: C_15  and  C_16
REMARK    4  A    between atoms: C_16  and  O_17
REMARK    5  A    between atoms: C_16  and  C_18
REMARK    6  A    between atoms: C_18  and  N_19
REMARK    7  A    between atoms: N_19  and  C_20
REMARK                            x       y       z     vdW  Elec       q    Type
REMARK                         _______ _______ _______ _____ _____    ______ ____
ROOT
ATOM      1  N   UNL     1       1.826   8.343  19.019  0.00  0.00    +0.000 N 
ATOM      2  C   UNL     1       1.499   9.311  17.978  0.00  0.00    +0.000 C 
ATOM      3  C   UNL     1       0.066   9.814  18.201  0.00  0.00    +0.000 C 
ATOM      4  N   UNL     1      -0.106  10.375  19.564  0.00  0.00    +0.000 NA
ATOM      5  C   UNL     1       0.188   9.317  20.561  0.00  0.00    +0.000 C 
ATOM      6  C   UNL     1       1.625   8.785  20.397  0.00  0.00    +0.000 C 
ENDROOT
BRANCH   1  16
ATOM      7  O   UNL     1       2.484   2.418  21.362  0.00  0.00    +0.000 OA
ATOM      8  C   UNL     1       2.457   3.416  20.657  0.00  0.00    +0.000 C 
ATOM      9  C   UNL     1       1.236   4.291  20.625  0.00  0.00    +0.000 C 
ATOM     10  C   UNL     1       1.688   5.745  20.638  0.00  0.00    +0.000 C 
ATOM     11  C   UNL     1       2.644   6.001  19.479  0.00  0.00    +0.000 A 
ATOM     12  C   UNL     1       3.550   4.956  19.148  0.00  0.00    +0.000 A 
ATOM     13  C   UNL     1       4.465   5.118  18.105  0.00  0.00    +0.000 A 
ATOM     14  C   UNL     1       4.471   6.287  17.354  0.00  0.00    +0.000 A 
ATOM     15  C   UNL     1       3.575   7.312  17.648  0.00  0.00    +0.000 A 
ATOM     16  C   UNL     1       2.659   7.210  18.720  0.00  0.00    +0.000 A 
ATOM     17  N   UNL     1       3.521   3.728  19.874  0.00  0.00    +0.000 N 
ATOM     18  H   UNL     1       4.319   3.077  19.810  0.00  0.00    +0.000 HD
ENDBRANCH   1  16
BRANCH   4  19
ATOM     19  C   UNL     1       0.688  11.605  19.842  0.00  0.00    +0.000 C 
BRANCH  19  20
ATOM     20  C   UNL     1       0.231  12.847  19.053  0.00  0.00    +0.000 C 
BRANCH  20  21
ATOM     21  O   UNL     1       1.206  13.858  19.147  0.00  0.00    +0.000 OA
ATOM     22  H   UNL     1       2.056  13.436  19.440  0.00  0.00    +0.000 HD
ENDBRANCH  20  21
BRANCH  20  23
ATOM     23  C   UNL     1      -1.121  13.363  19.556  0.00  0.00    +0.000 C 
BRANCH  23  24
ATOM     24  N   UNL     1      -2.218  12.580  19.020  0.00  0.00    +0.000 N 
ATOM     25  H   UNL     1      -2.093  12.080  18.126  0.00  0.00    +0.000 HD
BRANCH  24  26
ATOM     26  C   UNL     1      -3.473  12.480  19.689  0.00  0.00    +0.000 A 
ATOM     27  C   UNL     1      -3.613  12.822  21.051  0.00  0.00    +0.000 A 
ATOM     28  C   UNL     1      -4.853  12.721  21.682  0.00  0.00    +0.000 A 
ATOM     29  C   UNL     1      -5.967  12.277  20.968  0.00  0.00    +0.000 A 
ATOM     30 BR   UNL     1      -7.661  12.142  21.839  0.00  0.00    +0.000 Br
ATOM     31  C   UNL     1      -5.841  11.933  19.618  0.00  0.00    +0.000 A 
ATOM     32  C   UNL     1      -4.601  12.034  18.981  0.00  0.00    +0.000 A 
ENDBRANCH  24  26
ENDBRANCH  23  24
ENDBRANCH  20  23
ENDBRANCH  19  20
ENDBRANCH   4  19
TORSDOF 7
ENDMDL
MODEL 9
REMARK VINA RESULT:      -7.6      4.908      7.564
REMARK  Name = 
REMARK  7 active torsions:
REMARK  status: ('A' for Active; 'I' for Inactive)
REMARK    1  A    between atoms: C_10  and  N_11
REMARK    2  A    between atoms: N_14  and  C_15
REMARK    3  A    between atoms: C_15  and  C_16
REMARK    4  A    between atoms: C_16  and  O_17
REMARK    5  A    between atoms: C_16  and  C_18
REMARK    6  A    between atoms: C_18  and  N_19
REMARK    7  A    between atoms: N_19  and  C_20
REMARK                            x       y       z     vdW  Elec       q    Type
REMARK                         _______ _______ _______ _____ _____    ______ ____
ROOT
ATOM      1  N   UNL     1       1.631   8.456  19.402  0.00  0.00    +0.000 N 
ATOM      2  C   UNL     1       1.399   9.672  18.631  0.00  0.00    +0.000 C 
ATOM      3  C   UNL     1      -0.029  10.168  18.903  0.00  0.00    +0.000 C 
ATOM      4  N   UNL     1      -0.265  10.368  20.354  0.00  0.00    +0.000 NA
ATOM      5  C   UNL     1      -0.067   9.079  21.058  0.00  0.00    +0.000 C 
ATOM      6  C   UNL     1       1.360   8.540  20.835  0.00  0.00    +0.000 C 
ENDROOT
BRANCH   1  16
ATOM      7  O   UNL     1       2.514   2.251  20.724  0.00  0.00    +0.000 OA
ATOM      8  C   UNL     1       2.423   3.346  20.189  0.00  0.00    +0.000 C 
ATOM      9  C   UNL     1       1.198   4.193  20.391  0.00  0.00    +0.000 C 
ATOM     10  C   UNL     1       1.641   5.634  20.598  0.00  0.00    +0.000 C 
ATOM     11  C   UNL     1       2.498   6.087  19.422  0.00  0.00    +0.000 A 
ATOM     12  C   UNL     1       3.381   5.124  18.860  0.00  0.00    +0.000 A 
ATOM     13  C   UNL     1       4.207   5.465  17.786  0.00  0.00    +0.000 A 
ATOM     14  C   UNL     1       4.145   6.737  17.231  0.00  0.00    +0.000 A 
ATOM     15  C   UNL     1       3.270   7.686  17.753  0.00  0.00    +0.000 A 
ATOM     16  C   UNL     1       2.444   7.400  18.864  0.00  0.00    +0.000 A 
ATOM     17  N   UNL     1       3.419   3.798  19.383  0.00  0.00    +0.000 N 
ATOM     18  H   UNL     1       4.213   3.180  19.155  0.00  0.00    +0.000 HD
ENDBRANCH   1  16
BRANCH   4  19
ATOM     19  C   UNL     1       0.550  11.449  20.980  0.00  0.00    +0.000 C 
BRANCH  19  20
ATOM     20  C   UNL     1       0.077  12.876  20.643  0.00  0.00    +0.000 C 
BRANCH  20  21
ATOM     21  O   UNL     1       0.667  13.796  21.530  0.00  0.00    +0.000 OA
ATOM     22  H   UNL     1      -0.052  14.176  22.098  0.00  0.00    +0.000 HD
ENDBRANCH  20  21
BRANCH  20  23
ATOM     23  C   UNL     1      -1.449  12.988  20.697  0.00  0.00    +0.000 C 
BRANCH  23  24
ATOM     24  N   UNL     1      -1.995  12.251  21.821  0.00  0.00    +0.000 N 
ATOM     25  H   UNL     1      -1.433  11.501  22.255  0.00  0.00    +0.000 HD
BRANCH  24  26
ATOM     26  C   UNL     1      -3.289  12.527  22.349  0.00  0.00    +0.000 A 
ATOM     27  C   UNL     1      -4.387  12.806  21.507  0.00  0.00    +0.000 A 
ATOM     28  C   UNL     1      -5.645  13.067  22.048  0.00  0.00    +0.000 A 
ATOM     29  C   UNL     1      -5.829  13.055  23.432  0.00  0.00    +0.000 A 
ATOM     30 BR   UNL     1      -7.555  13.411  24.164  0.00  0.00    +0.000 Br
ATOM     31  C   UNL     1      -4.749  12.781  24.277  0.00  0.00    +0.000 A 
ATOM     32  C   UNL     1      -3.486  12.517  23.740  0.00  0.00    +0.000 A 
ENDBRANCH  24  26
ENDBRANCH  23  24
ENDBRANCH  20  23
ENDBRANCH  19  20
ENDBRANCH   4  19
TORSDOF 7
ENDMDL
