MODEL 1
REMARK VINA RESULT:      -8.7      0.000      0.000
REMARK  Name = 
REMARK  10 active torsions:
REMARK  status: ('A' for Active; 'I' for Inactive)
REMARK    1  A    between atoms: C_2  and  C_3
REMARK    2  A    between atoms: C_3  and  C_4
REMARK    3  A    between atoms: C_3  and  C_5
REMARK    4  A    between atoms: C_3  and  C_24
REMARK    5  A    between atoms: C_6  and  C_7
REMARK    6  A    between atoms: C_10  and  C_11
REMARK    7  A    between atoms: C_24  and  C_25
REMARK    8  A    between atoms: C_25  and  C_26
REMARK    9  A    between atoms: C_27  and  C_28
REMARK   10  A    between atoms: C_27  and  C_29
REMARK                            x       y       z     vdW  Elec       q    Type
REMARK                         _______ _______ _______ _____ _____    ______ ____
ROOT
ATOM      1  C   UNL     1       2.496   7.459  18.944  0.00  0.00    +0.000 A 
ATOM      2  C   UNL     1       1.902   7.685  20.181  0.00  0.00    +0.000 A 
ATOM      3  C   UNL     1       1.056   8.781  20.357  0.00  0.00    +0.000 A 
ATOM      4  C   UNL     1       0.804   9.697  19.319  0.00  0.00    +0.000 A 
ATOM      5  C   UNL     1       1.423   9.447  18.081  0.00  0.00    +0.000 A 
ATOM      6  C   UNL     1       2.248   8.334  17.888  0.00  0.00    +0.000 A 
ENDROOT
BRANCH   4   7
ATOM      7  C   UNL     1      -0.093  10.858  19.534  0.00  0.00    +0.000 A 
ATOM      8  C   UNL     1       0.330  11.988  20.262  0.00  0.00    +0.000 A 
ATOM      9  F   UNL     1       1.587  12.078  20.719  0.00  0.00    +0.000 F 
ATOM     10  C   UNL     1      -0.526  13.052  20.531  0.00  0.00    +0.000 A 
ATOM     11  F   UNL     1      -0.091  14.083  21.273  0.00  0.00    +0.000 F 
ATOM     12  C   UNL     1      -1.824  13.040  20.056  0.00  0.00    +0.000 A 
ATOM     13  F   UNL     1      -2.646  14.065  20.318  0.00  0.00    +0.000 F 
ATOM     14  C   UNL     1      -2.266  11.965  19.306  0.00  0.00    +0.000 A 
ATOM     15  F   UNL     1      -3.518  11.952  18.828  0.00  0.00    +0.000 F 
ATOM     16  C   UNL     1      -1.417  10.888  19.055  0.00  0.00    +0.000 A 
ATOM     17  F   UNL     1      -1.912   9.859  18.351  0.00  0.00    +0.000 F 
ENDBRANCH   4   7
BRANCH   1  19
ATOM     18  C   UNL     1       2.985   5.348  17.848  0.00  0.00    +0.000 C 
ATOM     19  C   UNL     1       3.319   6.274  18.758  0.00  0.00    +0.000 C 
BRANCH  18  20
ATOM     20  C   UNL     1       3.726   4.038  17.621  0.00  0.00    +0.000 C 
ATOM     21  C   UNL     1       2.706   2.919  17.294  0.00  0.00    +0.000 C 
BRANCH  20  23
ATOM     22  C   UNL     1       4.396   2.666  19.693  0.00  0.00    +0.000 C 
ATOM     23  C   UNL     1       4.539   3.722  18.878  0.00  0.00    +0.000 C 
ENDBRANCH  20  23
BRANCH  20  24
ATOM     24  C   UNL     1       4.720   4.198  16.423  0.00  0.00    +0.000 C 
BRANCH  24  25
ATOM     25  C   UNL     1       6.173   4.455  16.861  0.00  0.00    +0.000 C 
BRANCH  25  26
ATOM     26  C   UNL     1       6.622   5.883  16.761  0.00  0.00    +0.000 C 
ATOM     27  C   UNL     1       7.317   6.503  17.736  0.00  0.00    +0.000 C 
ATOM     28  C   UNL     1       7.738   5.839  19.023  0.00  0.00    +0.000 C 
ATOM     29  C   UNL     1       7.727   7.943  17.610  0.00  0.00    +0.000 C 
ENDBRANCH  25  26
ENDBRANCH  24  25
ENDBRANCH  20  24
ENDBRANCH  18  20
ENDBRANCH   1  19
TORSDOF 7
ENDMDL
MODEL 2
REMARK VINA RESULT:      -8.6      0.242      1.988
REMARK  Name = 
REMARK  10 active torsions:
REMARK  status: ('A' for Active; 'I' for Inactive)
REMARK    1  A    between atoms: C_2  and  C_3
REMARK    2  A    between atoms: C_3  and  C_4
REMARK    3  A    between atoms: C_3  and  C_5
REMARK    4  A    between atoms: C_3  and  C_24
REMARK    5  A    between atoms: C_6  and  C_7
REMARK    6  A    between atoms: C_10  and  C_11
REMARK    7  A    between atoms: C_24  and  C_25
REMARK    8  A    between atoms: C_25  and  C_26
REMARK    9  A    between atoms: C_27  and  C_28
REMARK   10  A    between atoms: C_27  and  C_29
REMARK                            x       y       z     vdW  Elec       q    Type
REMARK                         _______ _______ _______ _____ _____    ______ ____
ROOT
ATOM      1  C   UNL     1       2.415   7.366  19.177  0.00  0.00    +0.000 A 
ATOM      2  C   UNL     1       1.856   7.647  20.420  0.00  0.00    +0.000 A 
ATOM      3  C   UNL     1       1.069   8.787  20.588  0.00  0.00    +0.000 A 
ATOM      4  C   UNL     1       0.841   9.692  19.535  0.00  0.00    +0.000 A 
ATOM      5  C   UNL     1       1.423   9.386  18.292  0.00  0.00    +0.000 A 
ATOM      6  C   UNL     1       2.190   8.230  18.108  0.00  0.00    +0.000 A 
ENDROOT
BRANCH   4   7
ATOM      7  C   UNL     1       0.007  10.900  19.741  0.00  0.00    +0.000 A 
ATOM      8  C   UNL     1      -1.314  10.973  19.256  0.00  0.00    +0.000 A 
ATOM      9  F   UNL     1      -1.883   9.916  18.658  0.00  0.00    +0.000 F 
ATOM     10  C   UNL     1      -2.081  12.128  19.381  0.00  0.00    +0.000 A 
ATOM     11  F   UNL     1      -3.317  12.163  18.857  0.00  0.00    +0.000 F 
ATOM     12  C   UNL     1      -1.567  13.239  20.021  0.00  0.00    +0.000 A 
ATOM     13  F   UNL     1      -2.308  14.350  20.138  0.00  0.00    +0.000 F 
ATOM     14  C   UNL     1      -0.288  13.196  20.543  0.00  0.00    +0.000 A 
ATOM     15  F   UNL     1       0.213  14.264  21.179  0.00  0.00    +0.000 F 
ATOM     16  C   UNL     1       0.490  12.048  20.399  0.00  0.00    +0.000 A 
ATOM     17  F   UNL     1       1.737  12.076  20.896  0.00  0.00    +0.000 F 
ENDBRANCH   4   7
BRANCH   1  19
ATOM     18  C   UNL     1       3.145   5.480  17.834  0.00  0.00    +0.000 C 
ATOM     19  C   UNL     1       3.175   6.139  19.002  0.00  0.00    +0.000 C 
BRANCH  18  20
ATOM     20  C   UNL     1       3.838   4.152  17.563  0.00  0.00    +0.000 C 
ATOM     21  C   UNL     1       2.775   3.078  17.220  0.00  0.00    +0.000 C 
BRANCH  20  23
ATOM     22  C   UNL     1       4.437   2.746  19.634  0.00  0.00    +0.000 C 
ATOM     23  C   UNL     1       4.655   3.774  18.800  0.00  0.00    +0.000 C 
ENDBRANCH  20  23
BRANCH  20  24
ATOM     24  C   UNL     1       4.821   4.309  16.357  0.00  0.00    +0.000 C 
BRANCH  24  25
ATOM     25  C   UNL     1       6.281   4.548  16.782  0.00  0.00    +0.000 C 
BRANCH  25  26
ATOM     26  C   UNL     1       6.737   5.975  16.708  0.00  0.00    +0.000 C 
ATOM     27  C   UNL     1       7.373   6.595  17.723  0.00  0.00    +0.000 C 
ATOM     28  C   UNL     1       7.715   5.930  19.033  0.00  0.00    +0.000 C 
ATOM     29  C   UNL     1       7.792   8.035  17.622  0.00  0.00    +0.000 C 
ENDBRANCH  25  26
ENDBRANCH  24  25
ENDBRANCH  20  24
ENDBRANCH  18  20
ENDBRANCH   1  19
TORSDOF 7
ENDMDL
MODEL 3
REMARK VINA RESULT:      -8.5      1.251      3.317
REMARK  Name = 
REMARK  10 active torsions:
REMARK  status: ('A' for Active; 'I' for Inactive)
REMARK    1  A    between atoms: C_2  and  C_3
REMARK    2  A    between atoms: C_3  and  C_4
REMARK    3  A    between atoms: C_3  and  C_5
REMARK    4  A    between atoms: C_3  and  C_24
REMARK    5  A    between atoms: C_6  and  C_7
REMARK    6  A    between atoms: C_10  and  C_11
REMARK    7  A    between atoms: C_24  and  C_25
REMARK    8  A    between atoms: C_25  and  C_26
REMARK    9  A    between atoms: C_27  and  C_28
REMARK   10  A    between atoms: C_27  and  C_29
REMARK                            x       y       z     vdW  Elec       q    Type
REMARK                         _______ _______ _______ _____ _____    ______ ____
ROOT
ATOM      1  C   UNL     1       2.560   7.400  18.858  0.00  0.00    +0.000 A 
ATOM      2  C   UNL     1       2.254   8.244  17.795  0.00  0.00    +0.000 A 
ATOM      3  C   UNL     1       1.420   9.345  17.997  0.00  0.00    +0.000 A 
ATOM      4  C   UNL     1       0.845   9.617  19.252  0.00  0.00    +0.000 A 
ATOM      5  C   UNL     1       1.166   8.744  20.306  0.00  0.00    +0.000 A 
ATOM      6  C   UNL     1       2.025   7.655  20.118  0.00  0.00    +0.000 A 
ENDROOT
BRANCH   4   7
ATOM      7  C   UNL     1      -0.044  10.789  19.439  0.00  0.00    +0.000 A 
ATOM      8  C   UNL     1       0.374  11.920  20.167  0.00  0.00    +0.000 A 
ATOM      9  F   UNL     1       1.623  12.003  20.648  0.00  0.00    +0.000 F 
ATOM     10  C   UNL     1      -0.477  12.995  20.410  0.00  0.00    +0.000 A 
ATOM     11  F   UNL     1      -0.046  14.028  21.151  0.00  0.00    +0.000 F 
ATOM     12  C   UNL     1      -1.765  12.991  19.909  0.00  0.00    +0.000 A 
ATOM     13  F   UNL     1      -2.582  14.026  20.146  0.00  0.00    +0.000 F 
ATOM     14  C   UNL     1      -2.202  11.914  19.159  0.00  0.00    +0.000 A 
ATOM     15  F   UNL     1      -3.444  11.909  18.657  0.00  0.00    +0.000 F 
ATOM     16  C   UNL     1      -1.358  10.827  18.934  0.00  0.00    +0.000 A 
ATOM     17  F   UNL     1      -1.850   9.796  18.229  0.00  0.00    +0.000 F 
ENDBRANCH   4   7
BRANCH   1  19
ATOM     18  C   UNL     1       3.285   5.421  17.651  0.00  0.00    +0.000 C 
ATOM     19  C   UNL     1       3.485   6.298  18.646  0.00  0.00    +0.000 C 
BRANCH  18  20
ATOM     20  C   UNL     1       4.141   4.192  17.384  0.00  0.00    +0.000 C 
ATOM     21  C   UNL     1       5.096   3.960  18.582  0.00  0.00    +0.000 C 
BRANCH  20  23
ATOM     22  C   UNL     1       6.235   4.467  15.913  0.00  0.00    +0.000 C 
ATOM     23  C   UNL     1       4.905   4.413  16.076  0.00  0.00    +0.000 C 
ENDBRANCH  20  23
BRANCH  20  24
ATOM     24  C   UNL     1       3.221   2.940  17.207  0.00  0.00    +0.000 C 
BRANCH  24  25
ATOM     25  C   UNL     1       1.901   3.031  17.994  0.00  0.00    +0.000 C 
BRANCH  25  26
ATOM     26  C   UNL     1       1.930   2.403  19.356  0.00  0.00    +0.000 C 
ATOM     27  C   UNL     1       1.497   3.036  20.465  0.00  0.00    +0.000 C 
ATOM     28  C   UNL     1       0.921   4.430  20.468  0.00  0.00    +0.000 C 
ATOM     29  C   UNL     1       1.567   2.384  21.817  0.00  0.00    +0.000 C 
ENDBRANCH  25  26
ENDBRANCH  24  25
ENDBRANCH  20  24
ENDBRANCH  18  20
ENDBRANCH   1  19
TORSDOF 7
ENDMDL
MODEL 4
REMARK VINA RESULT:      -8.5      1.341      3.871
REMARK  Name = 
REMARK  10 active torsions:
REMARK  status: ('A' for Active; 'I' for Inactive)
REMARK    1  A    between atoms: C_2  and  C_3
REMARK    2  A    between atoms: C_3  and  C_4
REMARK    3  A    between atoms: C_3  and  C_5
REMARK    4  A    between atoms: C_3  and  C_24
REMARK    5  A    between atoms: C_6  and  C_7
REMARK    6  A    between atoms: C_10  and  C_11
REMARK    7  A    between atoms: C_24  and  C_25
REMARK    8  A    between atoms: C_25  and  C_26
REMARK    9  A    between atoms: C_27  and  C_28
REMARK   10  A    between atoms: C_27  and  C_29
REMARK                            x       y       z     vdW  Elec       q    Type
REMARK                         _______ _______ _______ _____ _____    ______ ____
ROOT
ATOM      1  C   UNL     1       2.576   7.694  18.459  0.00  0.00    +0.000 A 
ATOM      2  C   UNL     1       2.268   8.719  17.569  0.00  0.00    +0.000 A 
ATOM      3  C   UNL     1       1.425   9.758  17.968  0.00  0.00    +0.000 A 
ATOM      4  C   UNL     1       0.843   9.789  19.249  0.00  0.00    +0.000 A 
ATOM      5  C   UNL     1       1.167   8.738  20.125  0.00  0.00    +0.000 A 
ATOM      6  C   UNL     1       2.034   7.708  19.742  0.00  0.00    +0.000 A 
ENDROOT
BRANCH   4   7
ATOM      7  C   UNL     1      -0.055  10.900  19.646  0.00  0.00    +0.000 A 
ATOM      8  C   UNL     1      -1.397  10.947  19.221  0.00  0.00    +0.000 A 
ATOM      9  F   UNL     1      -1.926   9.943  18.506  0.00  0.00    +0.000 F 
ATOM     10  C   UNL     1      -2.229  12.020  19.528  0.00  0.00    +0.000 A 
ATOM     11  F   UNL     1      -3.486  12.042  19.058  0.00  0.00    +0.000 F 
ATOM     12  C   UNL     1      -1.759  13.069  20.296  0.00  0.00    +0.000 A 
ATOM     13  F   UNL     1      -2.561  14.102  20.587  0.00  0.00    +0.000 F 
ATOM     14  C   UNL     1      -0.457  13.043  20.762  0.00  0.00    +0.000 A 
ATOM     15  F   UNL     1       0.003  14.049  21.519  0.00  0.00    +0.000 F 
ATOM     16  C   UNL     1       0.384  11.980  20.436  0.00  0.00    +0.000 A 
ATOM     17  F   UNL     1       1.647  12.027  20.888  0.00  0.00    +0.000 F 
ENDBRANCH   4   7
BRANCH   1  19
ATOM     18  C   UNL     1       3.117   5.376  17.978  0.00  0.00    +0.000 C 
ATOM     19  C   UNL     1       3.510   6.657  18.051  0.00  0.00    +0.000 C 
BRANCH  18  20
ATOM     20  C   UNL     1       4.023   4.202  17.639  0.00  0.00    +0.000 C 
ATOM     21  C   UNL     1       4.966   3.917  18.835  0.00  0.00    +0.000 C 
BRANCH  20  23
ATOM     22  C   UNL     1       6.008   4.089  16.003  0.00  0.00    +0.000 C 
ATOM     23  C   UNL     1       4.801   4.548  16.367  0.00  0.00    +0.000 C 
ENDBRANCH  20  23
BRANCH  20  24
ATOM     24  C   UNL     1       3.154   2.934  17.352  0.00  0.00    +0.000 C 
BRANCH  24  25
ATOM     25  C   UNL     1       1.792   2.948  18.068  0.00  0.00    +0.000 C 
BRANCH  25  26
ATOM     26  C   UNL     1       1.787   2.325  19.433  0.00  0.00    +0.000 C 
ATOM     27  C   UNL     1       1.466   3.009  20.550  0.00  0.00    +0.000 C 
ATOM     28  C   UNL     1       1.060   4.462  20.560  0.00  0.00    +0.000 C 
ATOM     29  C   UNL     1       1.498   2.357  21.904  0.00  0.00    +0.000 C 
ENDBRANCH  25  26
ENDBRANCH  24  25
ENDBRANCH  20  24
ENDBRANCH  18  20
ENDBRANCH   1  19
TORSDOF 7
ENDMDL
MODEL 5
REMARK VINA RESULT:      -8.5      1.261      3.772
REMARK  Name = 
REMARK  10 active torsions:
REMARK  status: ('A' for Active; 'I' for Inactive)
REMARK    1  A    between atoms: C_2  and  C_3
REMARK    2  A    between atoms: C_3  and  C_4
REMARK    3  A    between atoms: C_3  and  C_5
REMARK    4  A    between atoms: C_3  and  C_24
REMARK    5  A    between atoms: C_6  and  C_7
REMARK    6  A    between atoms: C_10  and  C_11
REMARK    7  A    between atoms: C_24  and  C_25
REMARK    8  A    between atoms: C_25  and  C_26
REMARK    9  A    between atoms: C_27  and  C_28
REMARK   10  A    between atoms: C_27  and  C_29
REMARK                            x       y       z     vdW  Elec       q    Type
REMARK                         _______ _______ _______ _____ _____    ______ ____
ROOT
ATOM      1  C   UNL     1       2.582   7.560  18.884  0.00  0.00    +0.000 A 
ATOM      2  C   UNL     1       2.020   7.739  20.145  0.00  0.00    +0.000 A 
ATOM      3  C   UNL     1       1.115   8.779  20.363  0.00  0.00    +0.000 A 
ATOM      4  C   UNL     1       0.770   9.686  19.345  0.00  0.00    +0.000 A 
ATOM      5  C   UNL     1       1.358   9.486  18.083  0.00  0.00    +0.000 A 
ATOM      6  C   UNL     1       2.243   8.428  17.848  0.00  0.00    +0.000 A 
ENDROOT
BRANCH   4   7
ATOM      7  C   UNL     1      -0.188  10.788  19.604  0.00  0.00    +0.000 A 
ATOM      8  C   UNL     1      -1.470  10.799  19.021  0.00  0.00    +0.000 A 
ATOM      9  F   UNL     1      -1.892   9.770  18.271  0.00  0.00    +0.000 F 
ATOM     10  C   UNL     1      -2.351  11.863  19.200  0.00  0.00    +0.000 A 
ATOM     11  F   UNL     1      -3.542  11.850  18.582  0.00  0.00    +0.000 F 
ATOM     12  C   UNL     1      -1.993  12.937  19.993  0.00  0.00    +0.000 A 
ATOM     13  F   UNL     1      -2.841  13.960  20.161  0.00  0.00    +0.000 F 
ATOM     14  C   UNL     1      -0.757  12.946  20.612  0.00  0.00    +0.000 A 
ATOM     15  F   UNL     1      -0.408  13.977  21.395  0.00  0.00    +0.000 F 
ATOM     16  C   UNL     1       0.135  11.892  20.416  0.00  0.00    +0.000 A 
ATOM     17  F   UNL     1       1.333  11.973  21.015  0.00  0.00    +0.000 F 
ENDBRANCH   4   7
BRANCH   1  19
ATOM     18  C   UNL     1       3.291   5.628  17.596  0.00  0.00    +0.000 C 
ATOM     19  C   UNL     1       3.469   6.431  18.656  0.00  0.00    +0.000 C 
BRANCH  18  20
ATOM     20  C   UNL     1       4.108   4.378  17.301  0.00  0.00    +0.000 C 
ATOM     21  C   UNL     1       5.072   4.102  18.481  0.00  0.00    +0.000 C 
BRANCH  20  23
ATOM     22  C   UNL     1       5.407   5.737  15.542  0.00  0.00    +0.000 C 
ATOM     23  C   UNL     1       4.859   4.595  15.985  0.00  0.00    +0.000 C 
ENDBRANCH  20  23
BRANCH  20  24
ATOM     24  C   UNL     1       3.148   3.156  17.120  0.00  0.00    +0.000 C 
BRANCH  24  25
ATOM     25  C   UNL     1       1.858   3.259  17.952  0.00  0.00    +0.000 C 
BRANCH  25  26
ATOM     26  C   UNL     1       1.909   2.578  19.289  0.00  0.00    +0.000 C 
ATOM     27  C   UNL     1       1.473   3.159  20.425  0.00  0.00    +0.000 C 
ATOM     28  C   UNL     1       0.872   4.541  20.486  0.00  0.00    +0.000 C 
ATOM     29  C   UNL     1       1.566   2.455  21.749  0.00  0.00    +0.000 C 
ENDBRANCH  25  26
ENDBRANCH  24  25
ENDBRANCH  20  24
ENDBRANCH  18  20
ENDBRANCH   1  19
TORSDOF 7
ENDMDL
MODEL 6
REMARK VINA RESULT:      -8.4      0.747      1.162
REMARK  Name = 
REMARK  10 active torsions:
REMARK  status: ('A' for Active; 'I' for Inactive)
REMARK    1  A    between atoms: C_2  and  C_3
REMARK    2  A    between atoms: C_3  and  C_4
REMARK    3  A    between atoms: C_3  and  C_5
REMARK    4  A    between atoms: C_3  and  C_24
REMARK    5  A    between atoms: C_6  and  C_7
REMARK    6  A    between atoms: C_10  and  C_11
REMARK    7  A    between atoms: C_24  and  C_25
REMARK    8  A    between atoms: C_25  and  C_26
REMARK    9  A    between atoms: C_27  and  C_28
REMARK   10  A    between atoms: C_27  and  C_29
REMARK                            x       y       z     vdW  Elec       q    Type
REMARK                         _______ _______ _______ _____ _____    ______ ____
ROOT
ATOM      1  C   UNL     1       2.434   7.425  19.020  0.00  0.00    +0.000 A 
ATOM      2  C   UNL     1       2.383   8.294  17.934  0.00  0.00    +0.000 A 
ATOM      3  C   UNL     1       1.718   9.515  18.049  0.00  0.00    +0.000 A 
ATOM      4  C   UNL     1       1.060   9.891  19.235  0.00  0.00    +0.000 A 
ATOM      5  C   UNL     1       1.123   8.992  20.314  0.00  0.00    +0.000 A 
ATOM      6  C   UNL     1       1.813   7.778  20.216  0.00  0.00    +0.000 A 
ENDROOT
BRANCH   4   7
ATOM      7  C   UNL     1       0.354  11.191  19.330  0.00  0.00    +0.000 A 
ATOM      8  C   UNL     1       1.058  12.400  19.493  0.00  0.00    +0.000 A 
ATOM      9  F   UNL     1       2.399  12.418  19.490  0.00  0.00    +0.000 F 
ATOM     10  C   UNL     1       0.403  13.618  19.655  0.00  0.00    +0.000 A 
ATOM     11  F   UNL     1       1.118  14.735  19.858  0.00  0.00    +0.000 F 
ATOM     12  C   UNL     1      -0.978  13.674  19.628  0.00  0.00    +0.000 A 
ATOM     13  F   UNL     1      -1.606  14.847  19.787  0.00  0.00    +0.000 F 
ATOM     14  C   UNL     1      -1.705  12.514  19.434  0.00  0.00    +0.000 A 
ATOM     15  F   UNL     1      -3.043  12.562  19.391  0.00  0.00    +0.000 F 
ATOM     16  C   UNL     1      -1.050  11.291  19.294  0.00  0.00    +0.000 A 
ATOM     17  F   UNL     1      -1.810  10.195  19.143  0.00  0.00    +0.000 F 
ENDBRANCH   4   7
BRANCH   1  19
ATOM     18  C   UNL     1       3.133   5.457  17.782  0.00  0.00    +0.000 C 
ATOM     19  C   UNL     1       3.189   6.188  18.905  0.00  0.00    +0.000 C 
BRANCH  18  20
ATOM     20  C   UNL     1       3.818   4.113  17.579  0.00  0.00    +0.000 C 
ATOM     21  C   UNL     1       2.751   3.032  17.271  0.00  0.00    +0.000 C 
BRANCH  20  23
ATOM     22  C   UNL     1       4.470   2.716  19.641  0.00  0.00    +0.000 C 
ATOM     23  C   UNL     1       4.616   3.785  18.843  0.00  0.00    +0.000 C 
ENDBRANCH  20  23
BRANCH  20  24
ATOM     24  C   UNL     1       4.818   4.209  16.380  0.00  0.00    +0.000 C 
BRANCH  24  25
ATOM     25  C   UNL     1       6.273   4.466  16.813  0.00  0.00    +0.000 C 
BRANCH  25  26
ATOM     26  C   UNL     1       6.722   5.894  16.709  0.00  0.00    +0.000 C 
ATOM     27  C   UNL     1       7.358   6.537  17.709  0.00  0.00    +0.000 C 
ATOM     28  C   UNL     1       7.706   5.902  19.032  0.00  0.00    +0.000 C 
ATOM     29  C   UNL     1       7.769   7.977  17.577  0.00  0.00    +0.000 C 
ENDBRANCH  25  26
ENDBRANCH  24  25
ENDBRANCH  20  24
ENDBRANCH  18  20
ENDBRANCH   1  19
TORSDOF 7
ENDMDL
MODEL 7
REMARK VINA RESULT:      -8.3      1.363      3.224
REMARK  Name = 
REMARK  10 active torsions:
REMARK  status: ('A' for Active; 'I' for Inactive)
REMARK    1  A    between atoms: C_2  and  C_3
REMARK    2  A    between atoms: C_3  and  C_4
REMARK    3  A    between atoms: C_3  and  C_5
REMARK    4  A    between atoms: C_3  and  C_24
REMARK    5  A    between atoms: C_6  and  C_7
REMARK    6  A    between atoms: C_10  and  C_11
REMARK    7  A    between atoms: C_24  and  C_25
REMARK    8  A    between atoms: C_25  and  C_26
REMARK    9  A    between atoms: C_27  and  C_28
REMARK   10  A    between atoms: C_27  and  C_29
REMARK                            x       y       z     vdW  Elec       q    Type
REMARK                         _______ _______ _______ _____ _____    ______ ____
ROOT
ATOM      1  C   UNL     1       2.661   7.745  18.376  0.00  0.00    +0.000 A 
ATOM      2  C   UNL     1       2.092   7.689  19.644  0.00  0.00    +0.000 A 
ATOM      3  C   UNL     1       1.205   8.685  20.055  0.00  0.00    +0.000 A 
ATOM      4  C   UNL     1       0.884   9.777  19.229  0.00  0.00    +0.000 A 
ATOM      5  C   UNL     1       1.478   9.812  17.954  0.00  0.00    +0.000 A 
ATOM      6  C   UNL     1       2.345   8.802  17.524  0.00  0.00    +0.000 A 
ENDROOT
BRANCH   4   7
ATOM      7  C   UNL     1      -0.056  10.827  19.691  0.00  0.00    +0.000 A 
ATOM      8  C   UNL     1       0.321  11.774  20.663  0.00  0.00    +0.000 A 
ATOM      9  F   UNL     1       1.573  11.802  21.144  0.00  0.00    +0.000 F 
ATOM     10  C   UNL     1      -0.574  12.719  21.157  0.00  0.00    +0.000 A 
ATOM     11  F   UNL     1      -0.180  13.568  22.119  0.00  0.00    +0.000 F 
ATOM     12  C   UNL     1      -1.869  12.770  20.675  0.00  0.00    +0.000 A 
ATOM     13  F   UNL     1      -2.729  13.678  21.154  0.00  0.00    +0.000 F 
ATOM     14  C   UNL     1      -2.267  11.880  19.695  0.00  0.00    +0.000 A 
ATOM     15  F   UNL     1      -3.516  11.932  19.211  0.00  0.00    +0.000 F 
ATOM     16  C   UNL     1      -1.378  10.919  19.215  0.00  0.00    +0.000 A 
ATOM     17  F   UNL     1      -1.832  10.061  18.289  0.00  0.00    +0.000 F 
ENDBRANCH   4   7
BRANCH   1  19
ATOM     18  C   UNL     1       3.103   5.393  17.969  0.00  0.00    +0.000 C 
ATOM     19  C   UNL     1       3.529   6.664  17.938  0.00  0.00    +0.000 C 
BRANCH  18  20
ATOM     20  C   UNL     1       3.947   4.179  17.608  0.00  0.00    +0.000 C 
ATOM     21  C   UNL     1       4.888   3.837  18.791  0.00  0.00    +0.000 C 
BRANCH  20  23
ATOM     22  C   UNL     1       6.018   4.233  16.080  0.00  0.00    +0.000 C 
ATOM     23  C   UNL     1       4.727   4.498  16.331  0.00  0.00    +0.000 C 
ENDBRANCH  20  23
BRANCH  20  24
ATOM     24  C   UNL     1       3.014   2.957  17.320  0.00  0.00    +0.000 C 
BRANCH  24  25
ATOM     25  C   UNL     1       1.676   3.013  18.079  0.00  0.00    +0.000 C 
BRANCH  25  26
ATOM     26  C   UNL     1       1.696   2.394  19.445  0.00  0.00    +0.000 C 
ATOM     27  C   UNL     1       1.453   3.094  20.571  0.00  0.00    +0.000 C 
ATOM     28  C   UNL     1       1.119   4.564  20.593  0.00  0.00    +0.000 C 
ATOM     29  C   UNL     1       1.508   2.444  21.925  0.00  0.00    +0.000 C 
ENDBRANCH  25  26
ENDBRANCH  24  25
ENDBRANCH  20  24
ENDBRANCH  18  20
ENDBRANCH   1  19
TORSDOF 7
ENDMDL
MODEL 8
REMARK VINA RESULT:      -8.3      1.739      2.239
REMARK  Name = 
REMARK  10 active torsions:
REMARK  status: ('A' for Active; 'I' for Inactive)
REMARK    1  A    between atoms: C_2  and  C_3
REMARK    2  A    between atoms: C_3  and  C_4
REMARK    3  A    between atoms: C_3  and  C_5
REMARK    4  A    between atoms: C_3  and  C_24
REMARK    5  A    between atoms: C_6  and  C_7
REMARK    6  A    between atoms: C_10  and  C_11
REMARK    7  A    between atoms: C_24  and  C_25
REMARK    8  A    between atoms: C_25  and  C_26
REMARK    9  A    between atoms: C_27  and  C_28
REMARK   10  A    between atoms: C_27  and  C_29
REMARK                            x       y       z     vdW  Elec       q    Type
REMARK                         _______ _______ _______ _____ _____    ______ ____
ROOT
ATOM      1  C   UNL     1       2.307   7.415  18.664  0.00  0.00    +0.000 A 
ATOM      2  C   UNL     1       2.161   7.276  20.041  0.00  0.00    +0.000 A 
ATOM      3  C   UNL     1       1.558   8.293  20.784  0.00  0.00    +0.000 A 
ATOM      4  C   UNL     1       1.113   9.485  20.183  0.00  0.00    +0.000 A 
ATOM      5  C   UNL     1       1.279   9.600  18.791  0.00  0.00    +0.000 A 
ATOM      6  C   UNL     1       1.855   8.573  18.036  0.00  0.00    +0.000 A 
ENDROOT
BRANCH   4   7
ATOM      7  C   UNL     1       0.483  10.553  20.995  0.00  0.00    +0.000 A 
ATOM      8  C   UNL     1      -0.486  10.257  21.975  0.00  0.00    +0.000 A 
ATOM      9  F   UNL     1      -0.811   8.987  22.255  0.00  0.00    +0.000 F 
ATOM     10  C   UNL     1      -1.136  11.257  22.693  0.00  0.00    +0.000 A 
ATOM     11  F   UNL     1      -2.087  10.926  23.580  0.00  0.00    +0.000 F 
ATOM     12  C   UNL     1      -0.819  12.586  22.480  0.00  0.00    +0.000 A 
ATOM     13  F   UNL     1      -1.448  13.546  23.171  0.00  0.00    +0.000 F 
ATOM     14  C   UNL     1       0.153  12.915  21.552  0.00  0.00    +0.000 A 
ATOM     15  F   UNL     1       0.476  14.200  21.350  0.00  0.00    +0.000 F 
ATOM     16  C   UNL     1       0.788  11.916  20.816  0.00  0.00    +0.000 A 
ATOM     17  F   UNL     1       1.697  12.299  19.906  0.00  0.00    +0.000 F 
ENDBRANCH   4   7
BRANCH   1  19
ATOM     18  C   UNL     1       3.090   5.125  18.469  0.00  0.00    +0.000 C 
ATOM     19  C   UNL     1       2.874   6.318  17.896  0.00  0.00    +0.000 C 
BRANCH  18  20
ATOM     20  C   UNL     1       3.746   3.934  17.786  0.00  0.00    +0.000 C 
ATOM     21  C   UNL     1       2.651   2.949  17.305  0.00  0.00    +0.000 C 
BRANCH  20  23
ATOM     22  C   UNL     1       4.389   2.595  19.888  0.00  0.00    +0.000 C 
ATOM     23  C   UNL     1       4.709   3.280  18.780  0.00  0.00    +0.000 C 
ENDBRANCH  20  23
BRANCH  20  24
ATOM     24  C   UNL     1       4.575   4.427  16.554  0.00  0.00    +0.000 C 
BRANCH  24  25
ATOM     25  C   UNL     1       6.080   4.568  16.844  0.00  0.00    +0.000 C 
BRANCH  25  26
ATOM     26  C   UNL     1       6.611   5.969  16.773  0.00  0.00    +0.000 C 
ATOM     27  C   UNL     1       7.317   6.538  17.771  0.00  0.00    +0.000 C 
ATOM     28  C   UNL     1       7.669   5.836  19.059  0.00  0.00    +0.000 C 
ATOM     29  C   UNL     1       7.809   7.954  17.674  0.00  0.00    +0.000 C 
ENDBRANCH  25  26
ENDBRANCH  24  25
ENDBRANCH  20  24
ENDBRANCH  18  20
ENDBRANCH   1  19
TORSDOF 7
ENDMDL
MODEL 9
REMARK VINA RESULT:      -8.3      1.791      3.672
REMARK  Name = 
REMARK  10 active torsions:
REMARK  status: ('A' for Active; 'I' for Inactive)
REMARK    1  A    between atoms: C_2  and  C_3
REMARK    2  A    between atoms: C_3  and  C_4
REMARK    3  A    between atoms: C_3  and  C_5
REMARK    4  A    between atoms: C_3  and  C_24
REMARK    5  A    between atoms: C_6  and  C_7
REMARK    6  A    between atoms: C_10  and  C_11
REMARK    7  A    between atoms: C_24  and  C_25
REMARK    8  A    between atoms: C_25  and  C_26
REMARK    9  A    between atoms: C_27  and  C_28
REMARK   10  A    between atoms: C_27  and  C_29
REMARK                            x       y       z     vdW  Elec       q    Type
REMARK                         _______ _______ _______ _____ _____    ______ ____
ROOT
ATOM      1  C   UNL     1       2.572   7.540  18.520  0.00  0.00    +0.000 A 
ATOM      2  C   UNL     1       2.230   8.525  17.599  0.00  0.00    +0.000 A 
ATOM      3  C   UNL     1       1.394   9.575  17.981  0.00  0.00    +0.000 A 
ATOM      4  C   UNL     1       0.851   9.657  19.276  0.00  0.00    +0.000 A 
ATOM      5  C   UNL     1       1.209   8.644  20.185  0.00  0.00    +0.000 A 
ATOM      6  C   UNL     1       2.070   7.604  19.818  0.00  0.00    +0.000 A 
ENDROOT
BRANCH   4   7
ATOM      7  C   UNL     1      -0.041  10.778  19.654  0.00  0.00    +0.000 A 
ATOM      8  C   UNL     1      -1.360  10.865  19.166  0.00  0.00    +0.000 A 
ATOM      9  F   UNL     1      -1.874   9.889  18.402  0.00  0.00    +0.000 F 
ATOM     10  C   UNL     1      -2.183  11.950  19.456  0.00  0.00    +0.000 A 
ATOM     11  F   UNL     1      -3.414  12.010  18.925  0.00  0.00    +0.000 F 
ATOM     12  C   UNL     1      -1.729  12.970  20.270  0.00  0.00    +0.000 A 
ATOM     13  F   UNL     1      -2.522  14.014  20.546  0.00  0.00    +0.000 F 
ATOM     14  C   UNL     1      -0.453  12.904  20.799  0.00  0.00    +0.000 A 
ATOM     15  F   UNL     1      -0.009  13.882  21.601  0.00  0.00    +0.000 F 
ATOM     16  C   UNL     1       0.381  11.830  20.491  0.00  0.00    +0.000 A 
ATOM     17  F   UNL     1       1.620  11.838  21.005  0.00  0.00    +0.000 F 
ENDBRANCH   4   7
BRANCH   1  19
ATOM     18  C   UNL     1       4.643   6.794  17.494  0.00  0.00    +0.000 C 
ATOM     19  C   UNL     1       3.500   6.491  18.127  0.00  0.00    +0.000 C 
BRANCH  18  20
ATOM     20  C   UNL     1       5.647   5.777  16.970  0.00  0.00    +0.000 C 
ATOM     21  C   UNL     1       5.303   4.376  17.535  0.00  0.00    +0.000 C 
BRANCH  20  23
ATOM     22  C   UNL     1       7.478   7.493  17.543  0.00  0.00    +0.000 C 
ATOM     23  C   UNL     1       7.049   6.232  17.381  0.00  0.00    +0.000 C 
ENDBRANCH  20  23
BRANCH  20  24
ATOM     24  C   UNL     1       5.584   5.735  15.408  0.00  0.00    +0.000 C 
BRANCH  24  25
ATOM     25  C   UNL     1       6.557   4.720  14.782  0.00  0.00    +0.000 C 
BRANCH  25  26
ATOM     26  C   UNL     1       5.920   3.704  13.879  0.00  0.00    +0.000 C 
ATOM     27  C   UNL     1       6.246   3.574  12.577  0.00  0.00    +0.000 C 
ATOM     28  C   UNL     1       7.289   4.412  11.882  0.00  0.00    +0.000 C 
ATOM     29  C   UNL     1       5.566   2.563  11.698  0.00  0.00    +0.000 C 
ENDBRANCH  25  26
ENDBRANCH  24  25
ENDBRANCH  20  24
ENDBRANCH  18  20
ENDBRANCH   1  19
TORSDOF 7
ENDMDL
