MODEL 1
REMARK VINA RESULT:      -7.3      0.000      0.000
REMARK  Name = 
REMARK  3 active torsions:
REMARK  status: ('A' for Active; 'I' for Inactive)
REMARK    1  A    between atoms: C_1  and  C_2
REMARK    2  A    between atoms: C_4  and  C_5
REMARK    3  A    between atoms: C_6  and  C_7
REMARK                            x       y       z     vdW  Elec       q    Type
REMARK                         _______ _______ _______ _____ _____    ______ ____
ROOT
ATOM      1  C   UNL     1       4.403   4.294  17.395  0.00  0.00    +0.000 A 
ATOM      2  N   UNL     1       3.953   3.139  17.832  0.00  0.00    +0.000 NA
ATOM      3  C   UNL     1       3.001   3.335  18.813  0.00  0.00    +0.000 A 
ATOM      4  C   UNL     1       2.309   2.321  19.504  0.00  0.00    +0.000 A 
ATOM      5  C   UNL     1       1.365   2.664  20.477  0.00  0.00    +0.000 A 
ATOM      6  C   UNL     1       1.103   4.000  20.762  0.00  0.00    +0.000 A 
ATOM      7  C   UNL     1       1.777   5.025  20.089  0.00  0.00    +0.000 A 
ATOM      8  C   UNL     1       2.727   4.669  19.119  0.00  0.00    +0.000 A 
ATOM      9  S   UNL     1       3.716   5.681  18.139  0.00  0.00    +0.000 S 
ENDROOT
BRANCH   1  15
ATOM     10  C   UNL     1       6.336   3.820  12.858  0.00  0.00    +0.000 C 
ATOM     11  C   UNL     1       6.300   4.165  14.300  0.00  0.00    +0.000 A 
ATOM     12  C   UNL     1       7.267   4.697  15.125  0.00  0.00    +0.000 A 
ATOM     13  C   UNL     1       6.709   4.835  16.428  0.00  0.00    +0.000 A 
ATOM     14  C   UNL     1       7.409   5.372  17.627  0.00  0.00    +0.000 C 
ATOM     15  C   UNL     1       5.400   4.375  16.361  0.00  0.00    +0.000 A 
ATOM     16  N   UNL     1       5.175   3.975  15.063  0.00  0.00    +0.000 N 
ATOM     17  H   UNL     1       4.299   3.597  14.726  0.00  0.00    +0.000 HD
ENDBRANCH   1  15
TORSDOF 1
ENDMDL
MODEL 2
REMARK VINA RESULT:      -7.1      1.011      1.558
REMARK  Name = 
REMARK  3 active torsions:
REMARK  status: ('A' for Active; 'I' for Inactive)
REMARK    1  A    between atoms: C_1  and  C_2
REMARK    2  A    between atoms: C_4  and  C_5
REMARK    3  A    between atoms: C_6  and  C_7
REMARK                            x       y       z     vdW  Elec       q    Type
REMARK                         _______ _______ _______ _____ _____    ______ ____
ROOT
ATOM      1  C   UNL     1       4.382   4.007  17.355  0.00  0.00    +0.000 A 
ATOM      2  N   UNL     1       3.905   5.038  18.016  0.00  0.00    +0.000 NA
ATOM      3  C   UNL     1       2.962   4.623  18.936  0.00  0.00    +0.000 A 
ATOM      4  C   UNL     1       2.245   5.458  19.815  0.00  0.00    +0.000 A 
ATOM      5  C   UNL     1       1.317   4.901  20.701  0.00  0.00    +0.000 A 
ATOM      6  C   UNL     1       1.105   3.526  20.723  0.00  0.00    +0.000 A 
ATOM      7  C   UNL     1       1.806   2.676  19.861  0.00  0.00    +0.000 A 
ATOM      8  C   UNL     1       2.729   3.247  18.972  0.00  0.00    +0.000 A 
ATOM      9  S   UNL     1       3.726   2.482  17.795  0.00  0.00    +0.000 S 
ENDROOT
BRANCH   1  15
ATOM     10  C   UNL     1       6.352   3.882  12.811  0.00  0.00    +0.000 C 
ATOM     11  C   UNL     1       6.305   4.110  14.275  0.00  0.00    +0.000 A 
ATOM     12  C   UNL     1       7.269   4.566  15.148  0.00  0.00    +0.000 A 
ATOM     13  C   UNL     1       6.701   4.603  16.453  0.00  0.00    +0.000 A 
ATOM     14  C   UNL     1       7.395   5.036  17.698  0.00  0.00    +0.000 C 
ATOM     15  C   UNL     1       5.389   4.161  16.339  0.00  0.00    +0.000 A 
ATOM     16  N   UNL     1       5.172   3.870  15.012  0.00  0.00    +0.000 N 
ATOM     17  H   UNL     1       4.296   3.527  14.638  0.00  0.00    +0.000 HD
ENDBRANCH   1  15
TORSDOF 1
ENDMDL
MODEL 3
REMARK VINA RESULT:      -6.9      1.016      1.032
REMARK  Name = 
REMARK  3 active torsions:
REMARK  status: ('A' for Active; 'I' for Inactive)
REMARK    1  A    between atoms: C_1  and  C_2
REMARK    2  A    between atoms: C_4  and  C_5
REMARK    3  A    between atoms: C_6  and  C_7
REMARK                            x       y       z     vdW  Elec       q    Type
REMARK                         _______ _______ _______ _____ _____    ______ ____
ROOT
ATOM      1  C   UNL     1       4.533   4.050  17.329  0.00  0.00    +0.000 A 
ATOM      2  N   UNL     1       3.274   3.736  17.119  0.00  0.00    +0.000 NA
ATOM      3  C   UNL     1       2.614   3.569  18.320  0.00  0.00    +0.000 A 
ATOM      4  C   UNL     1       1.256   3.226  18.473  0.00  0.00    +0.000 A 
ATOM      5  C   UNL     1       0.715   3.092  19.756  0.00  0.00    +0.000 A 
ATOM      6  C   UNL     1       1.509   3.299  20.880  0.00  0.00    +0.000 A 
ATOM      7  C   UNL     1       2.860   3.640  20.753  0.00  0.00    +0.000 A 
ATOM      8  C   UNL     1       3.393   3.766  19.461  0.00  0.00    +0.000 A 
ATOM      9  S   UNL     1       4.999   4.159  18.979  0.00  0.00    +0.000 S 
ENDROOT
BRANCH   1  15
ATOM     10  C   UNL     1       6.389   3.679  12.751  0.00  0.00    +0.000 C 
ATOM     11  C   UNL     1       6.307   4.131  14.161  0.00  0.00    +0.000 A 
ATOM     12  C   UNL     1       7.127   4.965  14.890  0.00  0.00    +0.000 A 
ATOM     13  C   UNL     1       6.591   5.072  16.204  0.00  0.00    +0.000 A 
ATOM     14  C   UNL     1       7.164   5.876  17.320  0.00  0.00    +0.000 C 
ATOM     15  C   UNL     1       5.444   4.289  16.243  0.00  0.00    +0.000 A 
ATOM     16  N   UNL     1       5.293   3.730  14.994  0.00  0.00    +0.000 N 
ATOM     17  H   UNL     1       4.535   3.112  14.733  0.00  0.00    +0.000 HD
ENDBRANCH   1  15
TORSDOF 1
ENDMDL
MODEL 4
REMARK VINA RESULT:      -6.9      1.061      1.096
REMARK  Name = 
REMARK  3 active torsions:
REMARK  status: ('A' for Active; 'I' for Inactive)
REMARK    1  A    between atoms: C_1  and  C_2
REMARK    2  A    between atoms: C_4  and  C_5
REMARK    3  A    between atoms: C_6  and  C_7
REMARK                            x       y       z     vdW  Elec       q    Type
REMARK                         _______ _______ _______ _____ _____    ______ ____
ROOT
ATOM      1  C   UNL     1       4.125   4.229  17.781  0.00  0.00    +0.000 A 
ATOM      2  N   UNL     1       4.488   3.437  18.767  0.00  0.00    +0.000 NA
ATOM      3  C   UNL     1       3.459   3.303  19.678  0.00  0.00    +0.000 A 
ATOM      4  C   UNL     1       3.498   2.532  20.856  0.00  0.00    +0.000 A 
ATOM      5  C   UNL     1       2.376   2.484  21.691  0.00  0.00    +0.000 A 
ATOM      6  C   UNL     1       1.222   3.187  21.360  0.00  0.00    +0.000 A 
ATOM      7  C   UNL     1       1.160   3.960  20.195  0.00  0.00    +0.000 A 
ATOM      8  C   UNL     1       2.294   4.006  19.369  0.00  0.00    +0.000 A 
ATOM      9  S   UNL     1       2.533   4.860  17.893  0.00  0.00    +0.000 S 
ENDROOT
BRANCH   1  15
ATOM     10  C   UNL     1       6.199   3.755  13.307  0.00  0.00    +0.000 C 
ATOM     11  C   UNL     1       5.970   4.330  14.655  0.00  0.00    +0.000 A 
ATOM     12  C   UNL     1       6.575   5.388  15.298  0.00  0.00    +0.000 A 
ATOM     13  C   UNL     1       5.976   5.525  16.582  0.00  0.00    +0.000 A 
ATOM     14  C   UNL     1       6.329   6.545  17.608  0.00  0.00    +0.000 C 
ATOM     15  C   UNL     1       5.012   4.531  16.690  0.00  0.00    +0.000 A 
ATOM     16  N   UNL     1       5.026   3.821  15.511  0.00  0.00    +0.000 N 
ATOM     17  H   UNL     1       4.420   3.036  15.310  0.00  0.00    +0.000 HD
ENDBRANCH   1  15
TORSDOF 1
ENDMDL
MODEL 5
REMARK VINA RESULT:      -6.7      1.316      6.119
REMARK  Name = 
REMARK  3 active torsions:
REMARK  status: ('A' for Active; 'I' for Inactive)
REMARK    1  A    between atoms: C_1  and  C_2
REMARK    2  A    between atoms: C_4  and  C_5
REMARK    3  A    between atoms: C_6  and  C_7
REMARK                            x       y       z     vdW  Elec       q    Type
REMARK                         _______ _______ _______ _____ _____    ______ ____
ROOT
ATOM      1  C   UNL     1       4.206   4.611  18.287  0.00  0.00    +0.000 A 
ATOM      2  N   UNL     1       3.904   4.318  17.041  0.00  0.00    +0.000 NA
ATOM      3  C   UNL     1       5.014   4.457  16.232  0.00  0.00    +0.000 A 
ATOM      4  C   UNL     1       5.055   4.228  14.843  0.00  0.00    +0.000 A 
ATOM      5  C   UNL     1       6.255   4.406  14.145  0.00  0.00    +0.000 A 
ATOM      6  C   UNL     1       7.407   4.803  14.817  0.00  0.00    +0.000 A 
ATOM      7  C   UNL     1       7.391   5.037  16.197  0.00  0.00    +0.000 A 
ATOM      8  C   UNL     1       6.180   4.861  16.885  0.00  0.00    +0.000 A 
ATOM      9  S   UNL     1       5.837   5.075  18.558  0.00  0.00    +0.000 S 
ENDROOT
BRANCH   1  15
ATOM     10  C   UNL     1       1.442   2.520  21.826  0.00  0.00    +0.000 C 
ATOM     11  C   UNL     1       1.958   3.604  20.955  0.00  0.00    +0.000 A 
ATOM     12  C   UNL     1       1.635   4.942  20.894  0.00  0.00    +0.000 A 
ATOM     13  C   UNL     1       2.433   5.542  19.878  0.00  0.00    +0.000 A 
ATOM     14  C   UNL     1       2.406   6.976  19.478  0.00  0.00    +0.000 C 
ATOM     15  C   UNL     1       3.228   4.539  19.339  0.00  0.00    +0.000 A 
ATOM     16  N   UNL     1       2.924   3.375  20.008  0.00  0.00    +0.000 N 
ATOM     17  H   UNL     1       3.358   2.480  19.822  0.00  0.00    +0.000 HD
ENDBRANCH   1  15
TORSDOF 1
ENDMDL
MODEL 6
REMARK VINA RESULT:      -6.6      2.653      6.096
REMARK  Name = 
REMARK  3 active torsions:
REMARK  status: ('A' for Active; 'I' for Inactive)
REMARK    1  A    between atoms: C_1  and  C_2
REMARK    2  A    between atoms: C_4  and  C_5
REMARK    3  A    between atoms: C_6  and  C_7
REMARK                            x       y       z     vdW  Elec       q    Type
REMARK                         _______ _______ _______ _____ _____    ______ ____
ROOT
ATOM      1  C   UNL     1       4.271   4.537  18.933  0.00  0.00    +0.000 A 
ATOM      2  N   UNL     1       5.464   4.568  19.485  0.00  0.00    +0.000 NA
ATOM      3  C   UNL     1       6.247   5.531  18.881  0.00  0.00    +0.000 A 
ATOM      4  C   UNL     1       7.580   5.838  19.216  0.00  0.00    +0.000 A 
ATOM      5  C   UNL     1       8.257   6.845  18.519  0.00  0.00    +0.000 A 
ATOM      6  C   UNL     1       7.618   7.547  17.502  0.00  0.00    +0.000 A 
ATOM      7  C   UNL     1       6.295   7.260  17.151  0.00  0.00    +0.000 A 
ATOM      8  C   UNL     1       5.628   6.244  17.853  0.00  0.00    +0.000 A 
ATOM      9  S   UNL     1       4.022   5.656  17.655  0.00  0.00    +0.000 S 
ENDROOT
BRANCH   1  15
ATOM     10  C   UNL     1       1.143   2.380  22.111  0.00  0.00    +0.000 C 
ATOM     11  C   UNL     1       1.822   2.628  20.817  0.00  0.00    +0.000 A 
ATOM     12  C   UNL     1       1.670   2.022  19.589  0.00  0.00    +0.000 A 
ATOM     13  C   UNL     1       2.568   2.645  18.676  0.00  0.00    +0.000 A 
ATOM     14  C   UNL     1       2.732   2.299  17.237  0.00  0.00    +0.000 C 
ATOM     15  C   UNL     1       3.254   3.625  19.383  0.00  0.00    +0.000 A 
ATOM     16  N   UNL     1       2.784   3.596  20.676  0.00  0.00    +0.000 N 
ATOM     17  H   UNL     1       3.108   4.208  21.414  0.00  0.00    +0.000 HD
ENDBRANCH   1  15
TORSDOF 1
ENDMDL
MODEL 7
REMARK VINA RESULT:      -6.5      1.780      2.630
REMARK  Name = 
REMARK  3 active torsions:
REMARK  status: ('A' for Active; 'I' for Inactive)
REMARK    1  A    between atoms: C_1  and  C_2
REMARK    2  A    between atoms: C_4  and  C_5
REMARK    3  A    between atoms: C_6  and  C_7
REMARK                            x       y       z     vdW  Elec       q    Type
REMARK                         _______ _______ _______ _____ _____    ______ ____
ROOT
ATOM      1  C   UNL     1       4.361   4.813  18.465  0.00  0.00    +0.000 A 
ATOM      2  N   UNL     1       4.532   4.071  19.538  0.00  0.00    +0.000 NA
ATOM      3  C   UNL     1       3.314   3.625  20.011  0.00  0.00    +0.000 A 
ATOM      4  C   UNL     1       3.120   2.810  21.144  0.00  0.00    +0.000 A 
ATOM      5  C   UNL     1       1.825   2.428  21.510  0.00  0.00    +0.000 A 
ATOM      6  C   UNL     1       0.730   2.844  20.759  0.00  0.00    +0.000 A 
ATOM      7  C   UNL     1       0.898   3.654  19.631  0.00  0.00    +0.000 A 
ATOM      8  C   UNL     1       2.202   4.035  19.276  0.00  0.00    +0.000 A 
ATOM      9  S   UNL     1       2.731   5.020  17.967  0.00  0.00    +0.000 S 
ENDROOT
BRANCH   1  15
ATOM     10  C   UNL     1       7.992   8.055  17.549  0.00  0.00    +0.000 C 
ATOM     11  C   UNL     1       7.133   6.867  17.331  0.00  0.00    +0.000 A 
ATOM     12  C   UNL     1       7.147   5.914  16.335  0.00  0.00    +0.000 A 
ATOM     13  C   UNL     1       6.105   4.982  16.601  0.00  0.00    +0.000 A 
ATOM     14  C   UNL     1       5.765   3.789  15.776  0.00  0.00    +0.000 C 
ATOM     15  C   UNL     1       5.473   5.398  17.766  0.00  0.00    +0.000 A 
ATOM     16  N   UNL     1       6.114   6.541  18.189  0.00  0.00    +0.000 N 
ATOM     17  H   UNL     1       5.863   7.061  19.021  0.00  0.00    +0.000 HD
ENDBRANCH   1  15
TORSDOF 1
ENDMDL
MODEL 8
REMARK VINA RESULT:      -6.5      1.378      2.033
REMARK  Name = 
REMARK  3 active torsions:
REMARK  status: ('A' for Active; 'I' for Inactive)
REMARK    1  A    between atoms: C_1  and  C_2
REMARK    2  A    between atoms: C_4  and  C_5
REMARK    3  A    between atoms: C_6  and  C_7
REMARK                            x       y       z     vdW  Elec       q    Type
REMARK                         _______ _______ _______ _____ _____    ______ ____
ROOT
ATOM      1  C   UNL     1       4.523   5.033  17.347  0.00  0.00    +0.000 A 
ATOM      2  N   UNL     1       3.976   6.184  17.670  0.00  0.00    +0.000 NA
ATOM      3  C   UNL     1       3.150   6.031  18.767  0.00  0.00    +0.000 A 
ATOM      4  C   UNL     1       2.401   7.052  19.383  0.00  0.00    +0.000 A 
ATOM      5  C   UNL     1       1.605   6.755  20.494  0.00  0.00    +0.000 A 
ATOM      6  C   UNL     1       1.552   5.458  20.995  0.00  0.00    +0.000 A 
ATOM      7  C   UNL     1       2.286   4.427  20.399  0.00  0.00    +0.000 A 
ATOM      8  C   UNL     1       3.077   4.736  19.282  0.00  0.00    +0.000 A 
ATOM      9  S   UNL     1       4.075   3.702  18.334  0.00  0.00    +0.000 S 
ENDROOT
BRANCH   1  15
ATOM     10  C   UNL     1       6.170   3.564  12.912  0.00  0.00    +0.000 C 
ATOM     11  C   UNL     1       6.205   4.255  14.223  0.00  0.00    +0.000 A 
ATOM     12  C   UNL     1       7.180   5.036  14.805  0.00  0.00    +0.000 A 
ATOM     13  C   UNL     1       6.704   5.459  16.079  0.00  0.00    +0.000 A 
ATOM     14  C   UNL     1       7.439   6.322  17.045  0.00  0.00    +0.000 C 
ATOM     15  C   UNL     1       5.436   4.915  16.241  0.00  0.00    +0.000 A 
ATOM     16  N   UNL     1       5.156   4.192  15.105  0.00  0.00    +0.000 N 
ATOM     17  H   UNL     1       4.293   3.687  14.948  0.00  0.00    +0.000 HD
ENDBRANCH   1  15
TORSDOF 1
ENDMDL
MODEL 9
REMARK VINA RESULT:      -6.4      3.432      4.849
REMARK  Name = 
REMARK  3 active torsions:
REMARK  status: ('A' for Active; 'I' for Inactive)
REMARK    1  A    between atoms: C_1  and  C_2
REMARK    2  A    between atoms: C_4  and  C_5
REMARK    3  A    between atoms: C_6  and  C_7
REMARK                            x       y       z     vdW  Elec       q    Type
REMARK                         _______ _______ _______ _____ _____    ______ ____
ROOT
ATOM      1  C   UNL     1       2.656   7.057  18.683  0.00  0.00    +0.000 A 
ATOM      2  N   UNL     1       2.277   7.014  19.941  0.00  0.00    +0.000 NA
ATOM      3  C   UNL     1       1.583   8.162  20.272  0.00  0.00    +0.000 A 
ATOM      4  C   UNL     1       1.033   8.456  21.535  0.00  0.00    +0.000 A 
ATOM      5  C   UNL     1       0.350   9.661  21.730  0.00  0.00    +0.000 A 
ATOM      6  C   UNL     1       0.207  10.567  20.684  0.00  0.00    +0.000 A 
ATOM      7  C   UNL     1       0.746  10.297  19.421  0.00  0.00    +0.000 A 
ATOM      8  C   UNL     1       1.434   9.087  19.238  0.00  0.00    +0.000 A 
ATOM      9  S   UNL     1       2.208   8.476  17.827  0.00  0.00    +0.000 S 
ENDROOT
BRANCH   1  15
ATOM     10  C   UNL     1       6.585   4.666  16.843  0.00  0.00    +0.000 C 
ATOM     11  C   UNL     1       5.170   4.873  17.234  0.00  0.00    +0.000 A 
ATOM     12  C   UNL     1       4.076   4.042  17.130  0.00  0.00    +0.000 A 
ATOM     13  C   UNL     1       2.948   4.730  17.661  0.00  0.00    +0.000 A 
ATOM     14  C   UNL     1       1.559   4.199  17.746  0.00  0.00    +0.000 C 
ATOM     15  C   UNL     1       3.391   5.979  18.079  0.00  0.00    +0.000 A 
ATOM     16  N   UNL     1       4.739   6.041  17.811  0.00  0.00    +0.000 N 
ATOM     17  H   UNL     1       5.325   6.841  18.015  0.00  0.00    +0.000 HD
ENDBRANCH   1  15
TORSDOF 1
ENDMDL
