MODEL 1
REMARK VINA RESULT:      -7.7      0.000      0.000
REMARK  Name = 
REMARK  4 active torsions:
REMARK  status: ('A' for Active; 'I' for Inactive)
REMARK    1  A    between atoms: C_1  and  C_2
REMARK    2  A    between atoms: C_2  and  C_3
REMARK    3  A    between atoms: C_15  and  N_16
REMARK    4  A    between atoms: C_18  and  C_19
REMARK                            x       y       z     vdW  Elec       q    Type
REMARK                         _______ _______ _______ _____ _____    ______ ____
ROOT
ATOM      1  C   UNL     1      -3.196  13.474  23.998  0.00  0.00    +0.000 C 
ATOM      2  C   UNL     1      -2.109  13.078  22.983  0.00  0.00    +0.000 C 
ATOM      3  C   UNL     1      -0.793  13.761  23.416  0.00  0.00    +0.000 C 
ATOM      4  C   UNL     1      -2.549  13.577  21.599  0.00  0.00    +0.000 C 
ATOM      5  C   UNL     1      -1.691  13.050  20.475  0.00  0.00    +0.000 C 
ATOM      6  O   UNL     1      -1.715  13.600  19.372  0.00  0.00    +0.000 OA
ATOM      7  C   UNL     1      -0.891  11.816  20.694  0.00  0.00    +0.000 C 
ATOM      8  C   UNL     1      -1.047  11.078  21.802  0.00  0.00    +0.000 C 
ATOM      9  C   UNL     1      -1.941  11.538  22.937  0.00  0.00    +0.000 C 
ATOM     10  N   UNL     1      -0.348   9.897  21.948  0.00  0.00    +0.000 N 
ATOM     11  C   UNL     1       0.461   9.331  20.946  0.00  0.00    +0.000 A 
ATOM     12  N   UNL     1       1.002   8.117  21.178  0.00  0.00    +0.000 NA
ATOM     13  C   UNL     1       1.794   7.559  20.217  0.00  0.00    +0.000 A 
ATOM     14  C   UNL     1       2.057   8.178  19.002  0.00  0.00    +0.000 A 
ATOM     15  C   UNL     1       1.501   9.453  18.772  0.00  0.00    +0.000 A 
ATOM     16  C   UNL     1       0.682  10.035  19.761  0.00  0.00    +0.000 A 
ATOM     17  C   UNL     1       0.093  11.431  19.608  0.00  0.00    +0.000 C 
ATOM     18  C   UNL     1       2.977   7.578  17.979  0.00  0.00    +0.000 C 
ATOM     19  C   UNL     1       3.477   6.160  18.198  0.00  0.00    +0.000 C 
ATOM     20  C   UNL     1       3.371   5.592  19.601  0.00  0.00    +0.000 C 
ATOM     21  C   UNL     1       2.312   6.184  20.527  0.00  0.00    +0.000 C 
ATOM     22  H   UNL     1      -0.497   9.295  22.749  0.00  0.00    +0.000 HD
ENDROOT
BRANCH  17  23
ATOM     23  C   UNL     1       1.206  12.493  19.514  0.00  0.00    +0.000 A 
ATOM     24  C   UNL     1       1.936  12.845  20.663  0.00  0.00    +0.000 A 
ATOM     25  C   UNL     1       2.916  13.834  20.607  0.00  0.00    +0.000 A 
ATOM     26  C   UNL     1       3.196  14.450  19.394  0.00  0.00    +0.000 A 
ATOM     27  F   UNL     1       4.143  15.395  19.341  0.00  0.00    +0.000 F 
ATOM     28  C   UNL     1       2.512  14.100  18.237  0.00  0.00    +0.000 A 
ATOM     29  C   UNL     1       1.515  13.125  18.293  0.00  0.00    +0.000 A 
ENDBRANCH  17  23
BRANCH  15  30
ATOM     30  N   UNL     1       1.589  10.023  17.484  0.00  0.00    +0.000 N 
ATOM     31  H   UNL     1       2.450   9.821  16.993  0.00  0.00    +0.000 HD
ATOM     32  H   UNL     1       1.392  11.016  17.441  0.00  0.00    +0.000 HD
ENDBRANCH  15  30
TORSDOF 2
ENDMDL
MODEL 2
REMARK VINA RESULT:      -7.0      7.668     10.020
REMARK  Name = 
REMARK  4 active torsions:
REMARK  status: ('A' for Active; 'I' for Inactive)
REMARK    1  A    between atoms: C_1  and  C_2
REMARK    2  A    between atoms: C_2  and  C_3
REMARK    3  A    between atoms: C_15  and  N_16
REMARK    4  A    between atoms: C_18  and  C_19
REMARK                            x       y       z     vdW  Elec       q    Type
REMARK                         _______ _______ _______ _____ _____    ______ ____
ROOT
ATOM      1  C   UNL     1      11.951  11.553  18.208  0.00  0.00    +0.000 C 
ATOM      2  C   UNL     1      10.947  12.314  19.092  0.00  0.00    +0.000 C 
ATOM      3  C   UNL     1       9.699  12.614  18.231  0.00  0.00    +0.000 C 
ATOM      4  C   UNL     1      11.613  13.617  19.552  0.00  0.00    +0.000 C 
ATOM      5  C   UNL     1      10.828  14.346  20.615  0.00  0.00    +0.000 C 
ATOM      6  O   UNL     1      11.060  15.533  20.848  0.00  0.00    +0.000 OA
ATOM      7  C   UNL     1       9.840  13.589  21.430  0.00  0.00    +0.000 C 
ATOM      8  C   UNL     1       9.758  12.254  21.351  0.00  0.00    +0.000 C 
ATOM      9  C   UNL     1      10.568  11.470  20.336  0.00  0.00    +0.000 C 
ATOM     10  N   UNL     1       8.885  11.568  22.172  0.00  0.00    +0.000 N 
ATOM     11  C   UNL     1       8.128  12.168  23.194  0.00  0.00    +0.000 A 
ATOM     12  N   UNL     1       7.396  11.365  23.996  0.00  0.00    +0.000 NA
ATOM     13  C   UNL     1       6.653  11.936  24.988  0.00  0.00    +0.000 A 
ATOM     14  C   UNL     1       6.625  13.304  25.221  0.00  0.00    +0.000 A 
ATOM     15  C   UNL     1       7.381  14.138  24.370  0.00  0.00    +0.000 A 
ATOM     16  C   UNL     1       8.151  13.555  23.344  0.00  0.00    +0.000 A 
ATOM     17  C   UNL     1       8.948  14.394  22.352  0.00  0.00    +0.000 C 
ATOM     18  C   UNL     1       5.757  13.920  26.278  0.00  0.00    +0.000 C 
ATOM     19  C   UNL     1       5.038  13.001  27.252  0.00  0.00    +0.000 C 
ATOM     20  C   UNL     1       4.896  11.543  26.857  0.00  0.00    +0.000 C 
ATOM     21  C   UNL     1       5.911  10.973  25.870  0.00  0.00    +0.000 C 
ATOM     22  H   UNL     1       8.852  10.555  22.171  0.00  0.00    +0.000 HD
ENDROOT
BRANCH  17  23
ATOM     23  C   UNL     1       8.015  15.295  21.518  0.00  0.00    +0.000 A 
ATOM     24  C   UNL     1       7.086  14.715  20.637  0.00  0.00    +0.000 A 
ATOM     25  C   UNL     1       6.265  15.514  19.843  0.00  0.00    +0.000 A 
ATOM     26  C   UNL     1       6.345  16.896  19.953  0.00  0.00    +0.000 A 
ATOM     27  F   UNL     1       5.552  17.662  19.194  0.00  0.00    +0.000 F 
ATOM     28  C   UNL     1       7.233  17.496  20.837  0.00  0.00    +0.000 A 
ATOM     29  C   UNL     1       8.072  16.699  21.618  0.00  0.00    +0.000 A 
ENDBRANCH  17  23
BRANCH  15  30
ATOM     30  N   UNL     1       7.528  15.503  24.694  0.00  0.00    +0.000 N 
ATOM     31  H   UNL     1       8.486  15.809  24.805  0.00  0.00    +0.000 HD
ATOM     32  H   UNL     1       6.971  15.819  25.479  0.00  0.00    +0.000 HD
ENDBRANCH  15  30
TORSDOF 2
ENDMDL
MODEL 3
REMARK VINA RESULT:      -7.0      1.164      1.386
REMARK  Name = 
REMARK  4 active torsions:
REMARK  status: ('A' for Active; 'I' for Inactive)
REMARK    1  A    between atoms: C_1  and  C_2
REMARK    2  A    between atoms: C_2  and  C_3
REMARK    3  A    between atoms: C_15  and  N_16
REMARK    4  A    between atoms: C_18  and  C_19
REMARK                            x       y       z     vdW  Elec       q    Type
REMARK                         _______ _______ _______ _____ _____    ______ ____
ROOT
ATOM      1  C   UNL     1      -3.773  14.136  24.955  0.00  0.00    +0.000 C 
ATOM      2  C   UNL     1      -2.758  13.810  23.844  0.00  0.00    +0.000 C 
ATOM      3  C   UNL     1      -1.427  14.506  24.207  0.00  0.00    +0.000 C 
ATOM      4  C   UNL     1      -3.313  14.356  22.521  0.00  0.00    +0.000 C 
ATOM      5  C   UNL     1      -2.531  13.900  21.313  0.00  0.00    +0.000 C 
ATOM      6  O   UNL     1      -2.651  14.495  20.241  0.00  0.00    +0.000 OA
ATOM      7  C   UNL     1      -1.691  12.677  21.416  0.00  0.00    +0.000 C 
ATOM      8  C   UNL     1      -1.747  11.889  22.499  0.00  0.00    +0.000 C 
ATOM      9  C   UNL     1      -2.561  12.278  23.718  0.00  0.00    +0.000 C 
ATOM     10  N   UNL     1      -1.014  10.720  22.539  0.00  0.00    +0.000 N 
ATOM     11  C   UNL     1      -0.271  10.218  21.455  0.00  0.00    +0.000 A 
ATOM     12  N   UNL     1       0.311   9.008  21.592  0.00  0.00    +0.000 NA
ATOM     13  C   UNL     1       1.038   8.512  20.549  0.00  0.00    +0.000 A 
ATOM     14  C   UNL     1       1.195   9.188  19.347  0.00  0.00    +0.000 A 
ATOM     15  C   UNL     1       0.596  10.458  19.216  0.00  0.00    +0.000 A 
ATOM     16  C   UNL     1      -0.157  10.977  20.289  0.00  0.00    +0.000 A 
ATOM     17  C   UNL     1      -0.786  12.363  20.243  0.00  0.00    +0.000 C 
ATOM     18  C   UNL     1       2.047   8.655  18.232  0.00  0.00    +0.000 C 
ATOM     19  C   UNL     1       2.592   7.241  18.349  0.00  0.00    +0.000 C 
ATOM     20  C   UNL     1       2.605   6.612  19.729  0.00  0.00    +0.000 C 
ATOM     21  C   UNL     1       1.608   7.138  20.759  0.00  0.00    +0.000 C 
ATOM     22  H   UNL     1      -1.089  10.081  23.322  0.00  0.00    +0.000 HD
ENDROOT
BRANCH  17  23
ATOM     23  C   UNL     1       0.295  13.456  20.113  0.00  0.00    +0.000 A 
ATOM     24  C   UNL     1       1.203  13.669  21.164  0.00  0.00    +0.000 A 
ATOM     25  C   UNL     1       2.159  14.680  21.083  0.00  0.00    +0.000 A 
ATOM     26  C   UNL     1       2.233  15.459  19.935  0.00  0.00    +0.000 A 
ATOM     27  F   UNL     1       3.156  16.425  19.856  0.00  0.00    +0.000 F 
ATOM     28  C   UNL     1       1.368  15.249  18.869  0.00  0.00    +0.000 A 
ATOM     29  C   UNL     1       0.396  14.252  18.955  0.00  0.00    +0.000 A 
ENDBRANCH  17  23
BRANCH  15  30
ATOM     30  N   UNL     1       0.574  11.084  17.952  0.00  0.00    +0.000 N 
ATOM     31  H   UNL     1       1.105  10.607  17.236  0.00  0.00    +0.000 HD
ATOM     32  H   UNL     1       0.811  12.069  17.958  0.00  0.00    +0.000 HD
ENDBRANCH  15  30
TORSDOF 2
ENDMDL
MODEL 4
REMARK VINA RESULT:      -6.8      3.392      7.023
REMARK  Name = 
REMARK  4 active torsions:
REMARK  status: ('A' for Active; 'I' for Inactive)
REMARK    1  A    between atoms: C_1  and  C_2
REMARK    2  A    between atoms: C_2  and  C_3
REMARK    3  A    between atoms: C_15  and  N_16
REMARK    4  A    between atoms: C_18  and  C_19
REMARK                            x       y       z     vdW  Elec       q    Type
REMARK                         _______ _______ _______ _____ _____    ______ ____
ROOT
ATOM      1  C   UNL     1       2.280   8.826  17.851  0.00  0.00    +0.000 C 
ATOM      2  C   UNL     1       1.325   9.884  18.433  0.00  0.00    +0.000 C 
ATOM      3  C   UNL     1       1.837  11.273  17.988  0.00  0.00    +0.000 C 
ATOM      4  C   UNL     1       1.356   9.760  19.963  0.00  0.00    +0.000 C 
ATOM      5  C   UNL     1       0.289  10.578  20.649  0.00  0.00    +0.000 C 
ATOM      6  O   UNL     1       0.385  10.831  21.851  0.00  0.00    +0.000 OA
ATOM      7  C   UNL     1      -0.912  10.992  19.877  0.00  0.00    +0.000 C 
ATOM      8  C   UNL     1      -1.140  10.516  18.645  0.00  0.00    +0.000 C 
ATOM      9  C   UNL     1      -0.123   9.645  17.934  0.00  0.00    +0.000 C 
ATOM     10  N   UNL     1      -2.300  10.857  17.978  0.00  0.00    +0.000 N 
ATOM     11  C   UNL     1      -3.347  11.602  18.549  0.00  0.00    +0.000 A 
ATOM     12  N   UNL     1      -4.473  11.772  17.824  0.00  0.00    +0.000 NA
ATOM     13  C   UNL     1      -5.494  12.498  18.365  0.00  0.00    +0.000 A 
ATOM     14  C   UNL     1      -5.435  13.059  19.633  0.00  0.00    +0.000 A 
ATOM     15  C   UNL     1      -4.250  12.889  20.380  0.00  0.00    +0.000 A 
ATOM     16  C   UNL     1      -3.192  12.141  19.827  0.00  0.00    +0.000 A 
ATOM     17  C   UNL     1      -1.862  11.962  20.549  0.00  0.00    +0.000 C 
ATOM     18  C   UNL     1      -6.544  13.904  20.189  0.00  0.00    +0.000 C 
ATOM     19  C   UNL     1      -7.851  13.983  19.419  0.00  0.00    +0.000 C 
ATOM     20  C   UNL     1      -7.826  13.564  17.961  0.00  0.00    +0.000 C 
ATOM     21  C   UNL     1      -6.732  12.595  17.519  0.00  0.00    +0.000 C 
ATOM     22  H   UNL     1      -2.520  10.459  17.072  0.00  0.00    +0.000 HD
ENDROOT
BRANCH  17  23
ATOM     23  C   UNL     1      -1.159  13.319  20.756  0.00  0.00    +0.000 A 
ATOM     24  C   UNL     1      -0.752  14.073  19.641  0.00  0.00    +0.000 A 
ATOM     25  C   UNL     1      -0.077  15.281  19.808  0.00  0.00    +0.000 A 
ATOM     26  C   UNL     1       0.161  15.757  21.091  0.00  0.00    +0.000 A 
ATOM     27  F   UNL     1       0.804  16.921  21.249  0.00  0.00    +0.000 F 
ATOM     28  C   UNL     1      -0.258  15.049  22.210  0.00  0.00    +0.000 A 
ATOM     29  C   UNL     1      -0.915  13.828  22.047  0.00  0.00    +0.000 A 
ENDBRANCH  17  23
BRANCH  15  30
ATOM     30  N   UNL     1      -4.227  13.278  21.735  0.00  0.00    +0.000 N 
ATOM     31  H   UNL     1      -4.845  12.748  22.336  0.00  0.00    +0.000 HD
ATOM     32  H   UNL     1      -4.353  14.270  21.899  0.00  0.00    +0.000 HD
ENDBRANCH  15  30
TORSDOF 2
ENDMDL
MODEL 5
REMARK VINA RESULT:      -6.7      1.109      1.222
REMARK  Name = 
REMARK  4 active torsions:
REMARK  status: ('A' for Active; 'I' for Inactive)
REMARK    1  A    between atoms: C_1  and  C_2
REMARK    2  A    between atoms: C_2  and  C_3
REMARK    3  A    between atoms: C_15  and  N_16
REMARK    4  A    between atoms: C_18  and  C_19
REMARK                            x       y       z     vdW  Elec       q    Type
REMARK                         _______ _______ _______ _____ _____    ______ ____
ROOT
ATOM      1  C   UNL     1      -2.884  15.282  22.971  0.00  0.00    +0.000 C 
ATOM      2  C   UNL     1      -1.760  14.604  22.168  0.00  0.00    +0.000 C 
ATOM      3  C   UNL     1      -0.414  15.024  22.800  0.00  0.00    +0.000 C 
ATOM      4  C   UNL     1      -1.853  15.094  20.716  0.00  0.00    +0.000 C 
ATOM      5  C   UNL     1      -0.959  14.330  19.770  0.00  0.00    +0.000 C 
ATOM      6  O   UNL     1      -0.686  14.800  18.664  0.00  0.00    +0.000 OA
ATOM      7  C   UNL     1      -0.491  12.972  20.156  0.00  0.00    +0.000 C 
ATOM      8  C   UNL     1      -0.979  12.356  21.242  0.00  0.00    +0.000 C 
ATOM      9  C   UNL     1      -1.923  13.063  22.194  0.00  0.00    +0.000 C 
ATOM     10  N   UNL     1      -0.584  11.066  21.538  0.00  0.00    +0.000 N 
ATOM     11  C   UNL     1       0.234  10.282  20.705  0.00  0.00    +0.000 A 
ATOM     12  N   UNL     1       0.455   8.998  21.060  0.00  0.00    +0.000 NA
ATOM     13  C   UNL     1       1.251   8.228  20.264  0.00  0.00    +0.000 A 
ATOM     14  C   UNL     1       1.834   8.700  19.096  0.00  0.00    +0.000 A 
ATOM     15  C   UNL     1       1.611  10.046  18.738  0.00  0.00    +0.000 A 
ATOM     16  C   UNL     1       0.789  10.847  19.556  0.00  0.00    +0.000 A 
ATOM     17  C   UNL     1       0.548  12.323  19.266  0.00  0.00    +0.000 C 
ATOM     18  C   UNL     1       2.755   7.857  18.262  0.00  0.00    +0.000 C 
ATOM     19  C   UNL     1       2.895   6.383  18.602  0.00  0.00    +0.000 C 
ATOM     20  C   UNL     1       2.444   5.941  19.981  0.00  0.00    +0.000 C 
ATOM     21  C   UNL     1       1.403   6.798  20.697  0.00  0.00    +0.000 C 
ATOM     22  H   UNL     1      -0.987  10.561  22.318  0.00  0.00    +0.000 HD
ENDROOT
BRANCH  17  23
ATOM     23  C   UNL     1       1.865  13.121  19.334  0.00  0.00    +0.000 A 
ATOM     24  C   UNL     1       2.439  13.418  20.582  0.00  0.00    +0.000 A 
ATOM     25  C   UNL     1       3.606  14.176  20.666  0.00  0.00    +0.000 A 
ATOM     26  C   UNL     1       4.223  14.610  19.499  0.00  0.00    +0.000 A 
ATOM     27  F   UNL     1       5.347  15.332  19.582  0.00  0.00    +0.000 F 
ATOM     28  C   UNL     1       3.694  14.304  18.252  0.00  0.00    +0.000 A 
ATOM     29  C   UNL     1       2.514  13.564  18.164  0.00  0.00    +0.000 A 
ENDBRANCH  17  23
BRANCH  15  30
ATOM     30  N   UNL     1       2.026  10.501  17.469  0.00  0.00    +0.000 N 
ATOM     31  H   UNL     1       3.018  10.689  17.393  0.00  0.00    +0.000 HD
ATOM     32  H   UNL     1       1.498  11.284  17.101  0.00  0.00    +0.000 HD
ENDBRANCH  15  30
TORSDOF 2
ENDMDL
MODEL 6
REMARK VINA RESULT:      -6.7      3.557      6.603
REMARK  Name = 
REMARK  4 active torsions:
REMARK  status: ('A' for Active; 'I' for Inactive)
REMARK    1  A    between atoms: C_1  and  C_2
REMARK    2  A    between atoms: C_2  and  C_3
REMARK    3  A    between atoms: C_15  and  N_16
REMARK    4  A    between atoms: C_18  and  C_19
REMARK                            x       y       z     vdW  Elec       q    Type
REMARK                         _______ _______ _______ _____ _____    ______ ____
ROOT
ATOM      1  C   UNL     1      -5.589  13.289  24.069  0.00  0.00    +0.000 C 
ATOM      2  C   UNL     1      -4.485  13.226  22.999  0.00  0.00    +0.000 C 
ATOM      3  C   UNL     1      -5.091  12.570  21.739  0.00  0.00    +0.000 C 
ATOM      4  C   UNL     1      -3.335  12.375  23.555  0.00  0.00    +0.000 C 
ATOM      5  C   UNL     1      -2.090  12.426  22.704  0.00  0.00    +0.000 C 
ATOM      6  O   UNL     1      -1.216  11.568  22.838  0.00  0.00    +0.000 OA
ATOM      7  C   UNL     1      -1.896  13.571  21.774  0.00  0.00    +0.000 C 
ATOM      8  C   UNL     1      -2.719  14.629  21.800  0.00  0.00    +0.000 C 
ATOM      9  C   UNL     1      -3.955  14.648  22.679  0.00  0.00    +0.000 C 
ATOM     10  N   UNL     1      -2.475  15.711  20.979  0.00  0.00    +0.000 N 
ATOM     11  C   UNL     1      -1.334  15.844  20.167  0.00  0.00    +0.000 A 
ATOM     12  N   UNL     1      -1.165  17.002  19.496  0.00  0.00    +0.000 NA
ATOM     13  C   UNL     1      -0.065  17.141  18.700  0.00  0.00    +0.000 A 
ATOM     14  C   UNL     1       0.897  16.150  18.561  0.00  0.00    +0.000 A 
ATOM     15  C   UNL     1       0.707  14.937  19.254  0.00  0.00    +0.000 A 
ATOM     16  C   UNL     1      -0.427  14.787  20.077  0.00  0.00    +0.000 A 
ATOM     17  C   UNL     1      -0.730  13.487  20.811  0.00  0.00    +0.000 C 
ATOM     18  C   UNL     1       2.071  16.296  17.636  0.00  0.00    +0.000 C 
ATOM     19  C   UNL     1       2.317  17.647  16.986  0.00  0.00    +0.000 C 
ATOM     20  C   UNL     1       1.162  18.631  16.965  0.00  0.00    +0.000 C 
ATOM     21  C   UNL     1       0.081  18.478  18.031  0.00  0.00    +0.000 C 
ATOM     22  H   UNL     1      -3.049  16.545  21.027  0.00  0.00    +0.000 HD
ENDROOT
BRANCH  17  23
ATOM     23  C   UNL     1      -0.958  12.331  19.816  0.00  0.00    +0.000 A 
ATOM     24  C   UNL     1      -0.009  11.300  19.712  0.00  0.00    +0.000 A 
ATOM     25  C   UNL     1      -0.175  10.270  18.789  0.00  0.00    +0.000 A 
ATOM     26  C   UNL     1      -1.311  10.248  17.989  0.00  0.00    +0.000 A 
ATOM     27  F   UNL     1      -1.473   9.254  17.107  0.00  0.00    +0.000 F 
ATOM     28  C   UNL     1      -2.281  11.237  18.093  0.00  0.00    +0.000 A 
ATOM     29  C   UNL     1      -2.107  12.282  19.002  0.00  0.00    +0.000 A 
ENDBRANCH  17  23
BRANCH  15  30
ATOM     30  N   UNL     1       1.751  13.989  19.287  0.00  0.00    +0.000 N 
ATOM     31  H   UNL     1       2.330  13.971  18.457  0.00  0.00    +0.000 HD
ATOM     32  H   UNL     1       1.466  13.047  19.529  0.00  0.00    +0.000 HD
ENDBRANCH  15  30
TORSDOF 2
ENDMDL
MODEL 7
REMARK VINA RESULT:      -6.7      2.515      4.765
REMARK  Name = 
REMARK  4 active torsions:
REMARK  status: ('A' for Active; 'I' for Inactive)
REMARK    1  A    between atoms: C_1  and  C_2
REMARK    2  A    between atoms: C_2  and  C_3
REMARK    3  A    between atoms: C_15  and  N_16
REMARK    4  A    between atoms: C_18  and  C_19
REMARK                            x       y       z     vdW  Elec       q    Type
REMARK                         _______ _______ _______ _____ _____    ______ ____
ROOT
ATOM      1  C   UNL     1       1.548  17.372  18.209  0.00  0.00    +0.000 C 
ATOM      2  C   UNL     1       1.103  16.048  18.855  0.00  0.00    +0.000 C 
ATOM      3  C   UNL     1      -0.401  15.862  18.556  0.00  0.00    +0.000 C 
ATOM      4  C   UNL     1       1.347  16.153  20.367  0.00  0.00    +0.000 C 
ATOM      5  C   UNL     1       1.176  14.840  21.091  0.00  0.00    +0.000 C 
ATOM      6  O   UNL     1       1.024  14.826  22.314  0.00  0.00    +0.000 OA
ATOM      7  C   UNL     1       1.283  13.571  20.322  0.00  0.00    +0.000 C 
ATOM      8  C   UNL     1       1.689  13.569  19.045  0.00  0.00    +0.000 C 
ATOM      9  C   UNL     1       1.927  14.862  18.289  0.00  0.00    +0.000 C 
ATOM     10  N   UNL     1       1.851  12.373  18.376  0.00  0.00    +0.000 N 
ATOM     11  C   UNL     1       1.725  11.108  18.979  0.00  0.00    +0.000 A 
ATOM     12  N   UNL     1       2.018  10.020  18.237  0.00  0.00    +0.000 NA
ATOM     13  C   UNL     1       1.893   8.787  18.809  0.00  0.00    +0.000 A 
ATOM     14  C   UNL     1       1.493   8.601  20.125  0.00  0.00    +0.000 A 
ATOM     15  C   UNL     1       1.175   9.742  20.890  0.00  0.00    +0.000 A 
ATOM     16  C   UNL     1       1.301  11.019  20.305  0.00  0.00    +0.000 A 
ATOM     17  C   UNL     1       0.922  12.293  21.050  0.00  0.00    +0.000 C 
ATOM     18  C   UNL     1       1.304   7.236  20.720  0.00  0.00    +0.000 C 
ATOM     19  C   UNL     1       1.756   6.027  19.919  0.00  0.00    +0.000 C 
ATOM     20  C   UNL     1       1.974   6.221  18.430  0.00  0.00    +0.000 C 
ATOM     21  C   UNL     1       2.290   7.630  17.936  0.00  0.00    +0.000 C 
ATOM     22  H   UNL     1       2.216  12.346  17.430  0.00  0.00    +0.000 HD
ENDROOT
BRANCH  17  23
ATOM     23  C   UNL     1      -0.579  12.300  21.403  0.00  0.00    +0.000 A 
ATOM     24  C   UNL     1      -1.536  12.457  20.386  0.00  0.00    +0.000 A 
ATOM     25  C   UNL     1      -2.895  12.510  20.691  0.00  0.00    +0.000 A 
ATOM     26  C   UNL     1      -3.304  12.370  22.011  0.00  0.00    +0.000 A 
ATOM     27  F   UNL     1      -4.610  12.415  22.301  0.00  0.00    +0.000 F 
ATOM     28  C   UNL     1      -2.381  12.182  23.032  0.00  0.00    +0.000 A 
ATOM     29  C   UNL     1      -1.018  12.151  22.734  0.00  0.00    +0.000 A 
ENDBRANCH  17  23
BRANCH  15  30
ATOM     30  N   UNL     1       0.951   9.604  22.276  0.00  0.00    +0.000 N 
ATOM     31  H   UNL     1       0.228  10.207  22.648  0.00  0.00    +0.000 HD
ATOM     32  H   UNL     1       1.782   9.667  22.852  0.00  0.00    +0.000 HD
ENDBRANCH  15  30
TORSDOF 2
ENDMDL
MODEL 8
REMARK VINA RESULT:      -6.7      7.990     10.122
REMARK  Name = 
REMARK  4 active torsions:
REMARK  status: ('A' for Active; 'I' for Inactive)
REMARK    1  A    between atoms: C_1  and  C_2
REMARK    2  A    between atoms: C_2  and  C_3
REMARK    3  A    between atoms: C_15  and  N_16
REMARK    4  A    between atoms: C_18  and  C_19
REMARK                            x       y       z     vdW  Elec       q    Type
REMARK                         _______ _______ _______ _____ _____    ______ ____
ROOT
ATOM      1  C   UNL     1      10.847  11.296  17.768  0.00  0.00    +0.000 C 
ATOM      2  C   UNL     1      10.168  12.132  18.868  0.00  0.00    +0.000 C 
ATOM      3  C   UNL     1       8.853  12.696  18.283  0.00  0.00    +0.000 C 
ATOM      4  C   UNL     1      11.121  13.270  19.255  0.00  0.00    +0.000 C 
ATOM      5  C   UNL     1      10.681  14.025  20.486  0.00  0.00    +0.000 C 
ATOM      6  O   UNL     1      11.153  15.137  20.728  0.00  0.00    +0.000 OA
ATOM      7  C   UNL     1       9.745  13.371  21.438  0.00  0.00    +0.000 C 
ATOM      8  C   UNL     1       9.421  12.076  21.310  0.00  0.00    +0.000 C 
ATOM      9  C   UNL     1       9.884  11.260  20.119  0.00  0.00    +0.000 C 
ATOM     10  N   UNL     1       8.609  11.473  22.249  0.00  0.00    +0.000 N 
ATOM     11  C   UNL     1       8.167  12.099  23.428  0.00  0.00    +0.000 A 
ATOM     12  N   UNL     1       7.468  11.360  24.315  0.00  0.00    +0.000 NA
ATOM     13  C   UNL     1       7.028  11.958  25.460  0.00  0.00    +0.000 A 
ATOM     14  C   UNL     1       7.279  13.290  25.763  0.00  0.00    +0.000 A 
ATOM     15  C   UNL     1       7.998  14.060  24.825  0.00  0.00    +0.000 A 
ATOM     16  C   UNL     1       8.455  13.448  23.640  0.00  0.00    +0.000 A 
ATOM     17  C   UNL     1       9.188  14.228  22.555  0.00  0.00    +0.000 C 
ATOM     18  C   UNL     1       6.739  13.947  26.999  0.00  0.00    +0.000 C 
ATOM     19  C   UNL     1       6.063  13.078  28.046  0.00  0.00    +0.000 C 
ATOM     20  C   UNL     1       5.603  11.698  27.614  0.00  0.00    +0.000 C 
ATOM     21  C   UNL     1       6.307  11.056  26.421  0.00  0.00    +0.000 C 
ATOM     22  H   UNL     1       8.403  10.481  22.204  0.00  0.00    +0.000 HD
ENDROOT
BRANCH  17  23
ATOM     23  C   UNL     1       8.287  15.332  21.965  0.00  0.00    +0.000 A 
ATOM     24  C   UNL     1       8.624  16.684  22.153  0.00  0.00    +0.000 A 
ATOM     25  C   UNL     1       7.800  17.696  21.664  0.00  0.00    +0.000 A 
ATOM     26  C   UNL     1       6.654  17.360  20.955  0.00  0.00    +0.000 A 
ATOM     27  F   UNL     1       5.866  18.333  20.481  0.00  0.00    +0.000 F 
ATOM     28  C   UNL     1       6.314  16.032  20.728  0.00  0.00    +0.000 A 
ATOM     29  C   UNL     1       7.125  15.016  21.234  0.00  0.00    +0.000 A 
ENDBRANCH  17  23
BRANCH  15  30
ATOM     30  N   UNL     1       8.434  15.353  25.182  0.00  0.00    +0.000 N 
ATOM     31  H   UNL     1       9.384  15.397  25.528  0.00  0.00    +0.000 HD
ATOM     32  H   UNL     1       7.816  15.856  25.807  0.00  0.00    +0.000 HD
ENDBRANCH  15  30
TORSDOF 2
ENDMDL
MODEL 9
REMARK VINA RESULT:      -6.6      3.467      6.148
REMARK  Name = 
REMARK  4 active torsions:
REMARK  status: ('A' for Active; 'I' for Inactive)
REMARK    1  A    between atoms: C_1  and  C_2
REMARK    2  A    between atoms: C_2  and  C_3
REMARK    3  A    between atoms: C_15  and  N_16
REMARK    4  A    between atoms: C_18  and  C_19
REMARK                            x       y       z     vdW  Elec       q    Type
REMARK                         _______ _______ _______ _____ _____    ______ ____
ROOT
ATOM      1  C   UNL     1      -5.250  13.721  24.224  0.00  0.00    +0.000 C 
ATOM      2  C   UNL     1      -4.213  13.427  23.125  0.00  0.00    +0.000 C 
ATOM      3  C   UNL     1      -4.984  13.041  21.843  0.00  0.00    +0.000 C 
ATOM      4  C   UNL     1      -3.335  12.262  23.602  0.00  0.00    +0.000 C 
ATOM      5  C   UNL     1      -2.130  12.025  22.725  0.00  0.00    +0.000 C 
ATOM      6  O   UNL     1      -1.523  10.954  22.787  0.00  0.00    +0.000 OA
ATOM      7  C   UNL     1      -1.638  13.130  21.859  0.00  0.00    +0.000 C 
ATOM      8  C   UNL     1      -2.140  14.368  21.967  0.00  0.00    +0.000 C 
ATOM      9  C   UNL     1      -3.316  14.668  22.875  0.00  0.00    +0.000 C 
ATOM     10  N   UNL     1      -1.616  15.392  21.204  0.00  0.00    +0.000 N 
ATOM     11  C   UNL     1      -0.488  15.260  20.374  0.00  0.00    +0.000 A 
ATOM     12  N   UNL     1      -0.013  16.368  19.768  0.00  0.00    +0.000 NA
ATOM     13  C   UNL     1       1.076  16.252  18.955  0.00  0.00    +0.000 A 
ATOM     14  C   UNL     1       1.730  15.047  18.734  0.00  0.00    +0.000 A 
ATOM     15  C   UNL     1       1.220  13.890  19.360  0.00  0.00    +0.000 A 
ATOM     16  C   UNL     1       0.094  14.003  20.200  0.00  0.00    +0.000 A 
ATOM     17  C   UNL     1      -0.547  12.792  20.865  0.00  0.00    +0.000 C 
ATOM     18  C   UNL     1       2.892  14.926  17.791  0.00  0.00    +0.000 C 
ATOM     19  C   UNL     1       3.493  16.196  17.215  0.00  0.00    +0.000 C 
ATOM     20  C   UNL     1       2.651  17.457  17.280  0.00  0.00    +0.000 C 
ATOM     21  C   UNL     1       1.577  17.538  18.361  0.00  0.00    +0.000 C 
ATOM     22  H   UNL     1      -1.939  16.347  21.315  0.00  0.00    +0.000 HD
ENDROOT
BRANCH  17  23
ATOM     23  C   UNL     1      -1.090  11.807  19.810  0.00  0.00    +0.000 A 
ATOM     24  C   UNL     1      -2.219  12.151  19.048  0.00  0.00    +0.000 A 
ATOM     25  C   UNL     1      -2.750  11.256  18.121  0.00  0.00    +0.000 A 
ATOM     26  C   UNL     1      -2.133  10.027  17.927  0.00  0.00    +0.000 A 
ATOM     27  F   UNL     1      -2.641   9.172  17.031  0.00  0.00    +0.000 F 
ATOM     28  C   UNL     1      -0.997   9.674  18.644  0.00  0.00    +0.000 A 
ATOM     29  C   UNL     1      -0.475  10.558  19.589  0.00  0.00    +0.000 A 
ENDBRANCH  17  23
BRANCH  15  30
ATOM     30  N   UNL     1       1.965  12.694  19.312  0.00  0.00    +0.000 N 
ATOM     31  H   UNL     1       2.190  12.301  20.218  0.00  0.00    +0.000 HD
ATOM     32  H   UNL     1       2.798  12.730  18.737  0.00  0.00    +0.000 HD
ENDBRANCH  15  30
TORSDOF 2
ENDMDL
