MODEL 1
REMARK VINA RESULT:      -7.1      0.000      0.000
REMARK  Name = 
REMARK  3 active torsions:
REMARK  status: ('A' for Active; 'I' for Inactive)
REMARK    1  A    between atoms: N_2  and  C_3
REMARK    2  A    between atoms: C_6  and  N_7
REMARK    3  A    between atoms: N_7  and  C_8
REMARK                            x       y       z     vdW  Elec       q    Type
REMARK                         _______ _______ _______ _____ _____    ______ ____
ROOT
ATOM      1  C   UNL     1       6.373   5.357  16.107  0.00  0.00    +0.000 A 
ATOM      2  C   UNL     1       5.940   6.565  16.667  0.00  0.00    +0.000 A 
ATOM      3  C   UNL     1       4.707   6.649  17.328  0.00  0.00    +0.000 A 
ATOM      4  C   UNL     1       3.864   5.535  17.419  0.00  0.00    +0.000 A 
ATOM      5  C   UNL     1       4.298   4.328  16.857  0.00  0.00    +0.000 A 
ATOM      6  C   UNL     1       5.535   4.239  16.206  0.00  0.00    +0.000 A 
ENDROOT
BRANCH   1   8
ATOM      7  O   UNL     1       7.514   5.415  14.232  0.00  0.00    +0.000 OA
ATOM      8  N   UNL     1       7.595   5.330  15.463  0.00  0.00    +0.000 NA
ENDBRANCH   1   8
BRANCH   4   9
ATOM      9  N   UNL     1       2.651   5.625  18.136  0.00  0.00    +0.000 N 
ATOM     10  H   UNL     1       1.878   5.955  17.564  0.00  0.00    +0.000 HD
BRANCH   9  11
ATOM     11  C   UNL     1       2.166   4.741  19.126  0.00  0.00    +0.000 A 
ATOM     12  C   UNL     1       1.296   3.710  18.749  0.00  0.00    +0.000 A 
ATOM     13  C   UNL     1       0.828   2.789  19.690  0.00  0.00    +0.000 A 
ATOM     14  C   UNL     1       1.243   2.876  21.018  0.00  0.00    +0.000 A 
ATOM     15  C   UNL     1       2.123   3.885  21.402  0.00  0.00    +0.000 A 
ATOM     16  C   UNL     1       2.583   4.809  20.460  0.00  0.00    +0.000 A 
ENDBRANCH   9  11
ENDBRANCH   4   9
TORSDOF 3
ENDMDL
MODEL 2
REMARK VINA RESULT:      -7.1      0.214      1.257
REMARK  Name = 
REMARK  3 active torsions:
REMARK  status: ('A' for Active; 'I' for Inactive)
REMARK    1  A    between atoms: N_2  and  C_3
REMARK    2  A    between atoms: C_6  and  N_7
REMARK    3  A    between atoms: N_7  and  C_8
REMARK                            x       y       z     vdW  Elec       q    Type
REMARK                         _______ _______ _______ _____ _____    ______ ____
ROOT
ATOM      1  C   UNL     1       6.459   5.133  15.994  0.00  0.00    +0.000 A 
ATOM      2  C   UNL     1       5.555   4.065  16.044  0.00  0.00    +0.000 A 
ATOM      3  C   UNL     1       4.332   4.190  16.720  0.00  0.00    +0.000 A 
ATOM      4  C   UNL     1       3.998   5.375  17.386  0.00  0.00    +0.000 A 
ATOM      5  C   UNL     1       4.905   6.441  17.336  0.00  0.00    +0.000 A 
ATOM      6  C   UNL     1       6.122   6.322  16.652  0.00  0.00    +0.000 A 
ENDROOT
BRANCH   1   8
ATOM      7  O   UNL     1       7.690   5.518  14.218  0.00  0.00    +0.000 OA
ATOM      8  N   UNL     1       7.650   4.955  15.319  0.00  0.00    +0.000 NA
ENDBRANCH   1   8
BRANCH   4   9
ATOM      9  N   UNL     1       2.740   5.501  18.014  0.00  0.00    +0.000 N 
ATOM     10  H   UNL     1       2.003   5.774  17.368  0.00  0.00    +0.000 HD
BRANCH   9  11
ATOM     11  C   UNL     1       2.200   4.688  19.036  0.00  0.00    +0.000 A 
ATOM     12  C   UNL     1       1.330   3.646  18.688  0.00  0.00    +0.000 A 
ATOM     13  C   UNL     1       0.809   2.794  19.665  0.00  0.00    +0.000 A 
ATOM     14  C   UNL     1       1.169   2.961  21.001  0.00  0.00    +0.000 A 
ATOM     15  C   UNL     1       2.048   3.980  21.357  0.00  0.00    +0.000 A 
ATOM     16  C   UNL     1       2.562   4.836  20.380  0.00  0.00    +0.000 A 
ENDBRANCH   9  11
ENDBRANCH   4   9
TORSDOF 3
ENDMDL
MODEL 3
REMARK VINA RESULT:      -7.0      0.204      1.764
REMARK  Name = 
REMARK  3 active torsions:
REMARK  status: ('A' for Active; 'I' for Inactive)
REMARK    1  A    between atoms: N_2  and  C_3
REMARK    2  A    between atoms: C_6  and  N_7
REMARK    3  A    between atoms: N_7  and  C_8
REMARK                            x       y       z     vdW  Elec       q    Type
REMARK                         _______ _______ _______ _____ _____    ______ ____
ROOT
ATOM      1  C   UNL     1       6.406   5.632  16.029  0.00  0.00    +0.000 A 
ATOM      2  C   UNL     1       5.644   4.458  16.029  0.00  0.00    +0.000 A 
ATOM      3  C   UNL     1       4.402   4.408  16.678  0.00  0.00    +0.000 A 
ATOM      4  C   UNL     1       3.907   5.520  17.368  0.00  0.00    +0.000 A 
ATOM      5  C   UNL     1       4.672   6.694  17.368  0.00  0.00    +0.000 A 
ATOM      6  C   UNL     1       5.908   6.749  16.710  0.00  0.00    +0.000 A 
ENDROOT
BRANCH   1   8
ATOM      7  O   UNL     1       7.539   5.429  14.159  0.00  0.00    +0.000 OA
ATOM      8  N   UNL     1       7.624   5.627  15.377  0.00  0.00    +0.000 NA
ENDBRANCH   1   8
BRANCH   4   9
ATOM      9  N   UNL     1       2.631   5.468  17.969  0.00  0.00    +0.000 N 
ATOM     10  H   UNL     1       1.879   5.659  17.312  0.00  0.00    +0.000 HD
BRANCH   9  11
ATOM     11  C   UNL     1       2.180   4.568  18.960  0.00  0.00    +0.000 A 
ATOM     12  C   UNL     1       2.510   4.811  20.300  0.00  0.00    +0.000 A 
ATOM     13  C   UNL     1       2.047   3.969  21.315  0.00  0.00    +0.000 A 
ATOM     14  C   UNL     1       1.229   2.885  21.002  0.00  0.00    +0.000 A 
ATOM     15  C   UNL     1       0.877   2.643  19.677  0.00  0.00    +0.000 A 
ATOM     16  C   UNL     1       1.348   3.482  18.663  0.00  0.00    +0.000 A 
ENDBRANCH   9  11
ENDBRANCH   4   9
TORSDOF 3
ENDMDL
MODEL 4
REMARK VINA RESULT:      -6.9      1.552      1.760
REMARK  Name = 
REMARK  3 active torsions:
REMARK  status: ('A' for Active; 'I' for Inactive)
REMARK    1  A    between atoms: N_2  and  C_3
REMARK    2  A    between atoms: C_6  and  N_7
REMARK    3  A    between atoms: N_7  and  C_8
REMARK                            x       y       z     vdW  Elec       q    Type
REMARK                         _______ _______ _______ _____ _____    ______ ____
ROOT
ATOM      1  C   UNL     1       6.539   4.850  15.352  0.00  0.00    +0.000 A 
ATOM      2  C   UNL     1       7.399   4.800  16.456  0.00  0.00    +0.000 A 
ATOM      3  C   UNL     1       6.904   4.528  17.740  0.00  0.00    +0.000 A 
ATOM      4  C   UNL     1       5.536   4.329  17.955  0.00  0.00    +0.000 A 
ATOM      5  C   UNL     1       4.677   4.381  16.849  0.00  0.00    +0.000 A 
ATOM      6  C   UNL     1       5.171   4.642  15.564  0.00  0.00    +0.000 A 
ENDROOT
BRANCH   1   8
ATOM      7  O   UNL     1       8.186   5.672  14.156  0.00  0.00    +0.000 OA
ATOM      8  N   UNL     1       7.078   5.126  14.111  0.00  0.00    +0.000 NA
ENDBRANCH   1   8
BRANCH   4   9
ATOM      9  N   UNL     1       5.064   4.002  19.244  0.00  0.00    +0.000 N 
ATOM     10  H   UNL     1       5.627   4.412  19.985  0.00  0.00    +0.000 HD
BRANCH   9  11
ATOM     11  C   UNL     1       3.721   3.896  19.671  0.00  0.00    +0.000 A 
ATOM     12  C   UNL     1       3.128   2.628  19.737  0.00  0.00    +0.000 A 
ATOM     13  C   UNL     1       1.816   2.476  20.195  0.00  0.00    +0.000 A 
ATOM     14  C   UNL     1       1.090   3.589  20.614  0.00  0.00    +0.000 A 
ATOM     15  C   UNL     1       1.675   4.852  20.572  0.00  0.00    +0.000 A 
ATOM     16  C   UNL     1       2.984   5.003  20.106  0.00  0.00    +0.000 A 
ENDBRANCH   9  11
ENDBRANCH   4   9
TORSDOF 3
ENDMDL
MODEL 5
REMARK VINA RESULT:      -6.9      1.562      1.914
REMARK  Name = 
REMARK  3 active torsions:
REMARK  status: ('A' for Active; 'I' for Inactive)
REMARK    1  A    between atoms: N_2  and  C_3
REMARK    2  A    between atoms: C_6  and  N_7
REMARK    3  A    between atoms: N_7  and  C_8
REMARK                            x       y       z     vdW  Elec       q    Type
REMARK                         _______ _______ _______ _____ _____    ______ ____
ROOT
ATOM      1  C   UNL     1       6.582   4.827  15.424  0.00  0.00    +0.000 A 
ATOM      2  C   UNL     1       5.234   4.505  15.620  0.00  0.00    +0.000 A 
ATOM      3  C   UNL     1       4.739   4.236  16.904  0.00  0.00    +0.000 A 
ATOM      4  C   UNL     1       5.587   4.252  18.018  0.00  0.00    +0.000 A 
ATOM      5  C   UNL     1       6.935   4.574  17.819  0.00  0.00    +0.000 A 
ATOM      6  C   UNL     1       7.429   4.855  16.538  0.00  0.00    +0.000 A 
ENDROOT
BRANCH   1   8
ATOM      7  O   UNL     1       8.113   5.651  14.084  0.00  0.00    +0.000 OA
ATOM      8  N   UNL     1       7.018   5.080  14.138  0.00  0.00    +0.000 NA
ENDBRANCH   1   8
BRANCH   4   9
ATOM      9  N   UNL     1       5.060   4.033  19.309  0.00  0.00    +0.000 N 
ATOM     10  H   UNL     1       5.571   4.532  20.033  0.00  0.00    +0.000 HD
BRANCH   9  11
ATOM     11  C   UNL     1       3.701   3.916  19.679  0.00  0.00    +0.000 A 
ATOM     12  C   UNL     1       3.112   2.646  19.711  0.00  0.00    +0.000 A 
ATOM     13  C   UNL     1       1.783   2.484  20.113  0.00  0.00    +0.000 A 
ATOM     14  C   UNL     1       1.035   3.591  20.510  0.00  0.00    +0.000 A 
ATOM     15  C   UNL     1       1.615   4.856  20.502  0.00  0.00    +0.000 A 
ATOM     16  C   UNL     1       2.941   5.016  20.092  0.00  0.00    +0.000 A 
ENDBRANCH   9  11
ENDBRANCH   4   9
TORSDOF 3
ENDMDL
MODEL 6
REMARK VINA RESULT:      -6.9      1.270      1.874
REMARK  Name = 
REMARK  3 active torsions:
REMARK  status: ('A' for Active; 'I' for Inactive)
REMARK    1  A    between atoms: N_2  and  C_3
REMARK    2  A    between atoms: C_6  and  N_7
REMARK    3  A    between atoms: N_7  and  C_8
REMARK                            x       y       z     vdW  Elec       q    Type
REMARK                         _______ _______ _______ _____ _____    ______ ____
ROOT
ATOM      1  C   UNL     1       6.838   5.462  16.011  0.00  0.00    +0.000 A 
ATOM      2  C   UNL     1       7.216   4.698  17.121  0.00  0.00    +0.000 A 
ATOM      3  C   UNL     1       6.392   4.620  18.253  0.00  0.00    +0.000 A 
ATOM      4  C   UNL     1       5.187   5.329  18.314  0.00  0.00    +0.000 A 
ATOM      5  C   UNL     1       4.811   6.094  17.202  0.00  0.00    +0.000 A 
ATOM      6  C   UNL     1       5.628   6.164  16.066  0.00  0.00    +0.000 A 
ENDROOT
BRANCH   1   8
ATOM      7  O   UNL     1       7.169   5.130  13.866  0.00  0.00    +0.000 OA
ATOM      8  N   UNL     1       7.688   5.508  14.923  0.00  0.00    +0.000 NA
ENDBRANCH   1   8
BRANCH   4   9
ATOM      9  N   UNL     1       4.345   5.195  19.439  0.00  0.00    +0.000 N 
ATOM     10  H   UNL     1       4.214   6.071  19.940  0.00  0.00    +0.000 HD
BRANCH   9  11
ATOM     11  C   UNL     1       3.183   4.400  19.559  0.00  0.00    +0.000 A 
ATOM     12  C   UNL     1       2.177   4.796  20.451  0.00  0.00    +0.000 A 
ATOM     13  C   UNL     1       0.995   4.061  20.567  0.00  0.00    +0.000 A 
ATOM     14  C   UNL     1       0.795   2.932  19.774  0.00  0.00    +0.000 A 
ATOM     15  C   UNL     1       1.778   2.538  18.871  0.00  0.00    +0.000 A 
ATOM     16  C   UNL     1       2.963   3.271  18.762  0.00  0.00    +0.000 A 
ENDBRANCH   9  11
ENDBRANCH   4   9
TORSDOF 3
ENDMDL
MODEL 7
REMARK VINA RESULT:      -6.9      0.590      1.372
REMARK  Name = 
REMARK  3 active torsions:
REMARK  status: ('A' for Active; 'I' for Inactive)
REMARK    1  A    between atoms: N_2  and  C_3
REMARK    2  A    between atoms: C_6  and  N_7
REMARK    3  A    between atoms: N_7  and  C_8
REMARK                            x       y       z     vdW  Elec       q    Type
REMARK                         _______ _______ _______ _____ _____    ______ ____
ROOT
ATOM      1  C   UNL     1       5.730   5.261  15.431  0.00  0.00    +0.000 A 
ATOM      2  C   UNL     1       5.372   6.528  15.908  0.00  0.00    +0.000 A 
ATOM      3  C   UNL     1       4.421   6.669  16.928  0.00  0.00    +0.000 A 
ATOM      4  C   UNL     1       3.783   5.549  17.475  0.00  0.00    +0.000 A 
ATOM      5  C   UNL     1       4.141   4.283  16.995  0.00  0.00    +0.000 A 
ATOM      6  C   UNL     1       5.100   4.140  15.984  0.00  0.00    +0.000 A 
ENDROOT
BRANCH   1   8
ATOM      7  O   UNL     1       7.815   5.483  14.779  0.00  0.00    +0.000 OA
ATOM      8  N   UNL     1       6.670   5.179  14.423  0.00  0.00    +0.000 NA
ENDBRANCH   1   8
BRANCH   4   9
ATOM      9  N   UNL     1       2.868   5.707  18.538  0.00  0.00    +0.000 N 
ATOM     10  H   UNL     1       2.162   6.415  18.349  0.00  0.00    +0.000 HD
BRANCH   9  11
ATOM     11  C   UNL     1       2.322   4.699  19.364  0.00  0.00    +0.000 A 
ATOM     12  C   UNL     1       2.717   4.634  20.707  0.00  0.00    +0.000 A 
ATOM     13  C   UNL     1       2.168   3.679  21.568  0.00  0.00    +0.000 A 
ATOM     14  C   UNL     1       1.200   2.792  21.099  0.00  0.00    +0.000 A 
ATOM     15  C   UNL     1       0.784   2.860  19.772  0.00  0.00    +0.000 A 
ATOM     16  C   UNL     1       1.341   3.810  18.912  0.00  0.00    +0.000 A 
ENDBRANCH   9  11
ENDBRANCH   4   9
TORSDOF 3
ENDMDL
MODEL 8
REMARK VINA RESULT:      -6.9      1.039      1.512
REMARK  Name = 
REMARK  3 active torsions:
REMARK  status: ('A' for Active; 'I' for Inactive)
REMARK    1  A    between atoms: N_2  and  C_3
REMARK    2  A    between atoms: C_6  and  N_7
REMARK    3  A    between atoms: N_7  and  C_8
REMARK                            x       y       z     vdW  Elec       q    Type
REMARK                         _______ _______ _______ _____ _____    ______ ____
ROOT
ATOM      1  C   UNL     1       6.693   5.571  16.145  0.00  0.00    +0.000 A 
ATOM      2  C   UNL     1       6.885   4.693  17.218  0.00  0.00    +0.000 A 
ATOM      3  C   UNL     1       6.003   4.688  18.309  0.00  0.00    +0.000 A 
ATOM      4  C   UNL     1       4.928   5.582  18.366  0.00  0.00    +0.000 A 
ATOM      5  C   UNL     1       4.739   6.460  17.292  0.00  0.00    +0.000 A 
ATOM      6  C   UNL     1       5.612   6.458  16.196  0.00  0.00    +0.000 A 
ENDROOT
BRANCH   1   8
ATOM      7  O   UNL     1       7.085   5.236  14.011  0.00  0.00    +0.000 OA
ATOM      8  N   UNL     1       7.593   5.536  15.098  0.00  0.00    +0.000 NA
ENDBRANCH   1   8
BRANCH   4   9
ATOM      9  N   UNL     1       4.020   5.525  19.446  0.00  0.00    +0.000 N 
ATOM     10  H   UNL     1       3.807   6.442  19.830  0.00  0.00    +0.000 HD
BRANCH   9  11
ATOM     11  C   UNL     1       2.897   4.678  19.586  0.00  0.00    +0.000 A 
ATOM     12  C   UNL     1       2.359   4.069  18.446  0.00  0.00    +0.000 A 
ATOM     13  C   UNL     1       1.276   3.191  18.548  0.00  0.00    +0.000 A 
ATOM     14  C   UNL     1       0.734   2.895  19.797  0.00  0.00    +0.000 A 
ATOM     15  C   UNL     1       1.272   3.479  20.941  0.00  0.00    +0.000 A 
ATOM     16  C   UNL     1       2.350   4.363  20.835  0.00  0.00    +0.000 A 
ENDBRANCH   9  11
ENDBRANCH   4   9
TORSDOF 3
ENDMDL
MODEL 9
REMARK VINA RESULT:      -6.8      1.465      1.925
REMARK  Name = 
REMARK  3 active torsions:
REMARK  status: ('A' for Active; 'I' for Inactive)
REMARK    1  A    between atoms: N_2  and  C_3
REMARK    2  A    between atoms: C_6  and  N_7
REMARK    3  A    between atoms: N_7  and  C_8
REMARK                            x       y       z     vdW  Elec       q    Type
REMARK                         _______ _______ _______ _____ _____    ______ ____
ROOT
ATOM      1  C   UNL     1       6.453   4.813  15.403  0.00  0.00    +0.000 A 
ATOM      2  C   UNL     1       7.295   4.789  16.521  0.00  0.00    +0.000 A 
ATOM      3  C   UNL     1       6.775   4.584  17.807  0.00  0.00    +0.000 A 
ATOM      4  C   UNL     1       5.399   4.428  18.009  0.00  0.00    +0.000 A 
ATOM      5  C   UNL     1       4.558   4.453  16.889  0.00  0.00    +0.000 A 
ATOM      6  C   UNL     1       5.077   4.646  15.602  0.00  0.00    +0.000 A 
ENDROOT
BRANCH   1   8
ATOM      7  O   UNL     1       8.084   5.645  14.192  0.00  0.00    +0.000 OA
ATOM      8  N   UNL     1       7.016   5.022  14.160  0.00  0.00    +0.000 NA
ENDBRANCH   1   8
BRANCH   4   9
ATOM      9  N   UNL     1       4.901   4.168  19.304  0.00  0.00    +0.000 N 
ATOM     10  H   UNL     1       5.318   4.765  20.014  0.00  0.00    +0.000 HD
BRANCH   9  11
ATOM     11  C   UNL     1       3.574   3.848  19.670  0.00  0.00    +0.000 A 
ATOM     12  C   UNL     1       2.755   4.853  20.203  0.00  0.00    +0.000 A 
ATOM     13  C   UNL     1       1.424   4.587  20.538  0.00  0.00    +0.000 A 
ATOM     14  C   UNL     1       0.891   3.318  20.322  0.00  0.00    +0.000 A 
ATOM     15  C   UNL     1       1.688   2.316  19.776  0.00  0.00    +0.000 A 
ATOM     16  C   UNL     1       3.021   2.582  19.449  0.00  0.00    +0.000 A 
ENDBRANCH   9  11
ENDBRANCH   4   9
TORSDOF 3
ENDMDL
