MODEL 1
REMARK VINA RESULT:      -7.0      0.000      0.000
REMARK  Name = 
REMARK  12 active torsions:
REMARK  status: ('A' for Active; 'I' for Inactive)
REMARK    1  A    between atoms: O_1  and  N_2
REMARK    2  A    between atoms: C_3  and  C_4
REMARK    3  A    between atoms: N_9  and  C_10
REMARK    4  A    between atoms: C_10  and  C_11
REMARK    5  A    between atoms: C_11  and  C_12
REMARK    6  A    between atoms: C_12  and  C_13
REMARK    7  A    between atoms: C_13  and  C_14
REMARK    8  A    between atoms: C_14  and  C_15
REMARK    9  A    between atoms: C_15  and  C_16
REMARK   10  A    between atoms: C_16  and  N_17
REMARK   11  A    between atoms: C_22  and  C_23
REMARK   12  A    between atoms: N_24  and  O_25
REMARK                            x       y       z     vdW  Elec       q    Type
REMARK                         _______ _______ _______ _____ _____    ______ ____
ROOT
ATOM      1  C   UNL     1       2.225   3.099  20.173  0.00  0.00    +0.000 C 
ENDROOT
BRANCH   1   2
ATOM      2  C   UNL     1       2.094   4.305  21.107  0.00  0.00    +0.000 C 
BRANCH   2   3
ATOM      3  C   UNL     1       1.820   5.519  20.217  0.00  0.00    +0.000 C 
BRANCH   3   4
ATOM      4  C   UNL     1       1.547   6.839  20.923  0.00  0.00    +0.000 C 
BRANCH   4  10
ATOM      5  C   UNL     1       0.985   9.206  20.392  0.00  0.00    +0.000 A 
ATOM      6  C   UNL     1       0.904  10.287  19.508  0.00  0.00    +0.000 A 
ATOM      7  C   UNL     1       1.501  10.206  18.258  0.00  0.00    +0.000 A 
ATOM      8  C   UNL     1       2.160   9.045  17.912  0.00  0.00    +0.000 A 
ATOM      9  C   UNL     1       2.202   7.986  18.802  0.00  0.00    +0.000 A 
ATOM     10  N   UNL     1       1.554   8.025  20.003  0.00  0.00    +0.000 N 
BRANCH   5  12
ATOM     11  N   UNL     1       0.930   9.449  22.897  0.00  0.00    +0.000 NA
ATOM     12  C   UNL     1       0.360   9.313  21.735  0.00  0.00    +0.000 C 
BRANCH  11  13
ATOM     13  O   UNL     1       2.322   9.480  22.788  0.00  0.00    +0.000 OA
ATOM     14  H   UNL     1       2.517   9.016  21.952  0.00  0.00    +0.000 HD
ENDBRANCH  11  13
ENDBRANCH   5  12
ENDBRANCH   4  10
ENDBRANCH   3   4
ENDBRANCH   2   3
ENDBRANCH   1   2
BRANCH   1  15
ATOM     15  C   UNL     1       1.981   3.400  18.697  0.00  0.00    +0.000 C 
BRANCH  15  16
ATOM     16  C   UNL     1       3.138   2.882  17.832  0.00  0.00    +0.000 C 
BRANCH  16  17
ATOM     17  C   UNL     1       4.515   3.286  18.372  0.00  0.00    +0.000 C 
BRANCH  17  18
ATOM     18  N   UNL     1       5.230   4.082  17.347  0.00  0.00    +0.000 N 
ATOM     19  C   UNL     1       4.859   3.881  16.054  0.00  0.00    +0.000 A 
ATOM     20  C   UNL     1       5.474   4.557  15.010  0.00  0.00    +0.000 A 
ATOM     21  C   UNL     1       6.475   5.474  15.289  0.00  0.00    +0.000 A 
ATOM     22  C   UNL     1       6.849   5.683  16.609  0.00  0.00    +0.000 A 
ATOM     23  C   UNL     1       6.209   4.987  17.641  0.00  0.00    +0.000 A 
BRANCH  23  24
ATOM     24  C   UNL     1       6.678   5.260  19.015  0.00  0.00    +0.000 C 
ATOM     25  N   UNL     1       7.899   5.092  19.424  0.00  0.00    +0.000 NA
BRANCH  25  26
ATOM     26  O   UNL     1       7.984   5.454  20.771  0.00  0.00    +0.000 OA
ATOM     27  H   UNL     1       7.335   4.870  21.212  0.00  0.00    +0.000 HD
ENDBRANCH  25  26
ENDBRANCH  23  24
ENDBRANCH  17  18
ENDBRANCH  16  17
ENDBRANCH  15  16
ENDBRANCH   1  15
TORSDOF 12
ENDMDL
MODEL 2
REMARK VINA RESULT:      -6.9      1.934      2.591
REMARK  Name = 
REMARK  12 active torsions:
REMARK  status: ('A' for Active; 'I' for Inactive)
REMARK    1  A    between atoms: O_1  and  N_2
REMARK    2  A    between atoms: C_3  and  C_4
REMARK    3  A    between atoms: N_9  and  C_10
REMARK    4  A    between atoms: C_10  and  C_11
REMARK    5  A    between atoms: C_11  and  C_12
REMARK    6  A    between atoms: C_12  and  C_13
REMARK    7  A    between atoms: C_13  and  C_14
REMARK    8  A    between atoms: C_14  and  C_15
REMARK    9  A    between atoms: C_15  and  C_16
REMARK   10  A    between atoms: C_16  and  N_17
REMARK   11  A    between atoms: C_22  and  C_23
REMARK   12  A    between atoms: N_24  and  O_25
REMARK                            x       y       z     vdW  Elec       q    Type
REMARK                         _______ _______ _______ _____ _____    ______ ____
ROOT
ATOM      1  C   UNL     1       1.861   2.864  19.185  0.00  0.00    +0.000 C 
ENDROOT
BRANCH   1   2
ATOM      2  C   UNL     1       1.771   3.453  20.595  0.00  0.00    +0.000 C 
BRANCH   2   3
ATOM      3  C   UNL     1       1.147   4.843  20.448  0.00  0.00    +0.000 C 
BRANCH   3   4
ATOM      4  C   UNL     1       1.999   6.026  20.886  0.00  0.00    +0.000 C 
BRANCH   4  10
ATOM      5  C   UNL     1       1.372   8.301  20.094  0.00  0.00    +0.000 A 
ATOM      6  C   UNL     1       1.339   9.302  19.118  0.00  0.00    +0.000 A 
ATOM      7  C   UNL     1       2.089   9.166  17.959  0.00  0.00    +0.000 A 
ATOM      8  C   UNL     1       2.852   8.029  17.794  0.00  0.00    +0.000 A 
ATOM      9  C   UNL     1       2.844   7.047  18.769  0.00  0.00    +0.000 A 
ATOM     10  N   UNL     1       2.051   7.135  19.877  0.00  0.00    +0.000 N 
BRANCH   5  12
ATOM     11  N   UNL     1       0.947   8.965  22.484  0.00  0.00    +0.000 NA
ATOM     12  C   UNL     1       0.579   8.468  21.339  0.00  0.00    +0.000 C 
BRANCH  11  13
ATOM     13  O   UNL     1       2.284   9.364  22.468  0.00  0.00    +0.000 OA
ATOM     14  H   UNL     1       2.693   8.895  23.220  0.00  0.00    +0.000 HD
ENDBRANCH  11  13
ENDBRANCH   5  12
ENDBRANCH   4  10
ENDBRANCH   3   4
ENDBRANCH   2   3
ENDBRANCH   1   2
BRANCH   1  15
ATOM     15  C   UNL     1       1.604   3.857  18.056  0.00  0.00    +0.000 C 
BRANCH  15  16
ATOM     16  C   UNL     1       2.640   3.696  16.935  0.00  0.00    +0.000 C 
BRANCH  16  17
ATOM     17  C   UNL     1       3.937   3.031  17.412  0.00  0.00    +0.000 C 
BRANCH  17  18
ATOM     18  N   UNL     1       4.957   4.075  17.671  0.00  0.00    +0.000 N 
ATOM     19  C   UNL     1       5.197   4.378  18.976  0.00  0.00    +0.000 A 
ATOM     20  C   UNL     1       6.116   5.353  19.336  0.00  0.00    +0.000 A 
ATOM     21  C   UNL     1       6.822   6.021  18.348  0.00  0.00    +0.000 A 
ATOM     22  C   UNL     1       6.581   5.707  17.018  0.00  0.00    +0.000 A 
ATOM     23  C   UNL     1       5.648   4.718  16.686  0.00  0.00    +0.000 A 
BRANCH  23  24
ATOM     24  C   UNL     1       5.443   4.455  15.246  0.00  0.00    +0.000 C 
ATOM     25  N   UNL     1       6.224   3.720  14.513  0.00  0.00    +0.000 NA
BRANCH  25  26
ATOM     26  O   UNL     1       5.726   3.686  13.208  0.00  0.00    +0.000 OA
ATOM     27  H   UNL     1       6.529   3.700  12.650  0.00  0.00    +0.000 HD
ENDBRANCH  25  26
ENDBRANCH  23  24
ENDBRANCH  17  18
ENDBRANCH  16  17
ENDBRANCH  15  16
ENDBRANCH   1  15
TORSDOF 12
ENDMDL
MODEL 3
REMARK VINA RESULT:      -6.8      6.540      9.212
REMARK  Name = 
REMARK  12 active torsions:
REMARK  status: ('A' for Active; 'I' for Inactive)
REMARK    1  A    between atoms: O_1  and  N_2
REMARK    2  A    between atoms: C_3  and  C_4
REMARK    3  A    between atoms: N_9  and  C_10
REMARK    4  A    between atoms: C_10  and  C_11
REMARK    5  A    between atoms: C_11  and  C_12
REMARK    6  A    between atoms: C_12  and  C_13
REMARK    7  A    between atoms: C_13  and  C_14
REMARK    8  A    between atoms: C_14  and  C_15
REMARK    9  A    between atoms: C_15  and  C_16
REMARK   10  A    between atoms: C_16  and  N_17
REMARK   11  A    between atoms: C_22  and  C_23
REMARK   12  A    between atoms: N_24  and  O_25
REMARK                            x       y       z     vdW  Elec       q    Type
REMARK                         _______ _______ _______ _____ _____    ______ ____
ROOT
ATOM      1  C   UNL     1       8.636   8.243  18.457  0.00  0.00    +0.000 C 
ENDROOT
BRANCH   1   2
ATOM      2  C   UNL     1       7.570   7.310  17.876  0.00  0.00    +0.000 C 
BRANCH   2   3
ATOM      3  C   UNL     1       7.632   6.016  18.692  0.00  0.00    +0.000 C 
BRANCH   3   4
ATOM      4  C   UNL     1       7.339   4.722  17.946  0.00  0.00    +0.000 C 
BRANCH   4  10
ATOM      5  C   UNL     1       5.230   4.168  16.745  0.00  0.00    +0.000 A 
ATOM      6  C   UNL     1       3.854   3.917  16.719  0.00  0.00    +0.000 A 
ATOM      7  C   UNL     1       3.157   3.747  17.906  0.00  0.00    +0.000 A 
ATOM      8  C   UNL     1       3.847   3.838  19.098  0.00  0.00    +0.000 A 
ATOM      9  C   UNL     1       5.204   4.110  19.089  0.00  0.00    +0.000 A 
ATOM     10  N   UNL     1       5.884   4.355  17.931  0.00  0.00    +0.000 N 
BRANCH   5  12
ATOM     11  N   UNL     1       6.107   5.391  14.728  0.00  0.00    +0.000 NA
ATOM     12  C   UNL     1       5.968   4.328  15.466  0.00  0.00    +0.000 C 
BRANCH  11  13
ATOM     13  O   UNL     1       5.434   6.487  15.269  0.00  0.00    +0.000 OA
ATOM     14  H   UNL     1       6.132   7.028  15.685  0.00  0.00    +0.000 HD
ENDBRANCH  11  13
ENDBRANCH   5  12
ENDBRANCH   4  10
ENDBRANCH   3   4
ENDBRANCH   2   3
ENDBRANCH   1   2
BRANCH   1  15
ATOM     15  C   UNL     1       8.413   9.726  18.180  0.00  0.00    +0.000 C 
BRANCH  15  16
ATOM     16  C   UNL     1       9.301  10.594  19.082  0.00  0.00    +0.000 C 
BRANCH  16  17
ATOM     17  C   UNL     1       9.833  11.844  18.373  0.00  0.00    +0.000 C 
BRANCH  17  18
ATOM     18  N   UNL     1       9.957  12.950  19.352  0.00  0.00    +0.000 N 
ATOM     19  C   UNL     1       9.779  12.624  20.661  0.00  0.00    +0.000 A 
ATOM     20  C   UNL     1       9.851  13.582  21.662  0.00  0.00    +0.000 A 
ATOM     21  C   UNL     1      10.133  14.897  21.327  0.00  0.00    +0.000 A 
ATOM     22  C   UNL     1      10.320  15.227  19.992  0.00  0.00    +0.000 A 
ATOM     23  C   UNL     1      10.242  14.238  19.005  0.00  0.00    +0.000 A 
BRANCH  23  24
ATOM     24  C   UNL     1      10.442  14.678  17.608  0.00  0.00    +0.000 C 
ATOM     25  N   UNL     1      10.624  15.911  17.243  0.00  0.00    +0.000 NA
BRANCH  25  26
ATOM     26  O   UNL     1      10.785  15.958  15.856  0.00  0.00    +0.000 OA
ATOM     27  H   UNL     1      10.146  16.641  15.569  0.00  0.00    +0.000 HD
ENDBRANCH  25  26
ENDBRANCH  23  24
ENDBRANCH  17  18
ENDBRANCH  16  17
ENDBRANCH  15  16
ENDBRANCH   1  15
TORSDOF 12
ENDMDL
MODEL 4
REMARK VINA RESULT:      -6.8      1.729      7.046
REMARK  Name = 
REMARK  12 active torsions:
REMARK  status: ('A' for Active; 'I' for Inactive)
REMARK    1  A    between atoms: O_1  and  N_2
REMARK    2  A    between atoms: C_3  and  C_4
REMARK    3  A    between atoms: N_9  and  C_10
REMARK    4  A    between atoms: C_10  and  C_11
REMARK    5  A    between atoms: C_11  and  C_12
REMARK    6  A    between atoms: C_12  and  C_13
REMARK    7  A    between atoms: C_13  and  C_14
REMARK    8  A    between atoms: C_14  and  C_15
REMARK    9  A    between atoms: C_15  and  C_16
REMARK   10  A    between atoms: C_16  and  N_17
REMARK   11  A    between atoms: C_22  and  C_23
REMARK   12  A    between atoms: N_24  and  O_25
REMARK                            x       y       z     vdW  Elec       q    Type
REMARK                         _______ _______ _______ _____ _____    ______ ____
ROOT
ATOM      1  C   UNL     1       1.520   3.755  18.651  0.00  0.00    +0.000 C 
ENDROOT
BRANCH   1   2
ATOM      2  C   UNL     1       2.516   4.140  17.553  0.00  0.00    +0.000 C 
BRANCH   2   3
ATOM      3  C   UNL     1       3.810   3.378  17.853  0.00  0.00    +0.000 C 
BRANCH   3   4
ATOM      4  C   UNL     1       5.006   3.684  16.964  0.00  0.00    +0.000 C 
BRANCH   4  10
ATOM      5  C   UNL     1       6.288   5.811  16.782  0.00  0.00    +0.000 A 
ATOM      6  C   UNL     1       7.216   6.738  17.267  0.00  0.00    +0.000 A 
ATOM      7  C   UNL     1       7.697   6.624  18.563  0.00  0.00    +0.000 A 
ATOM      8  C   UNL     1       7.247   5.582  19.347  0.00  0.00    +0.000 A 
ATOM      9  C   UNL     1       6.346   4.669  18.828  0.00  0.00    +0.000 A 
ATOM     10  N   UNL     1       5.925   4.726  17.531  0.00  0.00    +0.000 N 
BRANCH   5  12
ATOM     11  N   UNL     1       6.332   5.638  14.271  0.00  0.00    +0.000 NA
ATOM     12  C   UNL     1       5.766   5.956  15.399  0.00  0.00    +0.000 C 
BRANCH  11  13
ATOM     13  O   UNL     1       7.607   5.104  14.466  0.00  0.00    +0.000 OA
ATOM     14  H   UNL     1       7.938   4.913  13.568  0.00  0.00    +0.000 HD
ENDBRANCH  11  13
ENDBRANCH   5  12
ENDBRANCH   4  10
ENDBRANCH   3   4
ENDBRANCH   2   3
ENDBRANCH   1   2
BRANCH   1  15
ATOM     15  C   UNL     1       1.681   4.518  19.961  0.00  0.00    +0.000 C 
BRANCH  15  16
ATOM     16  C   UNL     1       2.231   5.929  19.712  0.00  0.00    +0.000 C 
BRANCH  16  17
ATOM     17  C   UNL     1       1.670   6.971  20.687  0.00  0.00    +0.000 C 
BRANCH  17  18
ATOM     18  N   UNL     1       1.517   8.268  19.986  0.00  0.00    +0.000 N 
ATOM     19  C   UNL     1       2.058   8.352  18.740  0.00  0.00    +0.000 A 
ATOM     20  C   UNL     1       1.993   9.524  18.000  0.00  0.00    +0.000 A 
ATOM     21  C   UNL     1       1.344  10.628  18.529  0.00  0.00    +0.000 A 
ATOM     22  C   UNL     1       0.787  10.539  19.797  0.00  0.00    +0.000 A 
ATOM     23  C   UNL     1       0.868   9.343  20.519  0.00  0.00    +0.000 A 
BRANCH  23  24
ATOM     24  C   UNL     1       0.259   9.338  21.866  0.00  0.00    +0.000 C 
ATOM     25  N   UNL     1       0.873   9.696  22.953  0.00  0.00    +0.000 NA
BRANCH  25  26
ATOM     26  O   UNL     1      -0.003   9.574  24.034  0.00  0.00    +0.000 OA
ATOM     27  H   UNL     1      -0.871   9.830  23.662  0.00  0.00    +0.000 HD
ENDBRANCH  25  26
ENDBRANCH  23  24
ENDBRANCH  17  18
ENDBRANCH  16  17
ENDBRANCH  15  16
ENDBRANCH   1  15
TORSDOF 12
ENDMDL
MODEL 5
REMARK VINA RESULT:      -6.8      1.772      6.706
REMARK  Name = 
REMARK  12 active torsions:
REMARK  status: ('A' for Active; 'I' for Inactive)
REMARK    1  A    between atoms: O_1  and  N_2
REMARK    2  A    between atoms: C_3  and  C_4
REMARK    3  A    between atoms: N_9  and  C_10
REMARK    4  A    between atoms: C_10  and  C_11
REMARK    5  A    between atoms: C_11  and  C_12
REMARK    6  A    between atoms: C_12  and  C_13
REMARK    7  A    between atoms: C_13  and  C_14
REMARK    8  A    between atoms: C_14  and  C_15
REMARK    9  A    between atoms: C_15  and  C_16
REMARK   10  A    between atoms: C_16  and  N_17
REMARK   11  A    between atoms: C_22  and  C_23
REMARK   12  A    between atoms: N_24  and  O_25
REMARK                            x       y       z     vdW  Elec       q    Type
REMARK                         _______ _______ _______ _____ _____    ______ ____
ROOT
ATOM      1  C   UNL     1       1.168   2.889  19.459  0.00  0.00    +0.000 C 
ENDROOT
BRANCH   1   2
ATOM      2  C   UNL     1       1.737   3.574  18.213  0.00  0.00    +0.000 C 
BRANCH   2   3
ATOM      3  C   UNL     1       3.209   3.164  18.125  0.00  0.00    +0.000 C 
BRANCH   3   4
ATOM      4  C   UNL     1       4.014   3.746  16.972  0.00  0.00    +0.000 C 
BRANCH   4  10
ATOM      5  C   UNL     1       5.860   5.352  16.509  0.00  0.00    +0.000 A 
ATOM      6  C   UNL     1       6.996   6.070  16.895  0.00  0.00    +0.000 A 
ATOM      7  C   UNL     1       7.375   6.105  18.229  0.00  0.00    +0.000 A 
ATOM      8  C   UNL     1       6.615   5.416  19.151  0.00  0.00    +0.000 A 
ATOM      9  C   UNL     1       5.509   4.697  18.733  0.00  0.00    +0.000 A 
ATOM     10  N   UNL     1       5.171   4.592  17.414  0.00  0.00    +0.000 N 
BRANCH   5  12
ATOM     11  N   UNL     1       5.687   4.437  14.170  0.00  0.00    +0.000 NA
ATOM     12  C   UNL     1       5.454   5.338  15.081  0.00  0.00    +0.000 C 
BRANCH  11  13
ATOM     13  O   UNL     1       6.436   3.374  14.677  0.00  0.00    +0.000 OA
ATOM     14  H   UNL     1       6.341   3.441  15.646  0.00  0.00    +0.000 HD
ENDBRANCH  11  13
ENDBRANCH   5  12
ENDBRANCH   4  10
ENDBRANCH   3   4
ENDBRANCH   2   3
ENDBRANCH   1   2
BRANCH   1  15
ATOM     15  C   UNL     1       1.285   3.697  20.747  0.00  0.00    +0.000 C 
BRANCH  15  16
ATOM     16  C   UNL     1       2.182   4.926  20.546  0.00  0.00    +0.000 C 
BRANCH  16  17
ATOM     17  C   UNL     1       1.544   6.222  21.058  0.00  0.00    +0.000 C 
BRANCH  17  18
ATOM     18  N   UNL     1       1.719   7.290  20.046  0.00  0.00    +0.000 N 
ATOM     19  C   UNL     1       2.294   6.922  18.869  0.00  0.00    +0.000 A 
ATOM     20  C   UNL     1       2.526   7.843  17.857  0.00  0.00    +0.000 A 
ATOM     21  C   UNL     1       2.145   9.163  18.038  0.00  0.00    +0.000 A 
ATOM     22  C   UNL     1       1.553   9.536  19.236  0.00  0.00    +0.000 A 
ATOM     23  C   UNL     1       1.331   8.584  20.238  0.00  0.00    +0.000 A 
BRANCH  23  24
ATOM     24  C   UNL     1       0.708   9.069  21.487  0.00  0.00    +0.000 C 
ATOM     25  N   UNL     1       0.898  10.249  21.996  0.00  0.00    +0.000 NA
BRANCH  25  26
ATOM     26  O   UNL     1       0.149  10.366  23.170  0.00  0.00    +0.000 OA
ATOM     27  H   UNL     1      -0.584   9.731  23.045  0.00  0.00    +0.000 HD
ENDBRANCH  25  26
ENDBRANCH  23  24
ENDBRANCH  17  18
ENDBRANCH  16  17
ENDBRANCH  15  16
ENDBRANCH   1  15
TORSDOF 12
ENDMDL
MODEL 6
REMARK VINA RESULT:      -6.7      5.018      6.964
REMARK  Name = 
REMARK  12 active torsions:
REMARK  status: ('A' for Active; 'I' for Inactive)
REMARK    1  A    between atoms: O_1  and  N_2
REMARK    2  A    between atoms: C_3  and  C_4
REMARK    3  A    between atoms: N_9  and  C_10
REMARK    4  A    between atoms: C_10  and  C_11
REMARK    5  A    between atoms: C_11  and  C_12
REMARK    6  A    between atoms: C_12  and  C_13
REMARK    7  A    between atoms: C_13  and  C_14
REMARK    8  A    between atoms: C_14  and  C_15
REMARK    9  A    between atoms: C_15  and  C_16
REMARK   10  A    between atoms: C_16  and  N_17
REMARK   11  A    between atoms: C_22  and  C_23
REMARK   12  A    between atoms: N_24  and  O_25
REMARK                            x       y       z     vdW  Elec       q    Type
REMARK                         _______ _______ _______ _____ _____    ______ ____
ROOT
ATOM      1  C   UNL     1       7.542   6.417  18.236  0.00  0.00    +0.000 C 
ENDROOT
BRANCH   1   2
ATOM      2  C   UNL     1       7.594   7.700  17.401  0.00  0.00    +0.000 C 
BRANCH   2   3
ATOM      3  C   UNL     1       8.396   8.717  18.215  0.00  0.00    +0.000 C 
BRANCH   3   4
ATOM      4  C   UNL     1       8.029  10.183  18.032  0.00  0.00    +0.000 C 
BRANCH   4  10
ATOM      5  C   UNL     1       9.109  12.415  17.808  0.00  0.00    +0.000 A 
ATOM      6  C   UNL     1      10.211  13.269  17.918  0.00  0.00    +0.000 A 
ATOM      7  C   UNL     1      11.357  12.842  18.573  0.00  0.00    +0.000 A 
ATOM      8  C   UNL     1      11.383  11.567  19.099  0.00  0.00    +0.000 A 
ATOM      9  C   UNL     1      10.284  10.740  18.953  0.00  0.00    +0.000 A 
ATOM     10  N   UNL     1       9.181  11.121  18.245  0.00  0.00    +0.000 N 
BRANCH   5  12
ATOM     11  N   UNL     1       7.007  13.770  17.520  0.00  0.00    +0.000 NA
ATOM     12  C   UNL     1       7.881  12.891  17.122  0.00  0.00    +0.000 C 
BRANCH  11  13
ATOM     13  O   UNL     1       7.328  14.282  18.778  0.00  0.00    +0.000 OA
ATOM     14  H   UNL     1       6.577  14.859  19.012  0.00  0.00    +0.000 HD
ENDBRANCH  11  13
ENDBRANCH   5  12
ENDBRANCH   4  10
ENDBRANCH   3   4
ENDBRANCH   2   3
ENDBRANCH   1   2
BRANCH   1  15
ATOM     15  C   UNL     1       7.484   5.125  17.427  0.00  0.00    +0.000 C 
BRANCH  15  16
ATOM     16  C   UNL     1       6.102   4.468  17.539  0.00  0.00    +0.000 C 
BRANCH  16  17
ATOM     17  C   UNL     1       5.397   4.779  18.864  0.00  0.00    +0.000 C 
BRANCH  17  18
ATOM     18  N   UNL     1       3.991   4.316  18.794  0.00  0.00    +0.000 N 
ATOM     19  C   UNL     1       3.194   4.933  17.879  0.00  0.00    +0.000 A 
ATOM     20  C   UNL     1       1.856   4.595  17.741  0.00  0.00    +0.000 A 
ATOM     21  C   UNL     1       1.321   3.592  18.533  0.00  0.00    +0.000 A 
ATOM     22  C   UNL     1       2.136   2.959  19.461  0.00  0.00    +0.000 A 
ATOM     23  C   UNL     1       3.483   3.322  19.577  0.00  0.00    +0.000 A 
BRANCH  23  24
ATOM     24  C   UNL     1       4.277   2.606  20.598  0.00  0.00    +0.000 C 
ATOM     25  N   UNL     1       5.071   1.609  20.349  0.00  0.00    +0.000 NA
BRANCH  25  26
ATOM     26  O   UNL     1       5.661   1.185  21.542  0.00  0.00    +0.000 OA
ATOM     27  H   UNL     1       4.919   0.788  22.042  0.00  0.00    +0.000 HD
ENDBRANCH  25  26
ENDBRANCH  23  24
ENDBRANCH  17  18
ENDBRANCH  16  17
ENDBRANCH  15  16
ENDBRANCH   1  15
TORSDOF 12
ENDMDL
MODEL 7
REMARK VINA RESULT:      -6.7      1.940      2.905
REMARK  Name = 
REMARK  12 active torsions:
REMARK  status: ('A' for Active; 'I' for Inactive)
REMARK    1  A    between atoms: O_1  and  N_2
REMARK    2  A    between atoms: C_3  and  C_4
REMARK    3  A    between atoms: N_9  and  C_10
REMARK    4  A    between atoms: C_10  and  C_11
REMARK    5  A    between atoms: C_11  and  C_12
REMARK    6  A    between atoms: C_12  and  C_13
REMARK    7  A    between atoms: C_13  and  C_14
REMARK    8  A    between atoms: C_14  and  C_15
REMARK    9  A    between atoms: C_15  and  C_16
REMARK   10  A    between atoms: C_16  and  N_17
REMARK   11  A    between atoms: C_22  and  C_23
REMARK   12  A    between atoms: N_24  and  O_25
REMARK                            x       y       z     vdW  Elec       q    Type
REMARK                         _______ _______ _______ _____ _____    ______ ____
ROOT
ATOM      1  C   UNL     1       2.125   5.412  19.405  0.00  0.00    +0.000 C 
ENDROOT
BRANCH   1   2
ATOM      2  C   UNL     1       2.555   6.881  19.443  0.00  0.00    +0.000 C 
BRANCH   2   3
ATOM      3  C   UNL     1       1.568   7.600  20.366  0.00  0.00    +0.000 C 
BRANCH   3   4
ATOM      4  C   UNL     1       1.201   9.030  19.995  0.00  0.00    +0.000 C 
BRANCH   4  10
ATOM      5  C   UNL     1      -0.281  10.891  20.728  0.00  0.00    +0.000 A 
ATOM      6  C   UNL     1      -0.992  11.590  21.710  0.00  0.00    +0.000 A 
ATOM      7  C   UNL     1      -1.146  11.042  22.975  0.00  0.00    +0.000 A 
ATOM      8  C   UNL     1      -0.582   9.811  23.238  0.00  0.00    +0.000 A 
ATOM      9  C   UNL     1       0.134   9.157  22.251  0.00  0.00    +0.000 A 
ATOM     10  N   UNL     1       0.358   9.720  21.027  0.00  0.00    +0.000 N 
BRANCH   5  12
ATOM     11  N   UNL     1      -0.966  11.433  18.367  0.00  0.00    +0.000 NA
ATOM     12  C   UNL     1      -0.139  11.479  19.372  0.00  0.00    +0.000 C 
BRANCH  11  13
ATOM     13  O   UNL     1      -2.115  10.704  18.678  0.00  0.00    +0.000 OA
ATOM     14  H   UNL     1      -2.016  10.472  19.621  0.00  0.00    +0.000 HD
ENDBRANCH  11  13
ENDBRANCH   5  12
ENDBRANCH   4  10
ENDBRANCH   3   4
ENDBRANCH   2   3
ENDBRANCH   1   2
BRANCH   1  15
ATOM     15  C   UNL     1       1.905   4.843  18.008  0.00  0.00    +0.000 C 
BRANCH  15  16
ATOM     16  C   UNL     1       2.802   3.622  17.763  0.00  0.00    +0.000 C 
BRANCH  16  17
ATOM     17  C   UNL     1       4.202   3.778  18.369  0.00  0.00    +0.000 C 
BRANCH  17  18
ATOM     18  N   UNL     1       5.149   4.209  17.314  0.00  0.00    +0.000 N 
ATOM     19  C   UNL     1       4.814   3.896  16.033  0.00  0.00    +0.000 A 
ATOM     20  C   UNL     1       5.636   4.231  14.967  0.00  0.00    +0.000 A 
ATOM     21  C   UNL     1       6.814   4.919  15.206  0.00  0.00    +0.000 A 
ATOM     22  C   UNL     1       7.152   5.244  16.512  0.00  0.00    +0.000 A 
ATOM     23  C   UNL     1       6.302   4.893  17.567  0.00  0.00    +0.000 A 
BRANCH  23  24
ATOM     24  C   UNL     1       6.744   5.265  18.927  0.00  0.00    +0.000 C 
ATOM     25  N   UNL     1       7.944   5.081  19.388  0.00  0.00    +0.000 NA
BRANCH  25  26
ATOM     26  O   UNL     1       8.008   5.556  20.701  0.00  0.00    +0.000 OA
ATOM     27  H   UNL     1       7.406   4.964  21.194  0.00  0.00    +0.000 HD
ENDBRANCH  25  26
ENDBRANCH  23  24
ENDBRANCH  17  18
ENDBRANCH  16  17
ENDBRANCH  15  16
ENDBRANCH   1  15
TORSDOF 12
ENDMDL
MODEL 8
REMARK VINA RESULT:      -6.6      1.888      2.699
REMARK  Name = 
REMARK  12 active torsions:
REMARK  status: ('A' for Active; 'I' for Inactive)
REMARK    1  A    between atoms: O_1  and  N_2
REMARK    2  A    between atoms: C_3  and  C_4
REMARK    3  A    between atoms: N_9  and  C_10
REMARK    4  A    between atoms: C_10  and  C_11
REMARK    5  A    between atoms: C_11  and  C_12
REMARK    6  A    between atoms: C_12  and  C_13
REMARK    7  A    between atoms: C_13  and  C_14
REMARK    8  A    between atoms: C_14  and  C_15
REMARK    9  A    between atoms: C_15  and  C_16
REMARK   10  A    between atoms: C_16  and  N_17
REMARK   11  A    between atoms: C_22  and  C_23
REMARK   12  A    between atoms: N_24  and  O_25
REMARK                            x       y       z     vdW  Elec       q    Type
REMARK                         _______ _______ _______ _____ _____    ______ ____
ROOT
ATOM      1  C   UNL     1       3.061   6.577  19.014  0.00  0.00    +0.000 C 
ENDROOT
BRANCH   1   2
ATOM      2  C   UNL     1       2.954   7.621  17.899  0.00  0.00    +0.000 C 
BRANCH   2   3
ATOM      3  C   UNL     1       1.593   8.300  18.068  0.00  0.00    +0.000 C 
BRANCH   3   4
ATOM      4  C   UNL     1       1.604   9.762  18.490  0.00  0.00    +0.000 C 
BRANCH   4  10
ATOM      5  C   UNL     1       0.050  11.642  18.987  0.00  0.00    +0.000 A 
ATOM      6  C   UNL     1      -1.223  12.221  18.998  0.00  0.00    +0.000 A 
ATOM      7  C   UNL     1      -2.269  11.608  18.324  0.00  0.00    +0.000 A 
ATOM      8  C   UNL     1      -2.025  10.424  17.658  0.00  0.00    +0.000 A 
ATOM      9  C   UNL     1      -0.759   9.867  17.686  0.00  0.00    +0.000 A 
ATOM     10  N   UNL     1       0.259  10.421  18.409  0.00  0.00    +0.000 N 
BRANCH   5  12
ATOM     11  N   UNL     1       1.500  12.251  20.952  0.00  0.00    +0.000 NA
ATOM     12  C   UNL     1       1.166  12.319  19.696  0.00  0.00    +0.000 C 
BRANCH  11  13
ATOM     13  O   UNL     1       0.641  11.419  21.670  0.00  0.00    +0.000 OA
ATOM     14  H   UNL     1       0.048  12.027  22.151  0.00  0.00    +0.000 HD
ENDBRANCH  11  13
ENDBRANCH   5  12
ENDBRANCH   4  10
ENDBRANCH   3   4
ENDBRANCH   2   3
ENDBRANCH   1   2
BRANCH   1  15
ATOM     15  C   UNL     1       2.262   5.300  18.777  0.00  0.00    +0.000 C 
BRANCH  15  16
ATOM     16  C   UNL     1       2.909   4.441  17.682  0.00  0.00    +0.000 C 
BRANCH  16  17
ATOM     17  C   UNL     1       4.299   3.924  18.071  0.00  0.00    +0.000 C 
BRANCH  17  18
ATOM     18  N   UNL     1       5.279   4.318  17.031  0.00  0.00    +0.000 N 
ATOM     19  C   UNL     1       4.970   3.985  15.749  0.00  0.00    +0.000 A 
ATOM     20  C   UNL     1       5.824   4.286  14.697  0.00  0.00    +0.000 A 
ATOM     21  C   UNL     1       7.007   4.960  14.952  0.00  0.00    +0.000 A 
ATOM     22  C   UNL     1       7.318   5.305  16.260  0.00  0.00    +0.000 A 
ATOM     23  C   UNL     1       6.437   4.988  17.300  0.00  0.00    +0.000 A 
BRANCH  23  24
ATOM     24  C   UNL     1       6.851   5.380  18.663  0.00  0.00    +0.000 C 
ATOM     25  N   UNL     1       7.951   4.995  19.238  0.00  0.00    +0.000 NA
BRANCH  25  26
ATOM     26  O   UNL     1       8.021   5.561  20.514  0.00  0.00    +0.000 OA
ATOM     27  H   UNL     1       8.973   5.519  20.736  0.00  0.00    +0.000 HD
ENDBRANCH  25  26
ENDBRANCH  23  24
ENDBRANCH  17  18
ENDBRANCH  16  17
ENDBRANCH  15  16
ENDBRANCH   1  15
TORSDOF 12
ENDMDL
MODEL 9
REMARK VINA RESULT:      -6.6      1.136      1.193
REMARK  Name = 
REMARK  12 active torsions:
REMARK  status: ('A' for Active; 'I' for Inactive)
REMARK    1  A    between atoms: O_1  and  N_2
REMARK    2  A    between atoms: C_3  and  C_4
REMARK    3  A    between atoms: N_9  and  C_10
REMARK    4  A    between atoms: C_10  and  C_11
REMARK    5  A    between atoms: C_11  and  C_12
REMARK    6  A    between atoms: C_12  and  C_13
REMARK    7  A    between atoms: C_13  and  C_14
REMARK    8  A    between atoms: C_14  and  C_15
REMARK    9  A    between atoms: C_15  and  C_16
REMARK   10  A    between atoms: C_16  and  N_17
REMARK   11  A    between atoms: C_22  and  C_23
REMARK   12  A    between atoms: N_24  and  O_25
REMARK                            x       y       z     vdW  Elec       q    Type
REMARK                         _______ _______ _______ _____ _____    ______ ____
ROOT
ATOM      1  C   UNL     1       1.702   3.345  18.924  0.00  0.00    +0.000 C 
ENDROOT
BRANCH   1   2
ATOM      2  C   UNL     1       1.576   3.587  20.431  0.00  0.00    +0.000 C 
BRANCH   2   3
ATOM      3  C   UNL     1       1.066   5.020  20.602  0.00  0.00    +0.000 C 
BRANCH   3   4
ATOM      4  C   UNL     1       2.117   6.100  20.810  0.00  0.00    +0.000 C 
BRANCH   4  10
ATOM      5  C   UNL     1       1.585   8.472  20.271  0.00  0.00    +0.000 A 
ATOM      6  C   UNL     1       1.387   9.517  19.362  0.00  0.00    +0.000 A 
ATOM      7  C   UNL     1       1.718   9.345  18.026  0.00  0.00    +0.000 A 
ATOM      8  C   UNL     1       2.234   8.132  17.622  0.00  0.00    +0.000 A 
ATOM      9  C   UNL     1       2.397   7.112  18.542  0.00  0.00    +0.000 A 
ATOM     10  N   UNL     1       2.003   7.242  19.843  0.00  0.00    +0.000 N 
BRANCH   5  12
ATOM     11  N   UNL     1       0.102   8.510  22.305  0.00  0.00    +0.000 NA
ATOM     12  C   UNL     1       1.245   8.675  21.702  0.00  0.00    +0.000 C 
BRANCH  11  13
ATOM     13  O   UNL     1      -0.893   8.096  21.419  0.00  0.00    +0.000 OA
ATOM     14  H   UNL     1      -0.425   7.562  20.749  0.00  0.00    +0.000 HD
ENDBRANCH  11  13
ENDBRANCH   5  12
ENDBRANCH   4  10
ENDBRANCH   3   4
ENDBRANCH   2   3
ENDBRANCH   1   2
BRANCH   1  15
ATOM     15  C   UNL     1       2.484   2.094  18.537  0.00  0.00    +0.000 C 
BRANCH  15  16
ATOM     16  C   UNL     1       3.757   2.460  17.761  0.00  0.00    +0.000 C 
BRANCH  16  17
ATOM     17  C   UNL     1       4.094   3.954  17.835  0.00  0.00    +0.000 C 
BRANCH  17  18
ATOM     18  N   UNL     1       5.149   4.269  16.844  0.00  0.00    +0.000 N 
ATOM     19  C   UNL     1       4.793   4.196  15.533  0.00  0.00    +0.000 A 
ATOM     20  C   UNL     1       5.705   4.449  14.519  0.00  0.00    +0.000 A 
ATOM     21  C   UNL     1       7.003   4.807  14.845  0.00  0.00    +0.000 A 
ATOM     22  C   UNL     1       7.365   4.888  16.182  0.00  0.00    +0.000 A 
ATOM     23  C   UNL     1       6.421   4.627  17.183  0.00  0.00    +0.000 A 
BRANCH  23  24
ATOM     24  C   UNL     1       6.893   4.723  18.580  0.00  0.00    +0.000 C 
ATOM     25  N   UNL     1       7.560   5.726  19.065  0.00  0.00    +0.000 NA
BRANCH  25  26
ATOM     26  O   UNL     1       7.834   5.485  20.414  0.00  0.00    +0.000 OA
ATOM     27  H   UNL     1       7.226   6.087  20.887  0.00  0.00    +0.000 HD
ENDBRANCH  25  26
ENDBRANCH  23  24
ENDBRANCH  17  18
ENDBRANCH  16  17
ENDBRANCH  15  16
ENDBRANCH   1  15
TORSDOF 12
ENDMDL
