MODEL 1
REMARK VINA RESULT:      -4.9      0.000      0.000
REMARK  Name = 
REMARK  7 active torsions:
REMARK  status: ('A' for Active; 'I' for Inactive)
REMARK    1  A    between atoms: C_1  and  C_2
REMARK    2  A    between atoms: C_2  and  C_3
REMARK    3  A    between atoms: C_4  and  C_5
REMARK    4  A    between atoms: C_5  and  C_6
REMARK    5  A    between atoms: C_6  and  C_7
REMARK    6  A    between atoms: C_8  and  C_9
REMARK    7  A    between atoms: C_9  and  O_10
REMARK                            x       y       z     vdW  Elec       q    Type
REMARK                         _______ _______ _______ _____ _____    ______ ____
ROOT
ATOM      1  C   UNL     1       5.634   3.972  13.895  0.00  0.00    +0.000 C 
ENDROOT
BRANCH   1   2
ATOM      2  C   UNL     1       6.499   4.757  14.844  0.00  0.00    +0.000 C 
ATOM      3  C   UNL     1       6.480   4.586  16.175  0.00  0.00    +0.000 C 
BRANCH   3   4
ATOM      4  C   UNL     1       7.301   5.376  17.139  0.00  0.00    +0.000 C 
BRANCH   4   5
ATOM      5  O   UNL     1       7.570   6.640  16.556  0.00  0.00    +0.000 OA
ATOM      6  H   UNL     1       8.450   6.575  16.146  0.00  0.00    +0.000 HD
ENDBRANCH   4   5
ENDBRANCH   3   4
ENDBRANCH   1   2
BRANCH   1   7
ATOM      7  C   UNL     1       6.319   3.704  12.547  0.00  0.00    +0.000 C 
BRANCH   7   9
ATOM      8  C   UNL     1       4.537   2.616  11.121  0.00  0.00    +0.000 C 
ATOM      9  C   UNL     1       5.716   2.567  11.763  0.00  0.00    +0.000 C 
BRANCH   8  11
ATOM     10  C   UNL     1       3.042   3.970   9.641  0.00  0.00    +0.000 C 
ATOM     11  C   UNL     1       3.624   3.805  11.037  0.00  0.00    +0.000 C 
ENDBRANCH   8  11
ENDBRANCH   7   9
ENDBRANCH   1   7
TORSDOF 6
ENDMDL
MODEL 2
REMARK VINA RESULT:      -4.8      4.699      6.818
REMARK  Name = 
REMARK  7 active torsions:
REMARK  status: ('A' for Active; 'I' for Inactive)
REMARK    1  A    between atoms: C_1  and  C_2
REMARK    2  A    between atoms: C_2  and  C_3
REMARK    3  A    between atoms: C_4  and  C_5
REMARK    4  A    between atoms: C_5  and  C_6
REMARK    5  A    between atoms: C_6  and  C_7
REMARK    6  A    between atoms: C_8  and  C_9
REMARK    7  A    between atoms: C_9  and  O_10
REMARK                            x       y       z     vdW  Elec       q    Type
REMARK                         _______ _______ _______ _____ _____    ______ ____
ROOT
ATOM      1  C   UNL     1       3.168   5.136  17.907  0.00  0.00    +0.000 C 
ENDROOT
BRANCH   1   2
ATOM      2  C   UNL     1       4.321   4.347  17.346  0.00  0.00    +0.000 C 
ATOM      3  C   UNL     1       5.038   4.740  16.282  0.00  0.00    +0.000 C 
BRANCH   3   4
ATOM      4  C   UNL     1       6.161   3.959  15.686  0.00  0.00    +0.000 C 
BRANCH   4   5
ATOM      5  O   UNL     1       7.367   4.661  15.939  0.00  0.00    +0.000 OA
ATOM      6  H   UNL     1       7.765   4.848  15.071  0.00  0.00    +0.000 HD
ENDBRANCH   4   5
ENDBRANCH   3   4
ENDBRANCH   1   2
BRANCH   1   7
ATOM      7  C   UNL     1       1.814   4.440  17.706  0.00  0.00    +0.000 C 
BRANCH   7   9
ATOM      8  C   UNL     1       1.480   2.453  19.232  0.00  0.00    +0.000 C 
ATOM      9  C   UNL     1       1.819   2.971  18.040  0.00  0.00    +0.000 C 
BRANCH   8  11
ATOM     10  C   UNL     1       1.945   3.047  21.617  0.00  0.00    +0.000 C 
ATOM     11  C   UNL     1       1.009   3.224  20.431  0.00  0.00    +0.000 C 
ENDBRANCH   8  11
ENDBRANCH   7   9
ENDBRANCH   1   7
TORSDOF 6
ENDMDL
MODEL 3
REMARK VINA RESULT:      -4.8      4.600      6.607
REMARK  Name = 
REMARK  7 active torsions:
REMARK  status: ('A' for Active; 'I' for Inactive)
REMARK    1  A    between atoms: C_1  and  C_2
REMARK    2  A    between atoms: C_2  and  C_3
REMARK    3  A    between atoms: C_4  and  C_5
REMARK    4  A    between atoms: C_5  and  C_6
REMARK    5  A    between atoms: C_6  and  C_7
REMARK    6  A    between atoms: C_8  and  C_9
REMARK    7  A    between atoms: C_9  and  O_10
REMARK                            x       y       z     vdW  Elec       q    Type
REMARK                         _______ _______ _______ _____ _____    ______ ____
ROOT
ATOM      1  C   UNL     1       3.540   3.860  17.063  0.00  0.00    +0.000 C 
ENDROOT
BRANCH   1   2
ATOM      2  C   UNL     1       4.939   4.413  17.027  0.00  0.00    +0.000 C 
ATOM      3  C   UNL     1       5.802   4.175  16.027  0.00  0.00    +0.000 C 
BRANCH   3   4
ATOM      4  C   UNL     1       7.205   4.682  15.985  0.00  0.00    +0.000 C 
BRANCH   4   5
ATOM      5  O   UNL     1       7.907   4.126  17.084  0.00  0.00    +0.000 OA
ATOM      6  H   UNL     1       8.814   4.476  17.039  0.00  0.00    +0.000 HD
ENDBRANCH   4   5
ENDBRANCH   3   4
ENDBRANCH   1   2
BRANCH   1   7
ATOM      7  C   UNL     1       3.353   2.777  18.136  0.00  0.00    +0.000 C 
BRANCH   7   9
ATOM      8  C   UNL     1       1.023   2.511  19.080  0.00  0.00    +0.000 C 
ATOM      9  C   UNL     1       1.969   2.186  18.183  0.00  0.00    +0.000 C 
BRANCH   8  11
ATOM     10  C   UNL     1       1.539   2.893  21.498  0.00  0.00    +0.000 C 
ATOM     11  C   UNL     1       1.154   3.533  20.172  0.00  0.00    +0.000 C 
ENDBRANCH   8  11
ENDBRANCH   7   9
ENDBRANCH   1   7
TORSDOF 6
ENDMDL
MODEL 4
REMARK VINA RESULT:      -4.8      5.695      7.069
REMARK  Name = 
REMARK  7 active torsions:
REMARK  status: ('A' for Active; 'I' for Inactive)
REMARK    1  A    between atoms: C_1  and  C_2
REMARK    2  A    between atoms: C_2  and  C_3
REMARK    3  A    between atoms: C_4  and  C_5
REMARK    4  A    between atoms: C_5  and  C_6
REMARK    5  A    between atoms: C_6  and  C_7
REMARK    6  A    between atoms: C_8  and  C_9
REMARK    7  A    between atoms: C_9  and  O_10
REMARK                            x       y       z     vdW  Elec       q    Type
REMARK                         _______ _______ _______ _____ _____    ______ ____
ROOT
ATOM      1  C   UNL     1       2.311   5.795  19.097  0.00  0.00    +0.000 C 
ENDROOT
BRANCH   1   2
ATOM      2  C   UNL     1       3.782   5.952  18.815  0.00  0.00    +0.000 C 
ATOM      3  C   UNL     1       4.716   5.105  19.273  0.00  0.00    +0.000 C 
BRANCH   3   4
ATOM      4  C   UNL     1       6.182   5.259  19.037  0.00  0.00    +0.000 C 
BRANCH   4   5
ATOM      5  O   UNL     1       6.653   4.077  18.412  0.00  0.00    +0.000 OA
ATOM      6  H   UNL     1       6.120   3.958  17.607  0.00  0.00    +0.000 HD
ENDBRANCH   4   5
ENDBRANCH   3   4
ENDBRANCH   1   2
BRANCH   1   7
ATOM      7  C   UNL     1       2.030   5.004  20.382  0.00  0.00    +0.000 C 
BRANCH   7   9
ATOM      8  C   UNL     1       1.044   2.766  19.741  0.00  0.00    +0.000 C 
ATOM      9  C   UNL     1       0.915   3.999  20.258  0.00  0.00    +0.000 C 
BRANCH   8  11
ATOM     10  C   UNL     1       2.444   2.316  17.717  0.00  0.00    +0.000 C 
ATOM     11  C   UNL     1       2.313   2.153  19.224  0.00  0.00    +0.000 C 
ENDBRANCH   8  11
ENDBRANCH   7   9
ENDBRANCH   1   7
TORSDOF 6
ENDMDL
MODEL 5
REMARK VINA RESULT:      -4.8      1.548      1.703
REMARK  Name = 
REMARK  7 active torsions:
REMARK  status: ('A' for Active; 'I' for Inactive)
REMARK    1  A    between atoms: C_1  and  C_2
REMARK    2  A    between atoms: C_2  and  C_3
REMARK    3  A    between atoms: C_4  and  C_5
REMARK    4  A    between atoms: C_5  and  C_6
REMARK    5  A    between atoms: C_6  and  C_7
REMARK    6  A    between atoms: C_8  and  C_9
REMARK    7  A    between atoms: C_9  and  O_10
REMARK                            x       y       z     vdW  Elec       q    Type
REMARK                         _______ _______ _______ _____ _____    ______ ____
ROOT
ATOM      1  C   UNL     1       6.829   4.895  14.256  0.00  0.00    +0.000 C 
ENDROOT
BRANCH   1   2
ATOM      2  C   UNL     1       6.614   5.268  15.699  0.00  0.00    +0.000 C 
ATOM      3  C   UNL     1       6.336   4.374  16.660  0.00  0.00    +0.000 C 
BRANCH   3   4
ATOM      4  C   UNL     1       6.084   4.722  18.089  0.00  0.00    +0.000 C 
BRANCH   4   5
ATOM      5  O   UNL     1       5.734   3.533  18.777  0.00  0.00    +0.000 OA
ATOM      6  H   UNL     1       6.306   3.489  19.563  0.00  0.00    +0.000 HD
ENDBRANCH   4   5
ENDBRANCH   3   4
ENDBRANCH   1   2
BRANCH   1   7
ATOM      7  C   UNL     1       5.825   3.847  13.754  0.00  0.00    +0.000 C 
BRANCH   7   9
ATOM      8  C   UNL     1       5.285   3.026  11.425  0.00  0.00    +0.000 C 
ATOM      9  C   UNL     1       6.168   3.257  12.411  0.00  0.00    +0.000 C 
BRANCH   8  11
ATOM     10  C   UNL     1       3.243   3.506  10.063  0.00  0.00    +0.000 C 
ATOM     11  C   UNL     1       3.817   3.335  11.462  0.00  0.00    +0.000 C 
ENDBRANCH   8  11
ENDBRANCH   7   9
ENDBRANCH   1   7
TORSDOF 6
ENDMDL
MODEL 6
REMARK VINA RESULT:      -4.7      4.948      7.026
REMARK  Name = 
REMARK  7 active torsions:
REMARK  status: ('A' for Active; 'I' for Inactive)
REMARK    1  A    between atoms: C_1  and  C_2
REMARK    2  A    between atoms: C_2  and  C_3
REMARK    3  A    between atoms: C_4  and  C_5
REMARK    4  A    between atoms: C_5  and  C_6
REMARK    5  A    between atoms: C_6  and  C_7
REMARK    6  A    between atoms: C_8  and  C_9
REMARK    7  A    between atoms: C_9  and  O_10
REMARK                            x       y       z     vdW  Elec       q    Type
REMARK                         _______ _______ _______ _____ _____    ______ ____
ROOT
ATOM      1  C   UNL     1       2.742   3.224  17.268  0.00  0.00    +0.000 C 
ENDROOT
BRANCH   1   2
ATOM      2  C   UNL     1       4.122   3.731  17.590  0.00  0.00    +0.000 C 
ATOM      3  C   UNL     1       4.698   4.763  16.954  0.00  0.00    +0.000 C 
BRANCH   3   4
ATOM      4  C   UNL     1       6.077   5.261  17.230  0.00  0.00    +0.000 C 
BRANCH   4   5
ATOM      5  O   UNL     1       6.955   4.147  17.234  0.00  0.00    +0.000 OA
ATOM      6  H   UNL     1       7.721   4.397  16.689  0.00  0.00    +0.000 HD
ENDBRANCH   4   5
ENDBRANCH   3   4
ENDBRANCH   1   2
BRANCH   1   7
ATOM      7  C   UNL     1       2.229   2.199  18.290  0.00  0.00    +0.000 C 
BRANCH   7   9
ATOM      8  C   UNL     1       0.697   3.178  20.047  0.00  0.00    +0.000 C 
ATOM      9  C   UNL     1       0.885   2.536  18.882  0.00  0.00    +0.000 C 
BRANCH   8  11
ATOM     10  C   UNL     1       2.073   5.168  20.680  0.00  0.00    +0.000 C 
ATOM     11  C   UNL     1       1.773   3.702  20.952  0.00  0.00    +0.000 C 
ENDBRANCH   8  11
ENDBRANCH   7   9
ENDBRANCH   1   7
TORSDOF 6
ENDMDL
MODEL 7
REMARK VINA RESULT:      -4.7      4.558      6.557
REMARK  Name = 
REMARK  7 active torsions:
REMARK  status: ('A' for Active; 'I' for Inactive)
REMARK    1  A    between atoms: C_1  and  C_2
REMARK    2  A    between atoms: C_2  and  C_3
REMARK    3  A    between atoms: C_4  and  C_5
REMARK    4  A    between atoms: C_5  and  C_6
REMARK    5  A    between atoms: C_6  and  C_7
REMARK    6  A    between atoms: C_8  and  C_9
REMARK    7  A    between atoms: C_9  and  O_10
REMARK                            x       y       z     vdW  Elec       q    Type
REMARK                         _______ _______ _______ _____ _____    ______ ____
ROOT
ATOM      1  C   UNL     1       3.897   4.411  17.157  0.00  0.00    +0.000 C 
ENDROOT
BRANCH   1   2
ATOM      2  C   UNL     1       5.121   4.112  16.333  0.00  0.00    +0.000 C 
ATOM      3  C   UNL     1       5.458   4.801  15.232  0.00  0.00    +0.000 C 
BRANCH   3   4
ATOM      4  C   UNL     1       6.645   4.502  14.379  0.00  0.00    +0.000 C 
BRANCH   4   5
ATOM      5  O   UNL     1       6.356   3.344  13.613  0.00  0.00    +0.000 OA
ATOM      6  H   UNL     1       6.983   2.658  13.901  0.00  0.00    +0.000 HD
ENDBRANCH   4   5
ENDBRANCH   3   4
ENDBRANCH   1   2
BRANCH   1   7
ATOM      7  C   UNL     1       3.532   3.270  18.119  0.00  0.00    +0.000 C 
BRANCH   7   9
ATOM      8  C   UNL     1       1.105   2.825  18.669  0.00  0.00    +0.000 C 
ATOM      9  C   UNL     1       2.174   2.665  17.872  0.00  0.00    +0.000 C 
BRANCH   8  11
ATOM     10  C   UNL     1       1.413   2.830  21.152  0.00  0.00    +0.000 C 
ATOM     11  C   UNL     1       1.051   3.650  19.922  0.00  0.00    +0.000 C 
ENDBRANCH   8  11
ENDBRANCH   7   9
ENDBRANCH   1   7
TORSDOF 6
ENDMDL
MODEL 8
REMARK VINA RESULT:      -4.7      5.140      6.995
REMARK  Name = 
REMARK  7 active torsions:
REMARK  status: ('A' for Active; 'I' for Inactive)
REMARK    1  A    between atoms: C_1  and  C_2
REMARK    2  A    between atoms: C_2  and  C_3
REMARK    3  A    between atoms: C_4  and  C_5
REMARK    4  A    between atoms: C_5  and  C_6
REMARK    5  A    between atoms: C_6  and  C_7
REMARK    6  A    between atoms: C_8  and  C_9
REMARK    7  A    between atoms: C_9  and  O_10
REMARK                            x       y       z     vdW  Elec       q    Type
REMARK                         _______ _______ _______ _____ _____    ______ ____
ROOT
ATOM      1  C   UNL     1       3.403   5.360  17.787  0.00  0.00    +0.000 C 
ENDROOT
BRANCH   1   2
ATOM      2  C   UNL     1       4.839   5.529  18.206  0.00  0.00    +0.000 C 
ATOM      3  C   UNL     1       5.869   4.956  17.564  0.00  0.00    +0.000 C 
BRANCH   3   4
ATOM      4  C   UNL     1       7.296   5.080  17.981  0.00  0.00    +0.000 C 
BRANCH   4   5
ATOM      5  O   UNL     1       8.050   4.120  17.258  0.00  0.00    +0.000 OA
ATOM      6  H   UNL     1       7.464   3.358  17.116  0.00  0.00    +0.000 HD
ENDBRANCH   4   5
ENDBRANCH   3   4
ENDBRANCH   1   2
BRANCH   1   7
ATOM      7  C   UNL     1       2.882   3.932  18.004  0.00  0.00    +0.000 C 
BRANCH   7   9
ATOM      8  C   UNL     1       1.044   3.897  19.740  0.00  0.00    +0.000 C 
ATOM      9  C   UNL     1       1.447   3.860  18.459  0.00  0.00    +0.000 C 
BRANCH   8  11
ATOM     10  C   UNL     1       2.134   2.719  21.658  0.00  0.00    +0.000 C 
ATOM     11  C   UNL     1       1.931   4.046  20.942  0.00  0.00    +0.000 C 
ENDBRANCH   8  11
ENDBRANCH   7   9
ENDBRANCH   1   7
TORSDOF 6
ENDMDL
MODEL 9
REMARK VINA RESULT:      -4.6      5.257      6.586
REMARK  Name = 
REMARK  7 active torsions:
REMARK  status: ('A' for Active; 'I' for Inactive)
REMARK    1  A    between atoms: C_1  and  C_2
REMARK    2  A    between atoms: C_2  and  C_3
REMARK    3  A    between atoms: C_4  and  C_5
REMARK    4  A    between atoms: C_5  and  C_6
REMARK    5  A    between atoms: C_6  and  C_7
REMARK    6  A    between atoms: C_8  and  C_9
REMARK    7  A    between atoms: C_9  and  O_10
REMARK                            x       y       z     vdW  Elec       q    Type
REMARK                         _______ _______ _______ _____ _____    ______ ____
ROOT
ATOM      1  C   UNL     1       3.968   4.267  17.653  0.00  0.00    +0.000 C 
ENDROOT
BRANCH   1   2
ATOM      2  C   UNL     1       5.282   4.989  17.786  0.00  0.00    +0.000 C 
ATOM      3  C   UNL     1       6.007   5.004  18.915  0.00  0.00    +0.000 C 
BRANCH   3   4
ATOM      4  C   UNL     1       7.294   5.740  19.082  0.00  0.00    +0.000 C 
BRANCH   4   5
ATOM      5  O   UNL     1       7.820   5.424  20.360  0.00  0.00    +0.000 OA
ATOM      6  H   UNL     1       7.162   4.855  20.797  0.00  0.00    +0.000 HD
ENDBRANCH   4   5
ENDBRANCH   3   4
ENDBRANCH   1   2
BRANCH   1   7
ATOM      7  C   UNL     1       3.932   2.944  18.431  0.00  0.00    +0.000 C 
BRANCH   7   9
ATOM      8  C   UNL     1       1.669   2.076  19.149  0.00  0.00    +0.000 C 
ATOM      9  C   UNL     1       2.662   2.154  18.248  0.00  0.00    +0.000 C 
BRANCH   8  11
ATOM     10  C   UNL     1       0.999   4.159  20.362  0.00  0.00    +0.000 C 
ATOM     11  C   UNL     1       1.622   2.775  20.477  0.00  0.00    +0.000 C 
ENDBRANCH   8  11
ENDBRANCH   7   9
ENDBRANCH   1   7
TORSDOF 6
ENDMDL
