MODEL 1
REMARK VINA RESULT:      -8.0      0.000      0.000
REMARK  Name = 
REMARK  5 active torsions:
REMARK  status: ('A' for Active; 'I' for Inactive)
REMARK    1  A    between atoms: C_1  and  C_2
REMARK    2  A    between atoms: C_5  and  C_6
REMARK    3  A    between atoms: C_11  and  C_13
REMARK    4  A    between atoms: C_13  and  O_14
REMARK    5  A    between atoms: O_14  and  C_15
REMARK                            x       y       z     vdW  Elec       q    Type
REMARK                         _______ _______ _______ _____ _____    ______ ____
ROOT
ATOM      1  C   UNL     1       4.241   4.842  19.297  0.00  0.00    +0.000 C 
ATOM      2  S   UNL     1       3.107   3.423  19.529  0.00  0.00    +0.000 S 
ATOM      3  C   UNL     1       3.156   2.952  17.792  0.00  0.00    +0.000 C 
ATOM      4  C   UNL     1       4.450   3.528  17.233  0.00  0.00    +0.000 C 
ATOM      5  N   UNL     1       5.097   4.406  18.201  0.00  0.00    +0.000 N 
ATOM      6  C   UNL     1       6.408   4.848  18.122  0.00  0.00    +0.000 C 
ATOM      7  O   UNL     1       6.910   5.567  18.988  0.00  0.00    +0.000 OA
ENDROOT
BRANCH   1  12
ATOM      8  C   UNL     1       1.319   9.800  18.138  0.00  0.00    +0.000 C 
ATOM      9  C   UNL     1       2.060   8.527  18.419  0.00  0.00    +0.000 A 
ATOM     10  C   UNL     1       2.991   8.013  17.514  0.00  0.00    +0.000 A 
ATOM     11  C   UNL     1       3.678   6.825  17.802  0.00  0.00    +0.000 A 
ATOM     12  C   UNL     1       3.462   6.127  19.006  0.00  0.00    +0.000 A 
ATOM     13  C   UNL     1       2.504   6.648  19.892  0.00  0.00    +0.000 A 
ATOM     14  C   UNL     1       1.817   7.831  19.604  0.00  0.00    +0.000 A 
ENDBRANCH   1  12
BRANCH   6  15
ATOM     15  C   UNL     1       7.206   4.448  16.875  0.00  0.00    +0.000 C 
BRANCH  15  16
ATOM     16  O   UNL     1       7.092   5.452  15.873  0.00  0.00    +0.000 OA
BRANCH  16  17
ATOM     17  C   UNL     1       7.059   4.993  14.582  0.00  0.00    +0.000 A 
ATOM     18  C   UNL     1       6.102   4.014  14.311  0.00  0.00    +0.000 A 
ATOM     19  C   UNL     1       5.954   3.502  13.019  0.00  0.00    +0.000 A 
ATOM     20  C   UNL     1       6.754   3.982  11.985  0.00  0.00    +0.000 A 
ATOM     21  C   UNL     1       7.700   4.972  12.245  0.00  0.00    +0.000 A 
ATOM     22  C   UNL     1       7.851   5.478  13.540  0.00  0.00    +0.000 A 
ENDBRANCH  16  17
ENDBRANCH  15  16
ENDBRANCH   6  15
TORSDOF 4
ENDMDL
MODEL 2
REMARK VINA RESULT:      -8.0      0.126      1.034
REMARK  Name = 
REMARK  5 active torsions:
REMARK  status: ('A' for Active; 'I' for Inactive)
REMARK    1  A    between atoms: C_1  and  C_2
REMARK    2  A    between atoms: C_5  and  C_6
REMARK    3  A    between atoms: C_11  and  C_13
REMARK    4  A    between atoms: C_13  and  O_14
REMARK    5  A    between atoms: O_14  and  C_15
REMARK                            x       y       z     vdW  Elec       q    Type
REMARK                         _______ _______ _______ _____ _____    ______ ____
ROOT
ATOM      1  C   UNL     1       4.361   4.905  19.360  0.00  0.00    +0.000 C 
ATOM      2  S   UNL     1       3.279   3.468  19.706  0.00  0.00    +0.000 S 
ATOM      3  C   UNL     1       3.289   2.904  17.996  0.00  0.00    +0.000 C 
ATOM      4  C   UNL     1       4.546   3.485  17.365  0.00  0.00    +0.000 C 
ATOM      5  N   UNL     1       5.196   4.434  18.261  0.00  0.00    +0.000 N 
ATOM      6  C   UNL     1       6.488   4.909  18.116  0.00  0.00    +0.000 C 
ATOM      7  O   UNL     1       6.995   5.690  18.924  0.00  0.00    +0.000 OA
ENDROOT
BRANCH   1  12
ATOM      8  C   UNL     1       1.253   9.705  18.031  0.00  0.00    +0.000 C 
ATOM      9  C   UNL     1       2.041   8.472  18.356  0.00  0.00    +0.000 A 
ATOM     10  C   UNL     1       3.005   7.973  17.477  0.00  0.00    +0.000 A 
ATOM     11  C   UNL     1       3.736   6.823  17.805  0.00  0.00    +0.000 A 
ATOM     12  C   UNL     1       3.534   6.148  19.024  0.00  0.00    +0.000 A 
ATOM     13  C   UNL     1       2.543   6.653  19.884  0.00  0.00    +0.000 A 
ATOM     14  C   UNL     1       1.812   7.798  19.556  0.00  0.00    +0.000 A 
ENDBRANCH   1  12
BRANCH   6  15
ATOM     15  C   UNL     1       7.260   4.464  16.867  0.00  0.00    +0.000 C 
BRANCH  15  16
ATOM     16  O   UNL     1       7.139   5.440  15.838  0.00  0.00    +0.000 OA
BRANCH  16  17
ATOM     17  C   UNL     1       6.963   4.943  14.572  0.00  0.00    +0.000 A 
ATOM     18  C   UNL     1       7.788   5.490  13.588  0.00  0.00    +0.000 A 
ATOM     19  C   UNL     1       7.721   5.031  12.269  0.00  0.00    +0.000 A 
ATOM     20  C   UNL     1       6.838   4.008  11.933  0.00  0.00    +0.000 A 
ATOM     21  C   UNL     1       6.024   3.446  12.915  0.00  0.00    +0.000 A 
ATOM     22  C   UNL     1       6.087   3.911  14.232  0.00  0.00    +0.000 A 
ENDBRANCH  16  17
ENDBRANCH  15  16
ENDBRANCH   6  15
TORSDOF 4
ENDMDL
MODEL 3
REMARK VINA RESULT:      -7.9      0.271      1.471
REMARK  Name = 
REMARK  5 active torsions:
REMARK  status: ('A' for Active; 'I' for Inactive)
REMARK    1  A    between atoms: C_1  and  C_2
REMARK    2  A    between atoms: C_5  and  C_6
REMARK    3  A    between atoms: C_11  and  C_13
REMARK    4  A    between atoms: C_13  and  O_14
REMARK    5  A    between atoms: O_14  and  C_15
REMARK                            x       y       z     vdW  Elec       q    Type
REMARK                         _______ _______ _______ _____ _____    ______ ____
ROOT
ATOM      1  C   UNL     1       3.995   4.709  19.284  0.00  0.00    +0.000 C 
ATOM      2  S   UNL     1       2.781   3.342  19.398  0.00  0.00    +0.000 S 
ATOM      3  C   UNL     1       2.849   2.983  17.634  0.00  0.00    +0.000 C 
ATOM      4  C   UNL     1       4.186   3.520  17.144  0.00  0.00    +0.000 C 
ATOM      5  N   UNL     1       4.855   4.297  18.181  0.00  0.00    +0.000 N 
ATOM      6  C   UNL     1       6.189   4.670  18.161  0.00  0.00    +0.000 C 
ATOM      7  O   UNL     1       6.706   5.303  19.082  0.00  0.00    +0.000 OA
ENDROOT
BRANCH   1  12
ATOM      8  C   UNL     1       1.244   9.831  18.470  0.00  0.00    +0.000 C 
ATOM      9  C   UNL     1       1.953   8.529  18.693  0.00  0.00    +0.000 A 
ATOM     10  C   UNL     1       1.770   7.792  19.865  0.00  0.00    +0.000 A 
ATOM     11  C   UNL     1       2.437   6.573  20.048  0.00  0.00    +0.000 A 
ATOM     12  C   UNL     1       3.295   6.051  19.060  0.00  0.00    +0.000 A 
ATOM     13  C   UNL     1       3.484   6.819  17.899  0.00  0.00    +0.000 A 
ATOM     14  C   UNL     1       2.821   8.036  17.717  0.00  0.00    +0.000 A 
ENDBRANCH   1  12
BRANCH   6  15
ATOM     15  C   UNL     1       6.996   4.308  16.908  0.00  0.00    +0.000 C 
BRANCH  15  16
ATOM     16  O   UNL     1       6.860   5.324  15.921  0.00  0.00    +0.000 OA
BRANCH  16  17
ATOM     17  C   UNL     1       6.813   4.883  14.624  0.00  0.00    +0.000 A 
ATOM     18  C   UNL     1       7.734   5.467  13.753  0.00  0.00    +0.000 A 
ATOM     19  C   UNL     1       7.800   5.066  12.415  0.00  0.00    +0.000 A 
ATOM     20  C   UNL     1       6.954   4.064  11.948  0.00  0.00    +0.000 A 
ATOM     21  C   UNL     1       6.043   3.465  12.817  0.00  0.00    +0.000 A 
ATOM     22  C   UNL     1       5.974   3.872  14.153  0.00  0.00    +0.000 A 
ENDBRANCH  16  17
ENDBRANCH  15  16
ENDBRANCH   6  15
TORSDOF 4
ENDMDL
MODEL 4
REMARK VINA RESULT:      -7.8      3.223      5.462
REMARK  Name = 
REMARK  5 active torsions:
REMARK  status: ('A' for Active; 'I' for Inactive)
REMARK    1  A    between atoms: C_1  and  C_2
REMARK    2  A    between atoms: C_5  and  C_6
REMARK    3  A    between atoms: C_11  and  C_13
REMARK    4  A    between atoms: C_13  and  O_14
REMARK    5  A    between atoms: O_14  and  C_15
REMARK                            x       y       z     vdW  Elec       q    Type
REMARK                         _______ _______ _______ _____ _____    ______ ____
ROOT
ATOM      1  C   UNL     1       4.379   6.009  17.168  0.00  0.00    +0.000 C 
ATOM      2  S   UNL     1       6.004   6.852  17.133  0.00  0.00    +0.000 S 
ATOM      3  C   UNL     1       6.705   5.803  18.417  0.00  0.00    +0.000 C 
ATOM      4  C   UNL     1       5.886   4.520  18.410  0.00  0.00    +0.000 C 
ATOM      5  N   UNL     1       4.724   4.641  17.538  0.00  0.00    +0.000 N 
ATOM      6  C   UNL     1       3.952   3.582  17.089  0.00  0.00    +0.000 C 
ATOM      7  O   UNL     1       2.996   3.744  16.328  0.00  0.00    +0.000 OA
ENDROOT
BRANCH   1  12
ATOM      8  C   UNL     1       0.739   8.718  20.894  0.00  0.00    +0.000 C 
ATOM      9  C   UNL     1       1.656   8.027  19.930  0.00  0.00    +0.000 A 
ATOM     10  C   UNL     1       2.005   8.613  18.711  0.00  0.00    +0.000 A 
ATOM     11  C   UNL     1       2.872   7.952  17.829  0.00  0.00    +0.000 A 
ATOM     12  C   UNL     1       3.423   6.696  18.146  0.00  0.00    +0.000 A 
ATOM     13  C   UNL     1       3.040   6.113  19.366  0.00  0.00    +0.000 A 
ATOM     14  C   UNL     1       2.174   6.770  20.245  0.00  0.00    +0.000 A 
ENDBRANCH   1  12
BRANCH   6  15
ATOM     15  C   UNL     1       4.302   2.187  17.622  0.00  0.00    +0.000 C 
BRANCH  15  16
ATOM     16  O   UNL     1       3.147   1.565  18.174  0.00  0.00    +0.000 OA
BRANCH  16  17
ATOM     17  C   UNL     1       2.613   2.184  19.274  0.00  0.00    +0.000 A 
ATOM     18  C   UNL     1       1.270   2.551  19.170  0.00  0.00    +0.000 A 
ATOM     19  C   UNL     1       0.613   3.155  20.246  0.00  0.00    +0.000 A 
ATOM     20  C   UNL     1       1.294   3.380  21.439  0.00  0.00    +0.000 A 
ATOM     21  C   UNL     1       2.631   3.001  21.555  0.00  0.00    +0.000 A 
ATOM     22  C   UNL     1       3.289   2.403  20.476  0.00  0.00    +0.000 A 
ENDBRANCH  16  17
ENDBRANCH  15  16
ENDBRANCH   6  15
TORSDOF 4
ENDMDL
MODEL 5
REMARK VINA RESULT:      -7.8      3.279      5.551
REMARK  Name = 
REMARK  5 active torsions:
REMARK  status: ('A' for Active; 'I' for Inactive)
REMARK    1  A    between atoms: C_1  and  C_2
REMARK    2  A    between atoms: C_5  and  C_6
REMARK    3  A    between atoms: C_11  and  C_13
REMARK    4  A    between atoms: C_13  and  O_14
REMARK    5  A    between atoms: O_14  and  C_15
REMARK                            x       y       z     vdW  Elec       q    Type
REMARK                         _______ _______ _______ _____ _____    ______ ____
ROOT
ATOM      1  C   UNL     1       4.203   5.990  17.174  0.00  0.00    +0.000 C 
ATOM      2  S   UNL     1       5.833   6.819  17.072  0.00  0.00    +0.000 S 
ATOM      3  C   UNL     1       6.576   5.765  18.329  0.00  0.00    +0.000 C 
ATOM      4  C   UNL     1       5.746   4.489  18.357  0.00  0.00    +0.000 C 
ATOM      5  N   UNL     1       4.551   4.620  17.532  0.00  0.00    +0.000 N 
ATOM      6  C   UNL     1       3.753   3.567  17.116  0.00  0.00    +0.000 C 
ATOM      7  O   UNL     1       2.769   3.736  16.394  0.00  0.00    +0.000 OA
ENDROOT
BRANCH   1  12
ATOM      8  C   UNL     1       0.741   8.734  21.040  0.00  0.00    +0.000 C 
ATOM      9  C   UNL     1       1.613   8.035  20.041  0.00  0.00    +0.000 A 
ATOM     10  C   UNL     1       1.943   8.631  18.821  0.00  0.00    +0.000 A 
ATOM     11  C   UNL     1       2.767   7.961  17.906  0.00  0.00    +0.000 A 
ATOM     12  C   UNL     1       3.293   6.686  18.189  0.00  0.00    +0.000 A 
ATOM     13  C   UNL     1       2.929   6.095  19.410  0.00  0.00    +0.000 A 
ATOM     14  C   UNL     1       2.106   6.760  20.323  0.00  0.00    +0.000 A 
ENDBRANCH   1  12
BRANCH   6  15
ATOM     15  C   UNL     1       4.112   2.169  17.637  0.00  0.00    +0.000 C 
BRANCH  15  16
ATOM     16  O   UNL     1       2.951   1.516  18.137  0.00  0.00    +0.000 OA
BRANCH  16  17
ATOM     17  C   UNL     1       2.370   2.102  19.231  0.00  0.00    +0.000 A 
ATOM     18  C   UNL     1       3.186   2.225  20.357  0.00  0.00    +0.000 A 
ATOM     19  C   UNL     1       2.709   2.842  21.517  0.00  0.00    +0.000 A 
ATOM     20  C   UNL     1       1.415   3.355  21.549  0.00  0.00    +0.000 A 
ATOM     21  C   UNL     1       0.601   3.250  20.422  0.00  0.00    +0.000 A 
ATOM     22  C   UNL     1       1.077   2.627  19.265  0.00  0.00    +0.000 A 
ENDBRANCH  16  17
ENDBRANCH  15  16
ENDBRANCH   6  15
TORSDOF 4
ENDMDL
MODEL 6
REMARK VINA RESULT:      -7.8      0.526      1.150
REMARK  Name = 
REMARK  5 active torsions:
REMARK  status: ('A' for Active; 'I' for Inactive)
REMARK    1  A    between atoms: C_1  and  C_2
REMARK    2  A    between atoms: C_5  and  C_6
REMARK    3  A    between atoms: C_11  and  C_13
REMARK    4  A    between atoms: C_13  and  O_14
REMARK    5  A    between atoms: O_14  and  C_15
REMARK                            x       y       z     vdW  Elec       q    Type
REMARK                         _______ _______ _______ _____ _____    ______ ____
ROOT
ATOM      1  C   UNL     1       3.679   4.960  19.338  0.00  0.00    +0.000 C 
ATOM      2  S   UNL     1       2.417   3.645  19.512  0.00  0.00    +0.000 S 
ATOM      3  C   UNL     1       2.425   3.246  17.757  0.00  0.00    +0.000 C 
ATOM      4  C   UNL     1       3.768   3.720  17.220  0.00  0.00    +0.000 C 
ATOM      5  N   UNL     1       4.493   4.492  18.223  0.00  0.00    +0.000 N 
ATOM      6  C   UNL     1       5.839   4.812  18.160  0.00  0.00    +0.000 C 
ATOM      7  O   UNL     1       6.405   5.443  19.054  0.00  0.00    +0.000 OA
ENDROOT
BRANCH   1  12
ATOM      8  C   UNL     1       1.109  10.169  18.481  0.00  0.00    +0.000 C 
ATOM      9  C   UNL     1       1.773   8.845  18.714  0.00  0.00    +0.000 A 
ATOM     10  C   UNL     1       1.596   8.143  19.909  0.00  0.00    +0.000 A 
ATOM     11  C   UNL     1       2.220   6.902  20.102  0.00  0.00    +0.000 A 
ATOM     12  C   UNL     1       3.026   6.324  19.103  0.00  0.00    +0.000 A 
ATOM     13  C   UNL     1       3.210   7.057  17.918  0.00  0.00    +0.000 A 
ATOM     14  C   UNL     1       2.590   8.295  17.726  0.00  0.00    +0.000 A 
ENDBRANCH   1  12
BRANCH   6  15
ATOM     15  C   UNL     1       6.599   4.391  16.896  0.00  0.00    +0.000 C 
BRANCH  15  16
ATOM     16  O   UNL     1       6.437   5.368  15.874  0.00  0.00    +0.000 OA
BRANCH  16  17
ATOM     17  C   UNL     1       6.650   4.925  14.595  0.00  0.00    +0.000 A 
ATOM     18  C   UNL     1       5.748   3.967  14.128  0.00  0.00    +0.000 A 
ATOM     19  C   UNL     1       5.848   3.471  12.825  0.00  0.00    +0.000 A 
ATOM     20  C   UNL     1       6.844   3.946  11.975  0.00  0.00    +0.000 A 
ATOM     21  C   UNL     1       7.737   4.916  12.430  0.00  0.00    +0.000 A 
ATOM     22  C   UNL     1       7.640   5.405  13.736  0.00  0.00    +0.000 A 
ENDBRANCH  16  17
ENDBRANCH  15  16
ENDBRANCH   6  15
TORSDOF 4
ENDMDL
MODEL 7
REMARK VINA RESULT:      -7.8      1.141      1.953
REMARK  Name = 
REMARK  5 active torsions:
REMARK  status: ('A' for Active; 'I' for Inactive)
REMARK    1  A    between atoms: C_1  and  C_2
REMARK    2  A    between atoms: C_5  and  C_6
REMARK    3  A    between atoms: C_11  and  C_13
REMARK    4  A    between atoms: C_13  and  O_14
REMARK    5  A    between atoms: O_14  and  C_15
REMARK                            x       y       z     vdW  Elec       q    Type
REMARK                         _______ _______ _______ _____ _____    ______ ____
ROOT
ATOM      1  C   UNL     1       3.126   5.413  19.565  0.00  0.00    +0.000 C 
ATOM      2  S   UNL     1       1.932   4.263  20.342  0.00  0.00    +0.000 S 
ATOM      3  C   UNL     1       1.343   3.626  18.764  0.00  0.00    +0.000 C 
ATOM      4  C   UNL     1       2.455   3.890  17.759  0.00  0.00    +0.000 C 
ATOM      5  N   UNL     1       3.505   4.719  18.340  0.00  0.00    +0.000 N 
ATOM      6  C   UNL     1       4.769   4.896  17.802  0.00  0.00    +0.000 C 
ATOM      7  O   UNL     1       5.626   5.588  18.355  0.00  0.00    +0.000 OA
ENDROOT
BRANCH   1  12
ATOM      8  C   UNL     1       0.647  10.669  18.727  0.00  0.00    +0.000 C 
ATOM      9  C   UNL     1       1.289   9.333  18.954  0.00  0.00    +0.000 A 
ATOM     10  C   UNL     1       1.233   8.701  20.198  0.00  0.00    +0.000 A 
ATOM     11  C   UNL     1       1.834   7.449  20.385  0.00  0.00    +0.000 A 
ATOM     12  C   UNL     1       2.495   6.788  19.332  0.00  0.00    +0.000 A 
ATOM     13  C   UNL     1       2.561   7.451  18.095  0.00  0.00    +0.000 A 
ATOM     14  C   UNL     1       1.964   8.701  17.909  0.00  0.00    +0.000 A 
ENDBRANCH   1  12
BRANCH   6  15
ATOM     15  C   UNL     1       5.050   4.234  16.447  0.00  0.00    +0.000 C 
BRANCH  15  16
ATOM     16  O   UNL     1       6.278   4.712  15.909  0.00  0.00    +0.000 OA
BRANCH  16  17
ATOM     17  C   UNL     1       6.450   4.510  14.565  0.00  0.00    +0.000 A 
ATOM     18  C   UNL     1       7.488   5.233  13.973  0.00  0.00    +0.000 A 
ATOM     19  C   UNL     1       7.778   5.077  12.614  0.00  0.00    +0.000 A 
ATOM     20  C   UNL     1       7.040   4.181  11.844  0.00  0.00    +0.000 A 
ATOM     21  C   UNL     1       6.013   3.444  12.434  0.00  0.00    +0.000 A 
ATOM     22  C   UNL     1       5.720   3.607  13.791  0.00  0.00    +0.000 A 
ENDBRANCH  16  17
ENDBRANCH  15  16
ENDBRANCH   6  15
TORSDOF 4
ENDMDL
MODEL 8
REMARK VINA RESULT:      -7.8      3.227      5.557
REMARK  Name = 
REMARK  5 active torsions:
REMARK  status: ('A' for Active; 'I' for Inactive)
REMARK    1  A    between atoms: C_1  and  C_2
REMARK    2  A    between atoms: C_5  and  C_6
REMARK    3  A    between atoms: C_11  and  C_13
REMARK    4  A    between atoms: C_13  and  O_14
REMARK    5  A    between atoms: O_14  and  C_15
REMARK                            x       y       z     vdW  Elec       q    Type
REMARK                         _______ _______ _______ _____ _____    ______ ____
ROOT
ATOM      1  C   UNL     1       4.399   6.023  17.158  0.00  0.00    +0.000 C 
ATOM      2  S   UNL     1       6.035   6.845  17.125  0.00  0.00    +0.000 S 
ATOM      3  C   UNL     1       6.707   5.813  18.440  0.00  0.00    +0.000 C 
ATOM      4  C   UNL     1       5.871   4.541  18.449  0.00  0.00    +0.000 C 
ATOM      5  N   UNL     1       4.721   4.659  17.560  0.00  0.00    +0.000 N 
ATOM      6  C   UNL     1       3.941   3.601  17.123  0.00  0.00    +0.000 C 
ATOM      7  O   UNL     1       2.997   3.760  16.347  0.00  0.00    +0.000 OA
ENDROOT
BRANCH   1  12
ATOM      8  C   UNL     1       0.691   8.709  20.833  0.00  0.00    +0.000 C 
ATOM      9  C   UNL     1       1.650   8.022  19.908  0.00  0.00    +0.000 A 
ATOM     10  C   UNL     1       2.193   6.774  20.219  0.00  0.00    +0.000 A 
ATOM     11  C   UNL     1       3.081   6.146  19.334  0.00  0.00    +0.000 A 
ATOM     12  C   UNL     1       3.440   6.742  18.110  0.00  0.00    +0.000 A 
ATOM     13  C   UNL     1       2.901   8.009  17.827  0.00  0.00    +0.000 A 
ATOM     14  C   UNL     1       2.018   8.636  18.710  0.00  0.00    +0.000 A 
ENDBRANCH   1  12
BRANCH   6  15
ATOM     15  C   UNL     1       4.266   2.213  17.689  0.00  0.00    +0.000 C 
BRANCH  15  16
ATOM     16  O   UNL     1       3.076   1.566  18.126  0.00  0.00    +0.000 OA
BRANCH  16  17
ATOM     17  C   UNL     1       2.448   2.148  19.196  0.00  0.00    +0.000 A 
ATOM     18  C   UNL     1       3.223   2.290  20.348  0.00  0.00    +0.000 A 
ATOM     19  C   UNL     1       2.695   2.904  21.488  0.00  0.00    +0.000 A 
ATOM     20  C   UNL     1       1.392   3.395  21.473  0.00  0.00    +0.000 A 
ATOM     21  C   UNL     1       0.619   3.272  20.319  0.00  0.00    +0.000 A 
ATOM     22  C   UNL     1       1.146   2.651  19.182  0.00  0.00    +0.000 A 
ENDBRANCH  16  17
ENDBRANCH  15  16
ENDBRANCH   6  15
TORSDOF 4
ENDMDL
MODEL 9
REMARK VINA RESULT:      -7.7      3.233      5.533
REMARK  Name = 
REMARK  5 active torsions:
REMARK  status: ('A' for Active; 'I' for Inactive)
REMARK    1  A    between atoms: C_1  and  C_2
REMARK    2  A    between atoms: C_5  and  C_6
REMARK    3  A    between atoms: C_11  and  C_13
REMARK    4  A    between atoms: C_13  and  O_14
REMARK    5  A    between atoms: O_14  and  C_15
REMARK                            x       y       z     vdW  Elec       q    Type
REMARK                         _______ _______ _______ _____ _____    ______ ____
ROOT
ATOM      1  C   UNL     1       4.330   6.019  17.160  0.00  0.00    +0.000 C 
ATOM      2  S   UNL     1       5.948   6.874  17.082  0.00  0.00    +0.000 S 
ATOM      3  C   UNL     1       6.688   5.831  18.350  0.00  0.00    +0.000 C 
ATOM      4  C   UNL     1       5.878   4.543  18.366  0.00  0.00    +0.000 C 
ATOM      5  N   UNL     1       4.693   4.655  17.523  0.00  0.00    +0.000 N 
ATOM      6  C   UNL     1       3.918   3.590  17.096  0.00  0.00    +0.000 C 
ATOM      7  O   UNL     1       2.942   3.744  16.358  0.00  0.00    +0.000 OA
ENDROOT
BRANCH   1  12
ATOM      8  C   UNL     1       0.712   8.564  21.020  0.00  0.00    +0.000 C 
ATOM      9  C   UNL     1       1.648   7.913  20.046  0.00  0.00    +0.000 A 
ATOM     10  C   UNL     1       2.202   6.656  20.300  0.00  0.00    +0.000 A 
ATOM     11  C   UNL     1       3.069   6.063  19.372  0.00  0.00    +0.000 A 
ATOM     12  C   UNL     1       3.394   6.702  18.160  0.00  0.00    +0.000 A 
ATOM     13  C   UNL     1       2.845   7.976  17.935  0.00  0.00    +0.000 A 
ATOM     14  C   UNL     1       1.983   8.569  18.861  0.00  0.00    +0.000 A 
ENDBRANCH   1  12
BRANCH   6  15
ATOM     15  C   UNL     1       4.290   2.198  17.622  0.00  0.00    +0.000 C 
BRANCH  15  16
ATOM     16  O   UNL     1       3.148   1.560  18.181  0.00  0.00    +0.000 OA
BRANCH  16  17
ATOM     17  C   UNL     1       2.611   2.172  19.283  0.00  0.00    +0.000 A 
ATOM     18  C   UNL     1       1.268   2.537  19.178  0.00  0.00    +0.000 A 
ATOM     19  C   UNL     1       0.607   3.135  20.255  0.00  0.00    +0.000 A 
ATOM     20  C   UNL     1       1.285   3.353  21.452  0.00  0.00    +0.000 A 
ATOM     21  C   UNL     1       2.622   2.974  21.569  0.00  0.00    +0.000 A 
ATOM     22  C   UNL     1       3.283   2.384  20.488  0.00  0.00    +0.000 A 
ENDBRANCH  16  17
ENDBRANCH  15  16
ENDBRANCH   6  15
TORSDOF 4
ENDMDL
