MODEL 1
REMARK VINA RESULT:      -7.9      0.000      0.000
REMARK  Name = 
REMARK  12 active torsions:
REMARK  status: ('A' for Active; 'I' for Inactive)
REMARK    1  A    between atoms: C_1  and  C_2
REMARK    2  A    between atoms: C_5  and  C_6
REMARK    3  A    between atoms: C_7  and  C_8
REMARK    4  A    between atoms: C_11  and  N_12
REMARK    5  A    between atoms: N_12  and  C_20
REMARK    6  A    between atoms: C_13  and  C_15
REMARK    7  A    between atoms: C_20  and  C_21
REMARK    8  A    between atoms: C_20  and  C_28
REMARK    9  A    between atoms: N_23  and  C_24
REMARK   10  A    between atoms: C_24  and  C_25
REMARK   11  A    between atoms: C_24  and  C_26
REMARK   12  A    between atoms: C_24  and  C_27
REMARK                            x       y       z     vdW  Elec       q    Type
REMARK                         _______ _______ _______ _____ _____    ______ ____
ROOT
ATOM      1  N   UNL     1      -0.567  11.244  20.388  0.00  0.00    +0.000 N 
ATOM      2  C   UNL     1      -1.471  11.862  19.491  0.00  0.00    +0.000 C 
ATOM      3  O   UNL     1      -1.832  13.025  19.670  0.00  0.00    +0.000 OA
ENDROOT
BRANCH   1   7
ATOM      4  C   UNL     1       1.832   7.861  19.370  0.00  0.00    +0.000 A 
ATOM      5  C   UNL     1       1.241   7.991  20.633  0.00  0.00    +0.000 A 
ATOM      6  C   UNL     1       0.408   9.068  20.948  0.00  0.00    +0.000 A 
ATOM      7  C   UNL     1       0.204  10.095  20.031  0.00  0.00    +0.000 A 
ATOM      8  C   UNL     1       0.787   9.991  18.765  0.00  0.00    +0.000 A 
ATOM      9  C   UNL     1       1.591   8.882  18.439  0.00  0.00    +0.000 A 
BRANCH   4  16
ATOM     10  C   UNL     1       4.340   7.439  17.138  0.00  0.00    +0.000 C 
ATOM     11  C   UNL     1       3.720   6.497  18.101  0.00  0.00    +0.000 A 
ATOM     12  N   UNL     1       4.195   5.247  18.150  0.00  0.00    +0.000 NA
ATOM     13  O   UNL     1       3.459   4.599  19.110  0.00  0.00    +0.000 OA
ATOM     14  C   UNL     1       2.542   5.448  19.640  0.00  0.00    +0.000 A 
ATOM     15  C   UNL     1       1.669   4.835  20.666  0.00  0.00    +0.000 C 
ATOM     16  C   UNL     1       2.660   6.697  19.046  0.00  0.00    +0.000 A 
ENDBRANCH   4  16
ENDBRANCH   1   7
BRANCH   2  17
ATOM     17  C   UNL     1      -1.973  11.127  18.336  0.00  0.00    +0.000 A 
ATOM     18  C   UNL     1      -2.639   9.914  18.297  0.00  0.00    +0.000 A 
ATOM     19  C   UNL     1      -2.917   9.643  16.939  0.00  0.00    +0.000 A 
ATOM     20  C   UNL     1      -2.395  10.693  16.226  0.00  0.00    +0.000 A 
ATOM     21  O   UNL     1      -1.799  11.586  17.058  0.00  0.00    +0.000 OA
ENDBRANCH   2  17
BRANCH   1  22
ATOM     22  C   UNL     1       0.016  12.072  21.489  0.00  0.00    +0.000 C 
BRANCH  22  23
ATOM     23  C   UNL     1      -1.005  12.719  22.418  0.00  0.00    +0.000 A 
ATOM     24  C   UNL     1      -2.129  12.018  22.870  0.00  0.00    +0.000 A 
ATOM     25  C   UNL     1      -3.065  12.648  23.686  0.00  0.00    +0.000 A 
ATOM     26  C   UNL     1      -2.831  13.959  24.061  0.00  0.00    +0.000 A 
ATOM     27  N   UNL     1      -1.725  14.648  23.713  0.00  0.00    +0.000 NA
ATOM     28  C   UNL     1      -0.836  14.013  22.914  0.00  0.00    +0.000 A 
ENDBRANCH  22  23
BRANCH  22  29
ATOM     29  C   UNL     1       1.073  13.058  20.899  0.00  0.00    +0.000 C 
ATOM     30  O   UNL     1       2.275  12.869  21.092  0.00  0.00    +0.000 OA
ATOM     31  N   UNL     1       0.596  14.134  20.174  0.00  0.00    +0.000 N 
ATOM     32  H   UNL     1      -0.412  14.286  20.202  0.00  0.00    +0.000 HD
BRANCH  31  33
ATOM     33  C   UNL     1       1.419  15.168  19.520  0.00  0.00    +0.000 C 
ATOM     34  C   UNL     1       2.371  14.546  18.486  0.00  0.00    +0.000 C 
ATOM     35  C   UNL     1       0.490  16.144  18.771  0.00  0.00    +0.000 C 
ATOM     36  C   UNL     1       2.214  15.970  20.561  0.00  0.00    +0.000 C 
ENDBRANCH  31  33
ENDBRANCH  22  29
ENDBRANCH   1  22
TORSDOF 7
ENDMDL
MODEL 2
REMARK VINA RESULT:      -7.7      0.356      1.557
REMARK  Name = 
REMARK  12 active torsions:
REMARK  status: ('A' for Active; 'I' for Inactive)
REMARK    1  A    between atoms: C_1  and  C_2
REMARK    2  A    between atoms: C_5  and  C_6
REMARK    3  A    between atoms: C_7  and  C_8
REMARK    4  A    between atoms: C_11  and  N_12
REMARK    5  A    between atoms: N_12  and  C_20
REMARK    6  A    between atoms: C_13  and  C_15
REMARK    7  A    between atoms: C_20  and  C_21
REMARK    8  A    between atoms: C_20  and  C_28
REMARK    9  A    between atoms: N_23  and  C_24
REMARK   10  A    between atoms: C_24  and  C_25
REMARK   11  A    between atoms: C_24  and  C_26
REMARK   12  A    between atoms: C_24  and  C_27
REMARK                            x       y       z     vdW  Elec       q    Type
REMARK                         _______ _______ _______ _____ _____    ______ ____
ROOT
ATOM      1  N   UNL     1      -0.607  11.222  20.449  0.00  0.00    +0.000 N 
ATOM      2  C   UNL     1      -1.505  11.824  19.534  0.00  0.00    +0.000 C 
ATOM      3  O   UNL     1      -1.871  12.988  19.692  0.00  0.00    +0.000 OA
ENDROOT
BRANCH   1   7
ATOM      4  C   UNL     1       1.811   7.831  19.510  0.00  0.00    +0.000 A 
ATOM      5  C   UNL     1       1.158   7.950  20.744  0.00  0.00    +0.000 A 
ATOM      6  C   UNL     1       0.320   9.031  21.030  0.00  0.00    +0.000 A 
ATOM      7  C   UNL     1       0.170  10.071  20.117  0.00  0.00    +0.000 A 
ATOM      8  C   UNL     1       0.816   9.977  18.880  0.00  0.00    +0.000 A 
ATOM      9  C   UNL     1       1.626   8.865  18.581  0.00  0.00    +0.000 A 
BRANCH   4  16
ATOM     10  C   UNL     1       1.994   4.778  20.956  0.00  0.00    +0.000 C 
ATOM     11  C   UNL     1       2.741   5.366  19.819  0.00  0.00    +0.000 A 
ATOM     12  N   UNL     1       3.658   4.605  19.210  0.00  0.00    +0.000 NA
ATOM     13  O   UNL     1       4.188   5.379  18.209  0.00  0.00    +0.000 OA
ATOM     14  C   UNL     1       3.601   6.603  18.209  0.00  0.00    +0.000 A 
ATOM     15  C   UNL     1       4.128   7.531  17.185  0.00  0.00    +0.000 C 
ATOM     16  C   UNL     1       2.645   6.663  19.214  0.00  0.00    +0.000 A 
ENDBRANCH   4  16
ENDBRANCH   1   7
BRANCH   2  17
ATOM     17  C   UNL     1      -1.992  11.071  18.385  0.00  0.00    +0.000 A 
ATOM     18  C   UNL     1      -2.689   9.875  18.360  0.00  0.00    +0.000 A 
ATOM     19  C   UNL     1      -2.936   9.573  17.002  0.00  0.00    +0.000 A 
ATOM     20  C   UNL     1      -2.365  10.589  16.276  0.00  0.00    +0.000 A 
ATOM     21  O   UNL     1      -1.769  11.489  17.102  0.00  0.00    +0.000 OA
ENDBRANCH   2  17
BRANCH   1  22
ATOM     22  C   UNL     1      -0.039  12.069  21.543  0.00  0.00    +0.000 C 
BRANCH  22  23
ATOM     23  C   UNL     1      -1.071  12.719  22.458  0.00  0.00    +0.000 A 
ATOM     24  C   UNL     1      -2.190  12.014  22.914  0.00  0.00    +0.000 A 
ATOM     25  C   UNL     1      -3.136  12.647  23.716  0.00  0.00    +0.000 A 
ATOM     26  C   UNL     1      -2.917  13.965  24.073  0.00  0.00    +0.000 A 
ATOM     27  N   UNL     1      -1.816  14.660  23.721  0.00  0.00    +0.000 NA
ATOM     28  C   UNL     1      -0.916  14.022  22.935  0.00  0.00    +0.000 A 
ENDBRANCH  22  23
BRANCH  22  29
ATOM     29  C   UNL     1       1.015  13.056  20.948  0.00  0.00    +0.000 C 
ATOM     30  O   UNL     1       2.215  12.893  21.172  0.00  0.00    +0.000 OA
ATOM     31  N   UNL     1       0.536  14.103  20.183  0.00  0.00    +0.000 N 
ATOM     32  H   UNL     1      -0.475  14.238  20.186  0.00  0.00    +0.000 HD
BRANCH  31  33
ATOM     33  C   UNL     1       1.355  15.132  19.517  0.00  0.00    +0.000 C 
ATOM     34  C   UNL     1       2.238  15.878  20.532  0.00  0.00    +0.000 C 
ATOM     35  C   UNL     1       2.290  14.445  18.502  0.00  0.00    +0.000 C 
ATOM     36  C   UNL     1       0.467  16.125  18.754  0.00  0.00    +0.000 C 
ENDBRANCH  31  33
ENDBRANCH  22  29
ENDBRANCH   1  22
TORSDOF 7
ENDMDL
MODEL 3
REMARK VINA RESULT:      -7.7      0.118      1.098
REMARK  Name = 
REMARK  12 active torsions:
REMARK  status: ('A' for Active; 'I' for Inactive)
REMARK    1  A    between atoms: C_1  and  C_2
REMARK    2  A    between atoms: C_5  and  C_6
REMARK    3  A    between atoms: C_7  and  C_8
REMARK    4  A    between atoms: C_11  and  N_12
REMARK    5  A    between atoms: N_12  and  C_20
REMARK    6  A    between atoms: C_13  and  C_15
REMARK    7  A    between atoms: C_20  and  C_21
REMARK    8  A    between atoms: C_20  and  C_28
REMARK    9  A    between atoms: N_23  and  C_24
REMARK   10  A    between atoms: C_24  and  C_25
REMARK   11  A    between atoms: C_24  and  C_26
REMARK   12  A    between atoms: C_24  and  C_27
REMARK                            x       y       z     vdW  Elec       q    Type
REMARK                         _______ _______ _______ _____ _____    ______ ____
ROOT
ATOM      1  N   UNL     1      -0.532  11.291  20.454  0.00  0.00    +0.000 N 
ATOM      2  C   UNL     1      -1.455  11.867  19.548  0.00  0.00    +0.000 C 
ATOM      3  O   UNL     1      -1.851  13.022  19.710  0.00  0.00    +0.000 OA
ENDROOT
BRANCH   1   7
ATOM      4  C   UNL     1       1.777   7.861  19.389  0.00  0.00    +0.000 A 
ATOM      5  C   UNL     1       1.544   8.901  18.481  0.00  0.00    +0.000 A 
ATOM      6  C   UNL     1       0.838  10.051  18.845  0.00  0.00    +0.000 A 
ATOM      7  C   UNL     1       0.273  10.160  20.113  0.00  0.00    +0.000 A 
ATOM      8  C   UNL     1       0.488   9.133  21.036  0.00  0.00    +0.000 A 
ATOM      9  C   UNL     1       1.236   7.995  20.675  0.00  0.00    +0.000 A 
BRANCH   4  16
ATOM     10  C   UNL     1       4.285   7.484  17.149  0.00  0.00    +0.000 C 
ATOM     11  C   UNL     1       3.623   6.508  18.048  0.00  0.00    +0.000 A 
ATOM     12  N   UNL     1       4.051   5.241  18.022  0.00  0.00    +0.000 NA
ATOM     13  O   UNL     1       3.284   4.562  18.935  0.00  0.00    +0.000 OA
ATOM     14  C   UNL     1       2.394   5.410  19.512  0.00  0.00    +0.000 A 
ATOM     15  C   UNL     1       1.492   4.768  20.493  0.00  0.00    +0.000 C 
ATOM     16  C   UNL     1       2.564   6.688  18.998  0.00  0.00    +0.000 A 
ENDBRANCH   4  16
ENDBRANCH   1   7
BRANCH   2  17
ATOM     17  C   UNL     1      -1.934  11.101  18.405  0.00  0.00    +0.000 A 
ATOM     18  C   UNL     1      -2.586   9.880  18.386  0.00  0.00    +0.000 A 
ATOM     19  C   UNL     1      -2.845   9.574  17.032  0.00  0.00    +0.000 A 
ATOM     20  C   UNL     1      -2.326  10.613  16.300  0.00  0.00    +0.000 A 
ATOM     21  O   UNL     1      -1.750  11.532  17.119  0.00  0.00    +0.000 OA
ENDBRANCH   2  17
BRANCH   1  22
ATOM     22  C   UNL     1       0.025  12.153  21.542  0.00  0.00    +0.000 C 
BRANCH  22  23
ATOM     23  C   UNL     1      -1.015  12.789  22.457  0.00  0.00    +0.000 A 
ATOM     24  C   UNL     1      -2.119  12.066  22.922  0.00  0.00    +0.000 A 
ATOM     25  C   UNL     1      -3.074  12.686  23.724  0.00  0.00    +0.000 A 
ATOM     26  C   UNL     1      -2.877  14.010  24.072  0.00  0.00    +0.000 A 
ATOM     27  N   UNL     1      -1.791  14.723  23.711  0.00  0.00    +0.000 NA
ATOM     28  C   UNL     1      -0.883  14.097  22.926  0.00  0.00    +0.000 A 
ENDBRANCH  22  23
BRANCH  22  29
ATOM     29  C   UNL     1       1.059  13.155  20.938  0.00  0.00    +0.000 C 
ATOM     30  O   UNL     1       2.262  13.023  21.169  0.00  0.00    +0.000 OA
ATOM     31  N   UNL     1       0.560  14.181  20.157  0.00  0.00    +0.000 N 
ATOM     32  H   UNL     1      -0.454  14.294  20.154  0.00  0.00    +0.000 HD
BRANCH  31  33
ATOM     33  C   UNL     1       1.359  15.220  19.481  0.00  0.00    +0.000 C 
ATOM     34  C   UNL     1       2.217  16.001  20.489  0.00  0.00    +0.000 C 
ATOM     35  C   UNL     1       2.316  14.541  18.481  0.00  0.00    +0.000 C 
ATOM     36  C   UNL     1       0.452  16.180  18.697  0.00  0.00    +0.000 C 
ENDBRANCH  31  33
ENDBRANCH  22  29
ENDBRANCH   1  22
TORSDOF 7
ENDMDL
MODEL 4
REMARK VINA RESULT:      -7.7      0.481      1.091
REMARK  Name = 
REMARK  12 active torsions:
REMARK  status: ('A' for Active; 'I' for Inactive)
REMARK    1  A    between atoms: C_1  and  C_2
REMARK    2  A    between atoms: C_5  and  C_6
REMARK    3  A    between atoms: C_7  and  C_8
REMARK    4  A    between atoms: C_11  and  N_12
REMARK    5  A    between atoms: N_12  and  C_20
REMARK    6  A    between atoms: C_13  and  C_15
REMARK    7  A    between atoms: C_20  and  C_21
REMARK    8  A    between atoms: C_20  and  C_28
REMARK    9  A    between atoms: N_23  and  C_24
REMARK   10  A    between atoms: C_24  and  C_25
REMARK   11  A    between atoms: C_24  and  C_26
REMARK   12  A    between atoms: C_24  and  C_27
REMARK                            x       y       z     vdW  Elec       q    Type
REMARK                         _______ _______ _______ _____ _____    ______ ____
ROOT
ATOM      1  N   UNL     1      -0.594  11.229  20.425  0.00  0.00    +0.000 N 
ATOM      2  C   UNL     1      -1.505  11.842  19.531  0.00  0.00    +0.000 C 
ATOM      3  O   UNL     1      -1.876  13.002  19.714  0.00  0.00    +0.000 OA
ENDROOT
BRANCH   1   7
ATOM      4  C   UNL     1       1.832   7.869  19.398  0.00  0.00    +0.000 A 
ATOM      5  C   UNL     1       1.186   7.959  20.637  0.00  0.00    +0.000 A 
ATOM      6  C   UNL     1       0.345   9.029  20.952  0.00  0.00    +0.000 A 
ATOM      7  C   UNL     1       0.187  10.089  20.063  0.00  0.00    +0.000 A 
ATOM      8  C   UNL     1       0.825  10.025  18.821  0.00  0.00    +0.000 A 
ATOM      9  C   UNL     1       1.638   8.923  18.493  0.00  0.00    +0.000 A 
BRANCH   4  16
ATOM     10  C   UNL     1       4.300   7.451  17.122  0.00  0.00    +0.000 C 
ATOM     11  C   UNL     1       3.712   6.513  18.108  0.00  0.00    +0.000 A 
ATOM     12  N   UNL     1       4.204   5.271  18.162  0.00  0.00    +0.000 NA
ATOM     13  O   UNL     1       3.496   4.625  19.144  0.00  0.00    +0.000 OA
ATOM     14  C   UNL     1       2.578   5.468  19.682  0.00  0.00    +0.000 A 
ATOM     15  C   UNL     1       1.734   4.857  20.733  0.00  0.00    +0.000 C 
ATOM     16  C   UNL     1       2.669   6.711  19.072  0.00  0.00    +0.000 A 
ENDBRANCH   4  16
ENDBRANCH   1   7
BRANCH   2  17
ATOM     17  C   UNL     1      -2.002  11.107  18.375  0.00  0.00    +0.000 A 
ATOM     18  C   UNL     1      -2.689   9.906  18.335  0.00  0.00    +0.000 A 
ATOM     19  C   UNL     1      -2.951   9.628  16.976  0.00  0.00    +0.000 A 
ATOM     20  C   UNL     1      -2.398  10.663  16.262  0.00  0.00    +0.000 A 
ATOM     21  O   UNL     1      -1.799  11.552  17.096  0.00  0.00    +0.000 OA
ENDBRANCH   2  17
BRANCH   1  22
ATOM     22  C   UNL     1      -0.017  12.059  21.528  0.00  0.00    +0.000 C 
BRANCH  22  23
ATOM     23  C   UNL     1      -1.043  12.708  22.451  0.00  0.00    +0.000 A 
ATOM     24  C   UNL     1      -0.912  14.038  22.868  0.00  0.00    +0.000 A 
ATOM     25  C   UNL     1      -1.844  14.590  23.744  0.00  0.00    +0.000 A 
ATOM     26  C   UNL     1      -2.907  13.805  24.150  0.00  0.00    +0.000 A 
ATOM     27  N   UNL     1      -3.115  12.546  23.714  0.00  0.00    +0.000 NA
ATOM     28  C   UNL     1      -2.190  12.032  22.869  0.00  0.00    +0.000 A 
ENDBRANCH  22  23
BRANCH  22  29
ATOM     29  C   UNL     1       1.044  13.045  20.942  0.00  0.00    +0.000 C 
ATOM     30  O   UNL     1       2.240  12.886  21.184  0.00  0.00    +0.000 OA
ATOM     31  N   UNL     1       0.574  14.086  20.163  0.00  0.00    +0.000 N 
ATOM     32  H   UNL     1      -0.437  14.220  20.151  0.00  0.00    +0.000 HD
BRANCH  31  33
ATOM     33  C   UNL     1       1.401  15.113  19.504  0.00  0.00    +0.000 C 
ATOM     34  C   UNL     1       2.280  15.855  20.524  0.00  0.00    +0.000 C 
ATOM     35  C   UNL     1       2.340  14.423  18.494  0.00  0.00    +0.000 C 
ATOM     36  C   UNL     1       0.521  16.109  18.735  0.00  0.00    +0.000 C 
ENDBRANCH  31  33
ENDBRANCH  22  29
ENDBRANCH   1  22
TORSDOF 7
ENDMDL
MODEL 5
REMARK VINA RESULT:      -7.6      0.452      1.621
REMARK  Name = 
REMARK  12 active torsions:
REMARK  status: ('A' for Active; 'I' for Inactive)
REMARK    1  A    between atoms: C_1  and  C_2
REMARK    2  A    between atoms: C_5  and  C_6
REMARK    3  A    between atoms: C_7  and  C_8
REMARK    4  A    between atoms: C_11  and  N_12
REMARK    5  A    between atoms: N_12  and  C_20
REMARK    6  A    between atoms: C_13  and  C_15
REMARK    7  A    between atoms: C_20  and  C_21
REMARK    8  A    between atoms: C_20  and  C_28
REMARK    9  A    between atoms: N_23  and  C_24
REMARK   10  A    between atoms: C_24  and  C_25
REMARK   11  A    between atoms: C_24  and  C_26
REMARK   12  A    between atoms: C_24  and  C_27
REMARK                            x       y       z     vdW  Elec       q    Type
REMARK                         _______ _______ _______ _____ _____    ______ ____
ROOT
ATOM      1  N   UNL     1      -0.635  11.329  20.578  0.00  0.00    +0.000 N 
ATOM      2  C   UNL     1      -1.528  11.904  19.643  0.00  0.00    +0.000 C 
ATOM      3  O   UNL     1      -1.929  13.059  19.789  0.00  0.00    +0.000 OA
ENDROOT
BRANCH   1   7
ATOM      4  C   UNL     1       1.710   7.900  19.588  0.00  0.00    +0.000 A 
ATOM      5  C   UNL     1       1.562   8.973  18.699  0.00  0.00    +0.000 A 
ATOM      6  C   UNL     1       0.844  10.120  19.044  0.00  0.00    +0.000 A 
ATOM      7  C   UNL     1       0.181  10.198  20.266  0.00  0.00    +0.000 A 
ATOM      8  C   UNL     1       0.309   9.139  21.168  0.00  0.00    +0.000 A 
ATOM      9  C   UNL     1       1.069   8.002  20.831  0.00  0.00    +0.000 A 
BRANCH   4  16
ATOM     10  C   UNL     1       1.831   4.773  20.872  0.00  0.00    +0.000 C 
ATOM     11  C   UNL     1       2.581   5.401  19.758  0.00  0.00    +0.000 A 
ATOM     12  N   UNL     1       3.472   4.650  19.100  0.00  0.00    +0.000 NA
ATOM     13  O   UNL     1       4.011   5.462  18.134  0.00  0.00    +0.000 OA
ATOM     14  C   UNL     1       3.455   6.698  18.205  0.00  0.00    +0.000 A 
ATOM     15  C   UNL     1       3.994   7.665  17.223  0.00  0.00    +0.000 C 
ATOM     16  C   UNL     1       2.511   6.729  19.222  0.00  0.00    +0.000 A 
ENDBRANCH   4  16
ENDBRANCH   1   7
BRANCH   2  17
ATOM     17  C   UNL     1      -1.970  11.135  18.485  0.00  0.00    +0.000 A 
ATOM     18  C   UNL     1      -2.620   9.913  18.448  0.00  0.00    +0.000 A 
ATOM     19  C   UNL     1      -2.835   9.606  17.087  0.00  0.00    +0.000 A 
ATOM     20  C   UNL     1      -2.295  10.645  16.370  0.00  0.00    +0.000 A 
ATOM     21  O   UNL     1      -1.746  11.565  17.206  0.00  0.00    +0.000 OA
ENDBRANCH   2  17
BRANCH   1  22
ATOM     22  C   UNL     1      -0.113  12.193  21.682  0.00  0.00    +0.000 C 
BRANCH  22  23
ATOM     23  C   UNL     1      -1.179  12.778  22.602  0.00  0.00    +0.000 A 
ATOM     24  C   UNL     1      -2.312  12.042  22.968  0.00  0.00    +0.000 A 
ATOM     25  C   UNL     1      -3.288  12.617  23.777  0.00  0.00    +0.000 A 
ATOM     26  C   UNL     1      -3.085  13.908  24.232  0.00  0.00    +0.000 A 
ATOM     27  N   UNL     1      -1.975  14.626  23.968  0.00  0.00    +0.000 NA
ATOM     28  C   UNL     1      -1.046  14.044  23.174  0.00  0.00    +0.000 A 
ENDBRANCH  22  23
BRANCH  22  29
ATOM     29  C   UNL     1       0.888  13.240  21.099  0.00  0.00    +0.000 C 
ATOM     30  O   UNL     1       2.102  13.064  21.202  0.00  0.00    +0.000 OA
ATOM     31  N   UNL     1       0.347  14.354  20.485  0.00  0.00    +0.000 N 
ATOM     32  H   UNL     1      -0.660  14.482  20.587  0.00  0.00    +0.000 HD
BRANCH  31  33
ATOM     33  C   UNL     1       1.108  15.449  19.856  0.00  0.00    +0.000 C 
ATOM     34  C   UNL     1       2.051  14.913  18.767  0.00  0.00    +0.000 C 
ATOM     35  C   UNL     1       0.118  16.419  19.179  0.00  0.00    +0.000 C 
ATOM     36  C   UNL     1       1.902  16.235  20.909  0.00  0.00    +0.000 C 
ENDBRANCH  31  33
ENDBRANCH  22  29
ENDBRANCH   1  22
TORSDOF 7
ENDMDL
MODEL 6
REMARK VINA RESULT:      -7.6      1.292      2.139
REMARK  Name = 
REMARK  12 active torsions:
REMARK  status: ('A' for Active; 'I' for Inactive)
REMARK    1  A    between atoms: C_1  and  C_2
REMARK    2  A    between atoms: C_5  and  C_6
REMARK    3  A    between atoms: C_7  and  C_8
REMARK    4  A    between atoms: C_11  and  N_12
REMARK    5  A    between atoms: N_12  and  C_20
REMARK    6  A    between atoms: C_13  and  C_15
REMARK    7  A    between atoms: C_20  and  C_21
REMARK    8  A    between atoms: C_20  and  C_28
REMARK    9  A    between atoms: N_23  and  C_24
REMARK   10  A    between atoms: C_24  and  C_25
REMARK   11  A    between atoms: C_24  and  C_26
REMARK   12  A    between atoms: C_24  and  C_27
REMARK                            x       y       z     vdW  Elec       q    Type
REMARK                         _______ _______ _______ _____ _____    ______ ____
ROOT
ATOM      1  N   UNL     1       0.176  11.525  19.750  0.00  0.00    +0.000 N 
ATOM      2  C   UNL     1      -0.851  12.076  18.947  0.00  0.00    +0.000 C 
ATOM      3  O   UNL     1      -1.079  13.285  18.966  0.00  0.00    +0.000 OA
ENDROOT
BRANCH   1   7
ATOM      4  C   UNL     1       2.045   7.766  18.969  0.00  0.00    +0.000 A 
ATOM      5  C   UNL     1       1.571   8.102  20.244  0.00  0.00    +0.000 A 
ATOM      6  C   UNL     1       0.908   9.306  20.488  0.00  0.00    +0.000 A 
ATOM      7  C   UNL     1       0.766  10.253  19.476  0.00  0.00    +0.000 A 
ATOM      8  C   UNL     1       1.235   9.943  18.197  0.00  0.00    +0.000 A 
ATOM      9  C   UNL     1       1.866   8.709  17.947  0.00  0.00    +0.000 A 
BRANCH   4  16
ATOM     10  C   UNL     1       1.418   4.675  20.194  0.00  0.00    +0.000 C 
ATOM     11  C   UNL     1       2.446   5.158  19.241  0.00  0.00    +0.000 A 
ATOM     12  N   UNL     1       3.302   4.263  18.735  0.00  0.00    +0.000 NA
ATOM     13  O   UNL     1       4.130   4.964  17.894  0.00  0.00    +0.000 OA
ATOM     14  C   UNL     1       3.782   6.276  17.890  0.00  0.00    +0.000 A 
ATOM     15  C   UNL     1       4.638   7.129  17.037  0.00  0.00    +0.000 C 
ATOM     16  C   UNL     1       2.692   6.474  18.727  0.00  0.00    +0.000 A 
ENDBRANCH   4  16
ENDBRANCH   1   7
BRANCH   2  17
ATOM     17  C   UNL     1      -1.640  11.213  18.076  0.00  0.00    +0.000 A 
ATOM     18  C   UNL     1      -2.357  10.073  18.396  0.00  0.00    +0.000 A 
ATOM     19  C   UNL     1      -2.953   9.614  17.201  0.00  0.00    +0.000 A 
ATOM     20  C   UNL     1      -2.557  10.487  16.218  0.00  0.00    +0.000 A 
ATOM     21  O   UNL     1      -1.742  11.445  16.731  0.00  0.00    +0.000 OA
ENDBRANCH   2  17
BRANCH   1  22
ATOM     22  C   UNL     1       1.040  12.461  20.535  0.00  0.00    +0.000 C 
BRANCH  22  23
ATOM     23  C   UNL     1       0.317  13.242  21.627  0.00  0.00    +0.000 A 
ATOM     24  C   UNL     1      -0.703  12.661  22.388  0.00  0.00    +0.000 A 
ATOM     25  C   UNL     1      -1.372  13.412  23.351  0.00  0.00    +0.000 A 
ATOM     26  C   UNL     1      -0.974  14.721  23.554  0.00  0.00    +0.000 A 
ATOM     27  N   UNL     1       0.053  15.299  22.899  0.00  0.00    +0.000 NA
ATOM     28  C   UNL     1       0.681  14.547  21.963  0.00  0.00    +0.000 A 
ENDBRANCH  22  23
BRANCH  22  29
ATOM     29  C   UNL     1       1.883  13.339  19.557  0.00  0.00    +0.000 C 
ATOM     30  O   UNL     1       1.588  13.399  18.364  0.00  0.00    +0.000 OA
ATOM     31  N   UNL     1       2.960  14.021  20.092  0.00  0.00    +0.000 N 
ATOM     32  H   UNL     1       3.213  13.784  21.052  0.00  0.00    +0.000 HD
BRANCH  31  33
ATOM     33  C   UNL     1       3.872  14.913  19.354  0.00  0.00    +0.000 C 
ATOM     34  C   UNL     1       3.168  16.225  18.968  0.00  0.00    +0.000 C 
ATOM     35  C   UNL     1       5.063  15.273  20.263  0.00  0.00    +0.000 C 
ATOM     36  C   UNL     1       4.420  14.216  18.100  0.00  0.00    +0.000 C 
ENDBRANCH  31  33
ENDBRANCH  22  29
ENDBRANCH   1  22
TORSDOF 7
ENDMDL
MODEL 7
REMARK VINA RESULT:      -7.6      0.849      1.154
REMARK  Name = 
REMARK  12 active torsions:
REMARK  status: ('A' for Active; 'I' for Inactive)
REMARK    1  A    between atoms: C_1  and  C_2
REMARK    2  A    between atoms: C_5  and  C_6
REMARK    3  A    between atoms: C_7  and  C_8
REMARK    4  A    between atoms: C_11  and  N_12
REMARK    5  A    between atoms: N_12  and  C_20
REMARK    6  A    between atoms: C_13  and  C_15
REMARK    7  A    between atoms: C_20  and  C_21
REMARK    8  A    between atoms: C_20  and  C_28
REMARK    9  A    between atoms: N_23  and  C_24
REMARK   10  A    between atoms: C_24  and  C_25
REMARK   11  A    between atoms: C_24  and  C_26
REMARK   12  A    between atoms: C_24  and  C_27
REMARK                            x       y       z     vdW  Elec       q    Type
REMARK                         _______ _______ _______ _____ _____    ______ ____
ROOT
ATOM      1  N   UNL     1      -0.007  11.593  19.962  0.00  0.00    +0.000 N 
ATOM      2  C   UNL     1      -0.980  12.158  19.103  0.00  0.00    +0.000 C 
ATOM      3  O   UNL     1      -1.235  13.361  19.154  0.00  0.00    +0.000 OA
ENDROOT
BRANCH   1   7
ATOM      4  C   UNL     1       2.002   7.908  19.174  0.00  0.00    +0.000 A 
ATOM      5  C   UNL     1       1.464   8.198  20.434  0.00  0.00    +0.000 A 
ATOM      6  C   UNL     1       0.756   9.378  20.678  0.00  0.00    +0.000 A 
ATOM      7  C   UNL     1       0.631  10.345  19.684  0.00  0.00    +0.000 A 
ATOM      8  C   UNL     1       1.163  10.081  18.419  0.00  0.00    +0.000 A 
ATOM      9  C   UNL     1       1.840   8.871  18.168  0.00  0.00    +0.000 A 
BRANCH   4  16
ATOM     10  C   UNL     1       4.558   7.111  17.105  0.00  0.00    +0.000 C 
ATOM     11  C   UNL     1       3.774   6.284  18.054  0.00  0.00    +0.000 A 
ATOM     12  N   UNL     1       4.088   4.988  18.162  0.00  0.00    +0.000 NA
ATOM     13  O   UNL     1       3.226   4.466  19.093  0.00  0.00    +0.000 OA
ATOM     14  C   UNL     1       2.392   5.436  19.547  0.00  0.00    +0.000 A 
ATOM     15  C   UNL     1       1.395   4.968  20.535  0.00  0.00    +0.000 C 
ATOM     16  C   UNL     1       2.696   6.642  18.929  0.00  0.00    +0.000 A 
ENDBRANCH   4  16
ENDBRANCH   1   7
BRANCH   2  17
ATOM     17  C   UNL     1      -1.679  11.318  18.137  0.00  0.00    +0.000 A 
ATOM     18  C   UNL     1      -2.325  10.111  18.339  0.00  0.00    +0.000 A 
ATOM     19  C   UNL     1      -2.848   9.712  17.090  0.00  0.00    +0.000 A 
ATOM     20  C   UNL     1      -2.481  10.686  16.194  0.00  0.00    +0.000 A 
ATOM     21  O   UNL     1      -1.752  11.651  16.812  0.00  0.00    +0.000 OA
ENDBRANCH   2  17
BRANCH   1  22
ATOM     22  C   UNL     1       0.771  12.510  20.851  0.00  0.00    +0.000 C 
BRANCH  22  23
ATOM     23  C   UNL     1      -0.050  13.218  21.924  0.00  0.00    +0.000 A 
ATOM     24  C   UNL     1       0.161  14.567  22.233  0.00  0.00    +0.000 A 
ATOM     25  C   UNL     1      -0.576  15.176  23.245  0.00  0.00    +0.000 A 
ATOM     26  C   UNL     1      -1.537  14.425  23.898  0.00  0.00    +0.000 A 
ATOM     27  N   UNL     1      -1.827  13.147  23.582  0.00  0.00    +0.000 NA
ATOM     28  C   UNL     1      -1.090  12.578  22.599  0.00  0.00    +0.000 A 
ENDBRANCH  22  23
BRANCH  22  29
ATOM     29  C   UNL     1       1.656  13.457  19.980  0.00  0.00    +0.000 C 
ATOM     30  O   UNL     1       2.723  13.056  19.514  0.00  0.00    +0.000 OA
ATOM     31  N   UNL     1       1.191  14.743  19.775  0.00  0.00    +0.000 N 
ATOM     32  H   UNL     1       0.381  15.023  20.328  0.00  0.00    +0.000 HD
BRANCH  31  33
ATOM     33  C   UNL     1       1.858  15.786  18.975  0.00  0.00    +0.000 C 
ATOM     34  C   UNL     1       2.610  15.172  17.783  0.00  0.00    +0.000 C 
ATOM     35  C   UNL     1       0.788  16.741  18.410  0.00  0.00    +0.000 C 
ATOM     36  C   UNL     1       2.821  16.607  19.846  0.00  0.00    +0.000 C 
ENDBRANCH  31  33
ENDBRANCH  22  29
ENDBRANCH   1  22
TORSDOF 7
ENDMDL
MODEL 8
REMARK VINA RESULT:      -7.5      1.263      1.802
REMARK  Name = 
REMARK  12 active torsions:
REMARK  status: ('A' for Active; 'I' for Inactive)
REMARK    1  A    between atoms: C_1  and  C_2
REMARK    2  A    between atoms: C_5  and  C_6
REMARK    3  A    between atoms: C_7  and  C_8
REMARK    4  A    between atoms: C_11  and  N_12
REMARK    5  A    between atoms: N_12  and  C_20
REMARK    6  A    between atoms: C_13  and  C_15
REMARK    7  A    between atoms: C_20  and  C_21
REMARK    8  A    between atoms: C_20  and  C_28
REMARK    9  A    between atoms: N_23  and  C_24
REMARK   10  A    between atoms: C_24  and  C_25
REMARK   11  A    between atoms: C_24  and  C_26
REMARK   12  A    between atoms: C_24  and  C_27
REMARK                            x       y       z     vdW  Elec       q    Type
REMARK                         _______ _______ _______ _____ _____    ______ ____
ROOT
ATOM      1  N   UNL     1       0.145  11.568  19.766  0.00  0.00    +0.000 N 
ATOM      2  C   UNL     1      -0.885  12.099  18.954  0.00  0.00    +0.000 C 
ATOM      3  O   UNL     1      -1.136  13.304  18.971  0.00  0.00    +0.000 OA
ENDROOT
BRANCH   1   7
ATOM      4  C   UNL     1       2.094   7.846  19.004  0.00  0.00    +0.000 A 
ATOM      5  C   UNL     1       1.579   8.162  20.267  0.00  0.00    +0.000 A 
ATOM      6  C   UNL     1       0.890   9.354  20.504  0.00  0.00    +0.000 A 
ATOM      7  C   UNL     1       0.762  10.308  19.498  0.00  0.00    +0.000 A 
ATOM      8  C   UNL     1       1.271  10.018  18.229  0.00  0.00    +0.000 A 
ATOM      9  C   UNL     1       1.928   8.796  17.986  0.00  0.00    +0.000 A 
BRANCH   4  16
ATOM     10  C   UNL     1       4.601   6.983  16.903  0.00  0.00    +0.000 C 
ATOM     11  C   UNL     1       3.825   6.181  17.879  0.00  0.00    +0.000 A 
ATOM     12  N   UNL     1       4.125   4.883  18.003  0.00  0.00    +0.000 NA
ATOM     13  O   UNL     1       3.273   4.388  18.958  0.00  0.00    +0.000 OA
ATOM     14  C   UNL     1       2.459   5.376  19.410  0.00  0.00    +0.000 A 
ATOM     15  C   UNL     1       1.475   4.937  20.424  0.00  0.00    +0.000 C 
ATOM     16  C   UNL     1       2.768   6.567  18.768  0.00  0.00    +0.000 A 
ENDBRANCH   4  16
ENDBRANCH   1   7
BRANCH   2  17
ATOM     17  C   UNL     1      -1.648  11.223  18.074  0.00  0.00    +0.000 A 
ATOM     18  C   UNL     1      -2.318  10.050  18.380  0.00  0.00    +0.000 A 
ATOM     19  C   UNL     1      -2.907   9.589  17.183  0.00  0.00    +0.000 A 
ATOM     20  C   UNL     1      -2.554  10.494  16.212  0.00  0.00    +0.000 A 
ATOM     21  O   UNL     1      -1.771  11.474  16.735  0.00  0.00    +0.000 OA
ENDBRANCH   2  17
BRANCH   1  22
ATOM     22  C   UNL     1       0.982  12.520  20.561  0.00  0.00    +0.000 C 
BRANCH  22  23
ATOM     23  C   UNL     1       0.228  13.310  21.624  0.00  0.00    +0.000 A 
ATOM     24  C   UNL     1       0.383  14.696  21.752  0.00  0.00    +0.000 A 
ATOM     25  C   UNL     1      -0.289  15.384  22.758  0.00  0.00    +0.000 A 
ATOM     26  C   UNL     1      -1.133  14.671  23.591  0.00  0.00    +0.000 A 
ATOM     27  N   UNL     1      -1.371  13.350  23.456  0.00  0.00    +0.000 NA
ATOM     28  C   UNL     1      -0.699  12.705  22.474  0.00  0.00    +0.000 A 
ENDBRANCH  22  23
BRANCH  22  29
ATOM     29  C   UNL     1       1.844  13.392  19.593  0.00  0.00    +0.000 C 
ATOM     30  O   UNL     1       1.538  13.488  18.404  0.00  0.00    +0.000 OA
ATOM     31  N   UNL     1       2.949  14.025  20.131  0.00  0.00    +0.000 N 
ATOM     32  H   UNL     1       3.204  13.759  21.082  0.00  0.00    +0.000 HD
BRANCH  31  33
ATOM     33  C   UNL     1       3.881  14.904  19.402  0.00  0.00    +0.000 C 
ATOM     34  C   UNL     1       3.206  16.231  19.019  0.00  0.00    +0.000 C 
ATOM     35  C   UNL     1       5.075  15.235  20.319  0.00  0.00    +0.000 C 
ATOM     36  C   UNL     1       4.423  14.202  18.148  0.00  0.00    +0.000 C 
ENDBRANCH  31  33
ENDBRANCH  22  29
ENDBRANCH   1  22
TORSDOF 7
ENDMDL
MODEL 9
REMARK VINA RESULT:      -7.5      1.246      1.407
REMARK  Name = 
REMARK  12 active torsions:
REMARK  status: ('A' for Active; 'I' for Inactive)
REMARK    1  A    between atoms: C_1  and  C_2
REMARK    2  A    between atoms: C_5  and  C_6
REMARK    3  A    between atoms: C_7  and  C_8
REMARK    4  A    between atoms: C_11  and  N_12
REMARK    5  A    between atoms: N_12  and  C_20
REMARK    6  A    between atoms: C_13  and  C_15
REMARK    7  A    between atoms: C_20  and  C_21
REMARK    8  A    between atoms: C_20  and  C_28
REMARK    9  A    between atoms: N_23  and  C_24
REMARK   10  A    between atoms: C_24  and  C_25
REMARK   11  A    between atoms: C_24  and  C_26
REMARK   12  A    between atoms: C_24  and  C_27
REMARK                            x       y       z     vdW  Elec       q    Type
REMARK                         _______ _______ _______ _____ _____    ______ ____
ROOT
ATOM      1  N   UNL     1       0.200  11.469  19.710  0.00  0.00    +0.000 N 
ATOM      2  C   UNL     1      -0.846  12.007  18.923  0.00  0.00    +0.000 C 
ATOM      3  O   UNL     1      -1.091  13.213  18.947  0.00  0.00    +0.000 OA
ENDROOT
BRANCH   1   7
ATOM      4  C   UNL     1       2.110   7.739  18.894  0.00  0.00    +0.000 A 
ATOM      5  C   UNL     1       1.669   8.074  20.180  0.00  0.00    +0.000 A 
ATOM      6  C   UNL     1       0.992   9.269  20.438  0.00  0.00    +0.000 A 
ATOM      7  C   UNL     1       0.804  10.206  19.426  0.00  0.00    +0.000 A 
ATOM      8  C   UNL     1       1.239   9.897  18.134  0.00  0.00    +0.000 A 
ATOM      9  C   UNL     1       1.884   8.673  17.873  0.00  0.00    +0.000 A 
BRANCH   4  16
ATOM     10  C   UNL     1       4.671   6.902  16.847  0.00  0.00    +0.000 C 
ATOM     11  C   UNL     1       3.852   6.083  17.772  0.00  0.00    +0.000 A 
ATOM     12  N   UNL     1       4.129   4.777  17.865  0.00  0.00    +0.000 NA
ATOM     13  O   UNL     1       3.240   4.266  18.777  0.00  0.00    +0.000 OA
ATOM     14  C   UNL     1       2.427   5.252  19.234  0.00  0.00    +0.000 A 
ATOM     15  C   UNL     1       1.404   4.797  20.202  0.00  0.00    +0.000 C 
ATOM     16  C   UNL     1       2.773   6.457  18.639  0.00  0.00    +0.000 A 
ENDBRANCH   4  16
ENDBRANCH   1   7
BRANCH   2  17
ATOM     17  C   UNL     1      -1.636  11.135  18.062  0.00  0.00    +0.000 A 
ATOM     18  C   UNL     1      -2.388  10.023  18.403  0.00  0.00    +0.000 A 
ATOM     19  C   UNL     1      -2.967   9.539  17.209  0.00  0.00    +0.000 A 
ATOM     20  C   UNL     1      -2.526  10.369  16.208  0.00  0.00    +0.000 A 
ATOM     21  O   UNL     1      -1.700  11.324  16.708  0.00  0.00    +0.000 OA
ENDBRANCH   2  17
BRANCH   1  22
ATOM     22  C   UNL     1       1.062  12.416  20.484  0.00  0.00    +0.000 C 
BRANCH  22  23
ATOM     23  C   UNL     1       0.342  13.192  21.583  0.00  0.00    +0.000 A 
ATOM     24  C   UNL     1      -0.670  12.603  22.349  0.00  0.00    +0.000 A 
ATOM     25  C   UNL     1      -1.337  13.349  23.318  0.00  0.00    +0.000 A 
ATOM     26  C   UNL     1      -0.944  14.660  23.521  0.00  0.00    +0.000 A 
ATOM     27  N   UNL     1       0.076  15.244  22.860  0.00  0.00    +0.000 NA
ATOM     28  C   UNL     1       0.701  14.498  21.920  0.00  0.00    +0.000 A 
ENDBRANCH  22  23
BRANCH  22  29
ATOM     29  C   UNL     1       1.885  13.302  19.496  0.00  0.00    +0.000 C 
ATOM     30  O   UNL     1       1.706  13.209  18.282  0.00  0.00    +0.000 OA
ATOM     31  N   UNL     1       2.811  14.168  20.048  0.00  0.00    +0.000 N 
ATOM     32  H   UNL     1       2.992  14.059  21.046  0.00  0.00    +0.000 HD
BRANCH  31  33
ATOM     33  C   UNL     1       3.675  15.100  19.301  0.00  0.00    +0.000 C 
ATOM     34  C   UNL     1       4.452  14.367  18.195  0.00  0.00    +0.000 C 
ATOM     35  C   UNL     1       2.790  16.164  18.622  0.00  0.00    +0.000 C 
ATOM     36  C   UNL     1       4.647  15.819  20.248  0.00  0.00    +0.000 C 
ENDBRANCH  31  33
ENDBRANCH  22  29
ENDBRANCH   1  22
TORSDOF 7
ENDMDL
