MODEL 1
REMARK VINA RESULT:      -8.7      0.000      0.000
REMARK  Name = 
REMARK  8 active torsions:
REMARK  status: ('A' for Active; 'I' for Inactive)
REMARK    1  A    between atoms: C_1  and  O_2
REMARK    2  A    between atoms: O_2  and  C_3
REMARK    3  A    between atoms: C_3  and  C_5
REMARK    4  A    between atoms: C_6  and  O_7
REMARK    5  A    between atoms: O_7  and  C_8
REMARK    6  A    between atoms: C_12  and  C_13
REMARK    7  A    between atoms: C_18  and  C_19
REMARK    8  A    between atoms: C_21  and  C_22
REMARK                            x       y       z     vdW  Elec       q    Type
REMARK                         _______ _______ _______ _____ _____    ______ ____
ROOT
ATOM      1  C   UNL     1       5.842   4.891  17.097  0.00  0.00    +0.000 A 
ATOM      2  C   UNL     1       5.308   4.116  16.138  0.00  0.00    +0.000 A 
ATOM      3 CL   UNL     1       3.951   3.076  16.470  0.00  0.00    +0.000 Cl
ATOM      4  C   UNL     1       5.839   4.123  14.773  0.00  0.00    +0.000 A 
ATOM      5  C   UNL     1       5.304   3.350  13.738  0.00  0.00    +0.000 A 
ATOM      6  C   UNL     1       5.839   3.393  12.447  0.00  0.00    +0.000 A 
ATOM      7  C   UNL     1       5.233   2.555  11.362  0.00  0.00    +0.000 C 
ATOM      8  C   UNL     1       6.934   4.223  12.185  0.00  0.00    +0.000 A 
ATOM      9  C   UNL     1       7.494   5.010  13.198  0.00  0.00    +0.000 A 
ATOM     10  C   UNL     1       8.668   5.899  12.904  0.00  0.00    +0.000 C 
ATOM     11  C   UNL     1       6.926   4.944  14.481  0.00  0.00    +0.000 A 
ATOM     12  O   UNL     1       7.490   5.747  15.487  0.00  0.00    +0.000 OA
ATOM     13  C   UNL     1       6.997   5.768  16.780  0.00  0.00    +0.000 A 
ATOM     14  O   UNL     1       7.518   6.480  17.632  0.00  0.00    +0.000 OA
ENDROOT
BRANCH   1  20
ATOM     15  C   UNL     1       3.848   4.911  18.667  0.00  0.00    +0.000 C 
ATOM     16  C   UNL     1       3.478   3.866  19.405  0.00  0.00    +0.000 C 
ATOM     17  C   UNL     1       4.723   3.157  19.776  0.00  0.00    +0.000 C 
ATOM     18  O   UNL     1       4.827   2.174  20.493  0.00  0.00    +0.000 OA
ATOM     19  O   UNL     1       5.790   3.815  19.236  0.00  0.00    +0.000 OA
ATOM     20  C   UNL     1       5.309   4.949  18.508  0.00  0.00    +0.000 C 
BRANCH  15  21
ATOM     21  C   UNL     1       2.930   5.937  18.170  0.00  0.00    +0.000 C 
ATOM     22  O   UNL     1       1.825   5.718  17.701  0.00  0.00    +0.000 OA
BRANCH  21  24
ATOM     23  C   UNL     1       2.622   8.228  17.864  0.00  0.00    +0.000 C 
ATOM     24  O   UNL     1       3.480   7.171  18.315  0.00  0.00    +0.000 OA
ENDBRANCH  21  24
ENDBRANCH  15  21
BRANCH  16  25
ATOM     25  O   UNL     1       2.195   3.576  19.784  0.00  0.00    +0.000 OA
ATOM     26  C   UNL     1       1.602   2.455  19.144  0.00  0.00    +0.000 C 
ENDBRANCH  16  25
ENDBRANCH   1  20
TORSDOF 4
ENDMDL
MODEL 2
REMARK VINA RESULT:      -8.1      2.543      6.732
REMARK  Name = 
REMARK  8 active torsions:
REMARK  status: ('A' for Active; 'I' for Inactive)
REMARK    1  A    between atoms: C_1  and  O_2
REMARK    2  A    between atoms: O_2  and  C_3
REMARK    3  A    between atoms: C_3  and  C_5
REMARK    4  A    between atoms: C_6  and  O_7
REMARK    5  A    between atoms: O_7  and  C_8
REMARK    6  A    between atoms: C_12  and  C_13
REMARK    7  A    between atoms: C_18  and  C_19
REMARK    8  A    between atoms: C_21  and  C_22
REMARK                            x       y       z     vdW  Elec       q    Type
REMARK                         _______ _______ _______ _____ _____    ______ ____
ROOT
ATOM      1  C   UNL     1       3.670   5.952  18.858  0.00  0.00    +0.000 A 
ATOM      2  C   UNL     1       2.827   6.105  19.893  0.00  0.00    +0.000 A 
ATOM      3 CL   UNL     1       2.692   4.890  21.133  0.00  0.00    +0.000 Cl
ATOM      4  C   UNL     1       1.997   7.305  20.025  0.00  0.00    +0.000 A 
ATOM      5  C   UNL     1       1.122   7.517  21.094  0.00  0.00    +0.000 A 
ATOM      6  C   UNL     1       0.352   8.681  21.183  0.00  0.00    +0.000 A 
ATOM      7  C   UNL     1      -0.570   8.876  22.349  0.00  0.00    +0.000 C 
ATOM      8  C   UNL     1       0.457   9.652  20.181  0.00  0.00    +0.000 A 
ATOM      9  C   UNL     1       1.324   9.471  19.098  0.00  0.00    +0.000 A 
ATOM     10  C   UNL     1       1.429  10.521  18.030  0.00  0.00    +0.000 C 
ATOM     11  C   UNL     1       2.084   8.291  19.045  0.00  0.00    +0.000 A 
ATOM     12  O   UNL     1       2.959   8.125  17.958  0.00  0.00    +0.000 OA
ATOM     13  C   UNL     1       3.764   7.008  17.819  0.00  0.00    +0.000 A 
ATOM     14  O   UNL     1       4.513   6.898  16.854  0.00  0.00    +0.000 OA
ENDROOT
BRANCH   1  20
ATOM     15  C   UNL     1       4.384   3.940  17.486  0.00  0.00    +0.000 C 
ATOM     16  C   UNL     1       5.500   3.899  16.761  0.00  0.00    +0.000 C 
ATOM     17  C   UNL     1       6.501   4.707  17.493  0.00  0.00    +0.000 C 
ATOM     18  O   UNL     1       7.672   4.881  17.192  0.00  0.00    +0.000 OA
ATOM     19  O   UNL     1       5.933   5.201  18.631  0.00  0.00    +0.000 OA
ATOM     20  C   UNL     1       4.575   4.755  18.695  0.00  0.00    +0.000 C 
BRANCH  15  21
ATOM     21  C   UNL     1       3.167   3.191  17.171  0.00  0.00    +0.000 C 
ATOM     22  O   UNL     1       2.276   3.584  16.434  0.00  0.00    +0.000 OA
BRANCH  21  24
ATOM     23  C   UNL     1       2.230   1.915  18.882  0.00  0.00    +0.000 C 
ATOM     24  O   UNL     1       3.174   1.990  17.805  0.00  0.00    +0.000 OA
ENDBRANCH  21  24
ENDBRANCH  15  21
BRANCH  16  25
ATOM     25  O   UNL     1       5.672   3.182  15.608  0.00  0.00    +0.000 OA
ATOM     26  C   UNL     1       5.929   3.948  14.439  0.00  0.00    +0.000 C 
ENDBRANCH  16  25
ENDBRANCH   1  20
TORSDOF 4
ENDMDL
MODEL 3
REMARK VINA RESULT:      -7.9      2.449      6.889
REMARK  Name = 
REMARK  8 active torsions:
REMARK  status: ('A' for Active; 'I' for Inactive)
REMARK    1  A    between atoms: C_1  and  O_2
REMARK    2  A    between atoms: O_2  and  C_3
REMARK    3  A    between atoms: C_3  and  C_5
REMARK    4  A    between atoms: C_6  and  O_7
REMARK    5  A    between atoms: O_7  and  C_8
REMARK    6  A    between atoms: C_12  and  C_13
REMARK    7  A    between atoms: C_18  and  C_19
REMARK    8  A    between atoms: C_21  and  C_22
REMARK                            x       y       z     vdW  Elec       q    Type
REMARK                         _______ _______ _______ _____ _____    ______ ____
ROOT
ATOM      1  C   UNL     1       3.142   5.515  19.654  0.00  0.00    +0.000 A 
ATOM      2  C   UNL     1       3.109   6.649  18.933  0.00  0.00    +0.000 A 
ATOM      3 CL   UNL     1       4.127   6.857  17.535  0.00  0.00    +0.000 Cl
ATOM      4  C   UNL     1       2.210   7.749  19.287  0.00  0.00    +0.000 A 
ATOM      5  C   UNL     1       2.127   8.937  18.555  0.00  0.00    +0.000 A 
ATOM      6  C   UNL     1       1.248   9.959  18.926  0.00  0.00    +0.000 A 
ATOM      7  C   UNL     1       1.183  11.217  18.112  0.00  0.00    +0.000 C 
ATOM      8  C   UNL     1       0.438   9.793  20.054  0.00  0.00    +0.000 A 
ATOM      9  C   UNL     1       0.496   8.615  20.809  0.00  0.00    +0.000 A 
ATOM     10  C   UNL     1      -0.380   8.447  22.017  0.00  0.00    +0.000 C 
ATOM     11  C   UNL     1       1.387   7.609  20.402  0.00  0.00    +0.000 A 
ATOM     12  O   UNL     1       1.429   6.427  21.161  0.00  0.00    +0.000 OA
ATOM     13  C   UNL     1       2.259   5.369  20.839  0.00  0.00    +0.000 A 
ATOM     14  O   UNL     1       2.270   4.354  21.528  0.00  0.00    +0.000 OA
ENDROOT
BRANCH   1  20
ATOM     15  C   UNL     1       3.908   3.802  17.945  0.00  0.00    +0.000 C 
ATOM     16  C   UNL     1       5.078   3.862  17.313  0.00  0.00    +0.000 C 
ATOM     17  C   UNL     1       6.039   4.454  18.271  0.00  0.00    +0.000 C 
ATOM     18  O   UNL     1       7.235   4.633  18.101  0.00  0.00    +0.000 OA
ATOM     19  O   UNL     1       5.393   4.726  19.442  0.00  0.00    +0.000 OA
ATOM     20  C   UNL     1       4.022   4.338  19.310  0.00  0.00    +0.000 C 
BRANCH  15  21
ATOM     21  C   UNL     1       2.699   3.192  17.389  0.00  0.00    +0.000 C 
ATOM     22  O   UNL     1       2.090   3.608  16.417  0.00  0.00    +0.000 OA
BRANCH  21  24
ATOM     23  C   UNL     1       1.104   2.219  18.784  0.00  0.00    +0.000 C 
ATOM     24  O   UNL     1       2.359   2.087  18.103  0.00  0.00    +0.000 OA
ENDBRANCH  21  24
ENDBRANCH  15  21
BRANCH  16  25
ATOM     25  O   UNL     1       5.324   3.393  16.050  0.00  0.00    +0.000 OA
ATOM     26  C   UNL     1       5.488   4.385  15.046  0.00  0.00    +0.000 C 
ENDBRANCH  16  25
ENDBRANCH   1  20
TORSDOF 4
ENDMDL
MODEL 4
REMARK VINA RESULT:      -7.8      2.884      6.899
REMARK  Name = 
REMARK  8 active torsions:
REMARK  status: ('A' for Active; 'I' for Inactive)
REMARK    1  A    between atoms: C_1  and  O_2
REMARK    2  A    between atoms: O_2  and  C_3
REMARK    3  A    between atoms: C_3  and  C_5
REMARK    4  A    between atoms: C_6  and  O_7
REMARK    5  A    between atoms: O_7  and  C_8
REMARK    6  A    between atoms: C_12  and  C_13
REMARK    7  A    between atoms: C_18  and  C_19
REMARK    8  A    between atoms: C_21  and  C_22
REMARK                            x       y       z     vdW  Elec       q    Type
REMARK                         _______ _______ _______ _____ _____    ______ ____
ROOT
ATOM      1  C   UNL     1       2.863   6.560  18.300  0.00  0.00    +0.000 A 
ATOM      2  C   UNL     1       2.269   6.623  19.503  0.00  0.00    +0.000 A 
ATOM      3 CL   UNL     1       2.129   5.213  20.514  0.00  0.00    +0.000 Cl
ATOM      4  C   UNL     1       1.724   7.882  20.016  0.00  0.00    +0.000 A 
ATOM      5  C   UNL     1       1.116   8.000  21.270  0.00  0.00    +0.000 A 
ATOM      6  C   UNL     1       0.615   9.225  21.722  0.00  0.00    +0.000 A 
ATOM      7  C   UNL     1      -0.024   9.313  23.075  0.00  0.00    +0.000 C 
ATOM      8  C   UNL     1       0.722  10.355  20.904  0.00  0.00    +0.000 A 
ATOM      9  C   UNL     1       1.325  10.271  19.644  0.00  0.00    +0.000 A 
ATOM     10  C   UNL     1       1.435  11.491  18.776  0.00  0.00    +0.000 C 
ATOM     11  C   UNL     1       1.820   9.025  19.226  0.00  0.00    +0.000 A 
ATOM     12  O   UNL     1       2.434   8.956  17.963  0.00  0.00    +0.000 OA
ATOM     13  C   UNL     1       2.968   7.782  17.463  0.00  0.00    +0.000 A 
ATOM     14  O   UNL     1       3.493   7.761  16.354  0.00  0.00    +0.000 OA
ENDROOT
BRANCH   1  20
ATOM     15  C   UNL     1       4.530   4.662  18.542  0.00  0.00    +0.000 C 
ATOM     16  C   UNL     1       4.190   3.419  18.874  0.00  0.00    +0.000 C 
ATOM     17  C   UNL     1       2.856   3.179  18.281  0.00  0.00    +0.000 C 
ATOM     18  O   UNL     1       2.210   2.143  18.309  0.00  0.00    +0.000 OA
ATOM     19  O   UNL     1       2.454   4.302  17.616  0.00  0.00    +0.000 OA
ATOM     20  C   UNL     1       3.474   5.298  17.741  0.00  0.00    +0.000 C 
BRANCH  15  21
ATOM     21  C   UNL     1       5.824   5.274  18.848  0.00  0.00    +0.000 C 
ATOM     22  O   UNL     1       6.320   5.340  19.961  0.00  0.00    +0.000 OA
BRANCH  21  24
ATOM     23  C   UNL     1       7.195   4.768  17.031  0.00  0.00    +0.000 C 
ATOM     24  O   UNL     1       6.401   5.748  17.712  0.00  0.00    +0.000 OA
ENDBRANCH  21  24
ENDBRANCH  15  21
BRANCH  16  25
ATOM     25  O   UNL     1       4.976   2.539  19.569  0.00  0.00    +0.000 OA
ATOM     26  C   UNL     1       4.427   2.051  20.786  0.00  0.00    +0.000 C 
ENDBRANCH  16  25
ENDBRANCH   1  20
TORSDOF 4
ENDMDL
MODEL 5
REMARK VINA RESULT:      -7.5      0.777      1.092
REMARK  Name = 
REMARK  8 active torsions:
REMARK  status: ('A' for Active; 'I' for Inactive)
REMARK    1  A    between atoms: C_1  and  O_2
REMARK    2  A    between atoms: O_2  and  C_3
REMARK    3  A    between atoms: C_3  and  C_5
REMARK    4  A    between atoms: C_6  and  O_7
REMARK    5  A    between atoms: O_7  and  C_8
REMARK    6  A    between atoms: C_12  and  C_13
REMARK    7  A    between atoms: C_18  and  C_19
REMARK    8  A    between atoms: C_21  and  C_22
REMARK                            x       y       z     vdW  Elec       q    Type
REMARK                         _______ _______ _______ _____ _____    ______ ____
ROOT
ATOM      1  C   UNL     1       5.974   4.791  17.324  0.00  0.00    +0.000 A 
ATOM      2  C   UNL     1       5.432   4.019  16.367  0.00  0.00    +0.000 A 
ATOM      3 CL   UNL     1       4.129   2.921  16.726  0.00  0.00    +0.000 Cl
ATOM      4  C   UNL     1       5.907   4.079  14.983  0.00  0.00    +0.000 A 
ATOM      5  C   UNL     1       5.359   3.312  13.951  0.00  0.00    +0.000 A 
ATOM      6  C   UNL     1       5.840   3.406  12.641  0.00  0.00    +0.000 A 
ATOM      7  C   UNL     1       5.222   2.571  11.560  0.00  0.00    +0.000 C 
ATOM      8  C   UNL     1       6.892   4.284  12.357  0.00  0.00    +0.000 A 
ATOM      9  C   UNL     1       7.462   5.067  13.367  0.00  0.00    +0.000 A 
ATOM     10  C   UNL     1       8.589   6.007  13.050  0.00  0.00    +0.000 C 
ATOM     11  C   UNL     1       6.949   4.948  14.669  0.00  0.00    +0.000 A 
ATOM     12  O   UNL     1       7.523   5.748  15.673  0.00  0.00    +0.000 OA
ATOM     13  C   UNL     1       7.082   5.719  16.984  0.00  0.00    +0.000 A 
ATOM     14  O   UNL     1       7.610   6.431  17.833  0.00  0.00    +0.000 OA
ENDROOT
BRANCH   1  20
ATOM     15  C   UNL     1       4.043   4.815  18.970  0.00  0.00    +0.000 C 
ATOM     16  C   UNL     1       3.651   3.749  19.664  0.00  0.00    +0.000 C 
ATOM     17  C   UNL     1       4.873   2.964  19.947  0.00  0.00    +0.000 C 
ATOM     18  O   UNL     1       4.956   1.939  20.605  0.00  0.00    +0.000 OA
ATOM     19  O   UNL     1       5.950   3.601  19.402  0.00  0.00    +0.000 OA
ATOM     20  C   UNL     1       5.497   4.795  18.756  0.00  0.00    +0.000 C 
BRANCH  15  21
ATOM     21  C   UNL     1       3.158   5.908  18.565  0.00  0.00    +0.000 C 
ATOM     22  O   UNL     1       3.000   6.946  19.187  0.00  0.00    +0.000 OA
BRANCH  21  24
ATOM     23  C   UNL     1       1.299   4.922  17.561  0.00  0.00    +0.000 C 
ATOM     24  O   UNL     1       2.546   5.608  17.389  0.00  0.00    +0.000 OA
ENDBRANCH  21  24
ENDBRANCH  15  21
BRANCH  16  25
ATOM     25  O   UNL     1       2.370   3.497  20.078  0.00  0.00    +0.000 OA
ATOM     26  C   UNL     1       2.103   3.762  21.448  0.00  0.00    +0.000 C 
ENDBRANCH  16  25
ENDBRANCH   1  20
TORSDOF 4
ENDMDL
MODEL 6
REMARK VINA RESULT:      -7.4      3.479      7.146
REMARK  Name = 
REMARK  8 active torsions:
REMARK  status: ('A' for Active; 'I' for Inactive)
REMARK    1  A    between atoms: C_1  and  O_2
REMARK    2  A    between atoms: O_2  and  C_3
REMARK    3  A    between atoms: C_3  and  C_5
REMARK    4  A    between atoms: C_6  and  O_7
REMARK    5  A    between atoms: O_7  and  C_8
REMARK    6  A    between atoms: C_12  and  C_13
REMARK    7  A    between atoms: C_18  and  C_19
REMARK    8  A    between atoms: C_21  and  C_22
REMARK                            x       y       z     vdW  Elec       q    Type
REMARK                         _______ _______ _______ _____ _____    ______ ____
ROOT
ATOM      1  C   UNL     1       2.462   6.338  19.035  0.00  0.00    +0.000 A 
ATOM      2  C   UNL     1       2.370   7.564  18.493  0.00  0.00    +0.000 A 
ATOM      3 CL   UNL     1       2.963   7.887  16.888  0.00  0.00    +0.000 Cl
ATOM      4  C   UNL     1       1.759   8.674  19.227  0.00  0.00    +0.000 A 
ATOM      5  C   UNL     1       1.623   9.961  18.696  0.00  0.00    +0.000 A 
ATOM      6  C   UNL     1       1.026  10.990  19.430  0.00  0.00    +0.000 A 
ATOM      7  C   UNL     1       0.892  12.355  18.824  0.00  0.00    +0.000 C 
ATOM      8  C   UNL     1       0.557  10.730  20.723  0.00  0.00    +0.000 A 
ATOM      9  C   UNL     1       0.677   9.453  21.283  0.00  0.00    +0.000 A 
ATOM     10  C   UNL     1       0.169   9.186  22.670  0.00  0.00    +0.000 C 
ATOM     11  C   UNL     1       1.278   8.444  20.514  0.00  0.00    +0.000 A 
ATOM     12  O   UNL     1       1.383   7.163  21.083  0.00  0.00    +0.000 OA
ATOM     13  C   UNL     1       1.944   6.095  20.405  0.00  0.00    +0.000 A 
ATOM     14  O   UNL     1       2.020   4.992  20.937  0.00  0.00    +0.000 OA
ENDROOT
BRANCH   1  20
ATOM     15  C   UNL     1       4.277   4.571  18.870  0.00  0.00    +0.000 C 
ATOM     16  C   UNL     1       4.094   3.293  19.191  0.00  0.00    +0.000 C 
ATOM     17  C   UNL     1       2.694   2.971  18.837  0.00  0.00    +0.000 C 
ATOM     18  O   UNL     1       2.141   1.885  18.925  0.00  0.00    +0.000 OA
ATOM     19  O   UNL     1       2.097   4.082  18.317  0.00  0.00    +0.000 OA
ATOM     20  C   UNL     1       3.048   5.152  18.308  0.00  0.00    +0.000 C 
BRANCH  15  21
ATOM     21  C   UNL     1       5.558   5.273  18.969  0.00  0.00    +0.000 C 
ATOM     22  O   UNL     1       6.333   5.182  19.906  0.00  0.00    +0.000 OA
BRANCH  21  24
ATOM     23  C   UNL     1       7.111   6.518  17.755  0.00  0.00    +0.000 C 
ATOM     24  O   UNL     1       5.766   6.031  17.861  0.00  0.00    +0.000 OA
ENDBRANCH  21  24
ENDBRANCH  15  21
BRANCH  16  25
ATOM     25  O   UNL     1       5.056   2.452  19.684  0.00  0.00    +0.000 OA
ATOM     26  C   UNL     1       4.727   1.783  20.894  0.00  0.00    +0.000 C 
ENDBRANCH  16  25
ENDBRANCH   1  20
TORSDOF 4
ENDMDL
MODEL 7
REMARK VINA RESULT:      -7.2      4.943      8.286
REMARK  Name = 
REMARK  8 active torsions:
REMARK  status: ('A' for Active; 'I' for Inactive)
REMARK    1  A    between atoms: C_1  and  O_2
REMARK    2  A    between atoms: O_2  and  C_3
REMARK    3  A    between atoms: C_3  and  C_5
REMARK    4  A    between atoms: C_6  and  O_7
REMARK    5  A    between atoms: O_7  and  C_8
REMARK    6  A    between atoms: C_12  and  C_13
REMARK    7  A    between atoms: C_18  and  C_19
REMARK    8  A    between atoms: C_21  and  C_22
REMARK                            x       y       z     vdW  Elec       q    Type
REMARK                         _______ _______ _______ _____ _____    ______ ____
ROOT
ATOM      1  C   UNL     1       1.310   9.910  19.548  0.00  0.00    +0.000 A 
ATOM      2  C   UNL     1       1.143   8.839  20.341  0.00  0.00    +0.000 A 
ATOM      3 CL   UNL     1       0.196   8.936  21.799  0.00  0.00    +0.000 Cl
ATOM      4  C   UNL     1       1.741   7.545  20.005  0.00  0.00    +0.000 A 
ATOM      5  C   UNL     1       1.577   6.398  20.789  0.00  0.00    +0.000 A 
ATOM      6  C   UNL     1       2.161   5.181  20.426  0.00  0.00    +0.000 A 
ATOM      7  C   UNL     1       1.957   3.972  21.289  0.00  0.00    +0.000 C 
ATOM      8  C   UNL     1       2.928   5.108  19.258  0.00  0.00    +0.000 A 
ATOM      9  C   UNL     1       3.111   6.236  18.451  0.00  0.00    +0.000 A 
ATOM     10  C   UNL     1       3.934   6.145  17.199  0.00  0.00    +0.000 C 
ATOM     11  C   UNL     1       2.505   7.440  18.846  0.00  0.00    +0.000 A 
ATOM     12  O   UNL     1       2.687   8.564  18.021  0.00  0.00    +0.000 OA
ATOM     13  C   UNL     1       2.121   9.793  18.309  0.00  0.00    +0.000 A 
ATOM     14  O   UNL     1       2.305  10.752  17.567  0.00  0.00    +0.000 OA
ENDROOT
BRANCH   1  20
ATOM     15  C   UNL     1      -0.771  11.361  19.642  0.00  0.00    +0.000 C 
ATOM     16  C   UNL     1      -1.367  11.722  20.776  0.00  0.00    +0.000 C 
ATOM     17  C   UNL     1      -0.293  11.878  21.782  0.00  0.00    +0.000 C 
ATOM     18  O   UNL     1      -0.412  12.250  22.938  0.00  0.00    +0.000 OA
ATOM     19  O   UNL     1       0.909  11.598  21.199  0.00  0.00    +0.000 OA
ATOM     20  C   UNL     1       0.684  11.255  19.827  0.00  0.00    +0.000 C 
BRANCH  15  21
ATOM     21  C   UNL     1      -1.460  11.193  18.363  0.00  0.00    +0.000 C 
ATOM     22  O   UNL     1      -1.624  12.075  17.536  0.00  0.00    +0.000 OA
BRANCH  21  24
ATOM     23  C   UNL     1      -3.157   9.802  17.574  0.00  0.00    +0.000 C 
ATOM     24  O   UNL     1      -1.882   9.909  18.220  0.00  0.00    +0.000 OA
ENDBRANCH  21  24
ENDBRANCH  15  21
BRANCH  16  25
ATOM     25  O   UNL     1      -2.707  11.962  20.927  0.00  0.00    +0.000 OA
ATOM     26  C   UNL     1      -3.095  13.328  20.892  0.00  0.00    +0.000 C 
ENDBRANCH  16  25
ENDBRANCH   1  20
TORSDOF 4
ENDMDL
MODEL 8
REMARK VINA RESULT:      -7.2      5.067      8.420
REMARK  Name = 
REMARK  8 active torsions:
REMARK  status: ('A' for Active; 'I' for Inactive)
REMARK    1  A    between atoms: C_1  and  O_2
REMARK    2  A    between atoms: O_2  and  C_3
REMARK    3  A    between atoms: C_3  and  C_5
REMARK    4  A    between atoms: C_6  and  O_7
REMARK    5  A    between atoms: O_7  and  C_8
REMARK    6  A    between atoms: C_12  and  C_13
REMARK    7  A    between atoms: C_18  and  C_19
REMARK    8  A    between atoms: C_21  and  C_22
REMARK                            x       y       z     vdW  Elec       q    Type
REMARK                         _______ _______ _______ _____ _____    ______ ____
ROOT
ATOM      1  C   UNL     1       1.039   9.722  20.101  0.00  0.00    +0.000 A 
ATOM      2  C   UNL     1       1.805   9.327  19.070  0.00  0.00    +0.000 A 
ATOM      3 CL   UNL     1       2.267  10.441  17.813  0.00  0.00    +0.000 Cl
ATOM      4  C   UNL     1       2.290   7.949  18.966  0.00  0.00    +0.000 A 
ATOM      5  C   UNL     1       3.105   7.499  17.923  0.00  0.00    +0.000 A 
ATOM      6  C   UNL     1       3.551   6.175  17.868  0.00  0.00    +0.000 A 
ATOM      7  C   UNL     1       4.429   5.732  16.737  0.00  0.00    +0.000 C 
ATOM      8  C   UNL     1       3.171   5.281  18.875  0.00  0.00    +0.000 A 
ATOM      9  C   UNL     1       2.357   5.699  19.933  0.00  0.00    +0.000 A 
ATOM     10  C   UNL     1       1.958   4.730  21.009  0.00  0.00    +0.000 C 
ATOM     11  C   UNL     1       1.933   7.037  19.957  0.00  0.00    +0.000 A 
ATOM     12  O   UNL     1       1.124   7.448  21.030  0.00  0.00    +0.000 OA
ATOM     13  C   UNL     1       0.666   8.747  21.157  0.00  0.00    +0.000 A 
ATOM     14  O   UNL     1      -0.041   9.067  22.108  0.00  0.00    +0.000 OA
ENDROOT
BRANCH   1  20
ATOM     15  C   UNL     1      -0.862  11.395  19.935  0.00  0.00    +0.000 C 
ATOM     16  C   UNL     1      -1.525  11.865  20.989  0.00  0.00    +0.000 C 
ATOM     17  C   UNL     1      -0.547  11.942  22.096  0.00  0.00    +0.000 C 
ATOM     18  O   UNL     1      -0.740  12.372  23.223  0.00  0.00    +0.000 OA
ATOM     19  O   UNL     1       0.668  11.509  21.651  0.00  0.00    +0.000 OA
ATOM     20  C   UNL     1       0.546  11.137  20.274  0.00  0.00    +0.000 C 
BRANCH  15  21
ATOM     21  C   UNL     1      -1.433  11.251  18.595  0.00  0.00    +0.000 C 
ATOM     22  O   UNL     1      -1.447  12.125  17.744  0.00  0.00    +0.000 OA
BRANCH  21  24
ATOM     23  C   UNL     1      -2.615   9.825  17.179  0.00  0.00    +0.000 C 
ATOM     24  O   UNL     1      -1.936   9.999  18.429  0.00  0.00    +0.000 OA
ENDBRANCH  21  24
ENDBRANCH  15  21
BRANCH  16  25
ATOM     25  O   UNL     1      -2.838  12.256  20.991  0.00  0.00    +0.000 OA
ATOM     26  C   UNL     1      -3.062  13.657  20.913  0.00  0.00    +0.000 C 
ENDBRANCH  16  25
ENDBRANCH   1  20
TORSDOF 4
ENDMDL
MODEL 9
REMARK VINA RESULT:      -7.1      2.692      7.099
REMARK  Name = 
REMARK  8 active torsions:
REMARK  status: ('A' for Active; 'I' for Inactive)
REMARK    1  A    between atoms: C_1  and  O_2
REMARK    2  A    between atoms: O_2  and  C_3
REMARK    3  A    between atoms: C_3  and  C_5
REMARK    4  A    between atoms: C_6  and  O_7
REMARK    5  A    between atoms: O_7  and  C_8
REMARK    6  A    between atoms: C_12  and  C_13
REMARK    7  A    between atoms: C_18  and  C_19
REMARK    8  A    between atoms: C_21  and  C_22
REMARK                            x       y       z     vdW  Elec       q    Type
REMARK                         _______ _______ _______ _____ _____    ______ ____
ROOT
ATOM      1  C   UNL     1       2.981   6.714  18.379  0.00  0.00    +0.000 A 
ATOM      2  C   UNL     1       2.444   6.766  19.609  0.00  0.00    +0.000 A 
ATOM      3 CL   UNL     1       2.574   5.421  20.707  0.00  0.00    +0.000 Cl
ATOM      4  C   UNL     1       1.738   7.960  20.080  0.00  0.00    +0.000 A 
ATOM      5  C   UNL     1       1.182   8.068  21.358  0.00  0.00    +0.000 A 
ATOM      6  C   UNL     1       0.522   9.230  21.768  0.00  0.00    +0.000 A 
ATOM      7  C   UNL     1      -0.055   9.310  23.149  0.00  0.00    +0.000 C 
ATOM      8  C   UNL     1       0.412  10.307  20.881  0.00  0.00    +0.000 A 
ATOM      9  C   UNL     1       0.958  10.232  19.595  0.00  0.00    +0.000 A 
ATOM     10  C   UNL     1       0.836  11.395  18.653  0.00  0.00    +0.000 C 
ATOM     11  C   UNL     1       1.618   9.050  19.221  0.00  0.00    +0.000 A 
ATOM     12  O   UNL     1       2.171   8.990  17.930  0.00  0.00    +0.000 OA
ATOM     13  C   UNL     1       2.855   7.880  17.468  0.00  0.00    +0.000 A 
ATOM     14  O   UNL     1       3.321   7.865  16.333  0.00  0.00    +0.000 OA
ENDROOT
BRANCH   1  20
ATOM     15  C   UNL     1       5.210   5.670  17.758  0.00  0.00    +0.000 C 
ATOM     16  C   UNL     1       5.830   4.758  18.503  0.00  0.00    +0.000 C 
ATOM     17  C   UNL     1       4.768   3.947  19.138  0.00  0.00    +0.000 C 
ATOM     18  O   UNL     1       4.916   2.972  19.859  0.00  0.00    +0.000 OA
ATOM     19  O   UNL     1       3.549   4.416  18.743  0.00  0.00    +0.000 OA
ATOM     20  C   UNL     1       3.750   5.524  17.859  0.00  0.00    +0.000 C 
BRANCH  15  21
ATOM     21  C   UNL     1       5.890   6.623  16.880  0.00  0.00    +0.000 C 
ATOM     22  O   UNL     1       6.510   7.603  17.260  0.00  0.00    +0.000 OA
BRANCH  21  24
ATOM     23  C   UNL     1       6.657   5.219  15.183  0.00  0.00    +0.000 C 
ATOM     24  O   UNL     1       5.746   6.252  15.580  0.00  0.00    +0.000 OA
ENDBRANCH  21  24
ENDBRANCH  15  21
BRANCH  16  25
ATOM     25  O   UNL     1       7.187   4.589  18.584  0.00  0.00    +0.000 OA
ATOM     26  C   UNL     1       7.858   5.432  19.510  0.00  0.00    +0.000 C 
ENDBRANCH  16  25
ENDBRANCH   1  20
TORSDOF 4
ENDMDL
