MODEL 1
REMARK VINA RESULT:      -7.8      0.000      0.000
REMARK  Name = 
REMARK  9 active torsions:
REMARK  status: ('A' for Active; 'I' for Inactive)
REMARK    1  A    between atoms: C_1  and  O_2
REMARK    2  A    between atoms: O_2  and  C_3
REMARK    3  A    between atoms: C_11  and  N_12
REMARK    4  A    between atoms: N_12  and  C_13
REMARK    5  A    between atoms: N_21  and  C1*_22
REMARK    6  A    between atoms: C4*_24  and  C5*_25
REMARK    7  A    between atoms: C5*_25  and  O5*_26
REMARK    8  A    between atoms: C3*_27  and  O3*_28
REMARK    9  A    between atoms: C2*_29  and  O2*_30
REMARK                            x       y       z     vdW  Elec       q    Type
REMARK                         _______ _______ _______ _____ _____    ______ ____
ROOT
ATOM      1  C   UNL     1       1.854   7.514  19.990  0.00  0.00    +0.000 A 
ATOM      2  N   UNL     1       1.159   7.377  21.152  0.00  0.00    +0.000 NA
ATOM      3  C   UNL     1       0.426   8.411  21.608  0.00  0.00    +0.000 A 
ATOM      4  N   UNL     1       0.284   9.629  21.063  0.00  0.00    +0.000 NA
ATOM      5  C   UNL     1       0.993   9.735  19.929  0.00  0.00    +0.000 A 
ATOM      6  C   UNL     1       1.767   8.755  19.325  0.00  0.00    +0.000 A 
ATOM      7  N   UNL     1       2.327   9.239  18.157  0.00  0.00    +0.000 NA
ATOM      8  C   UNL     1       1.914  10.487  18.071  0.00  0.00    +0.000 A 
ATOM      9  N   UNL     1       1.103  10.832  19.119  0.00  0.00    +0.000 N 
ENDROOT
BRANCH   9  10
ATOM     10  C1* UNL     1       0.461  12.118  19.298  0.00  0.00    +0.000 C 
ATOM     11  O4* UNL     1       0.536  12.506  20.689  0.00  0.00    +0.000 OA
ATOM     12  C4* UNL     1      -0.744  13.066  21.083  0.00  0.00    +0.000 C 
ATOM     13  C3* UNL     1      -1.566  13.227  19.809  0.00  0.00    +0.000 C 
ATOM     14  C2* UNL     1      -1.009  12.158  18.882  0.00  0.00    +0.000 C 
BRANCH  13  15
ATOM     15  O3* UNL     1      -1.344  14.505  19.181  0.00  0.00    +0.000 OA
ATOM     16  H3* UNL     1      -0.465  14.841  19.438  0.00  0.00    +0.000 HD
ENDBRANCH  13  15
BRANCH  14  17
ATOM     17  O2* UNL     1      -1.175  12.517  17.509  0.00  0.00    +0.000 OA
ATOM     18  H2* UNL     1      -1.088  13.494  17.473  0.00  0.00    +0.000 HD
ENDBRANCH  14  17
BRANCH  12  19
ATOM     19  C5* UNL     1      -1.401  12.149  22.117  0.00  0.00    +0.000 C 
BRANCH  19  20
ATOM     20  O5* UNL     1      -0.406  11.614  22.988  0.00  0.00    +0.000 OA
ATOM     21  H5* UNL     1       0.009  10.875  22.501  0.00  0.00    +0.000 HD
ENDBRANCH  19  20
ENDBRANCH  12  19
ENDBRANCH   9  10
BRANCH   1  22
ATOM     22  N   UNL     1       2.610   6.444  19.495  0.00  0.00    +0.000 N 
ATOM     23  H   UNL     1       3.592   6.628  19.671  0.00  0.00    +0.000 HD
BRANCH  22  32
ATOM     24  C   UNL     1       5.806   4.839  15.970  0.00  0.00    +0.000 A 
ATOM     25  C   UNL     1       5.536   6.217  16.021  0.00  0.00    +0.000 A 
ATOM     26  C   UNL     1       4.429   6.705  16.725  0.00  0.00    +0.000 A 
ATOM     27  C   UNL     1       3.594   5.799  17.357  0.00  0.00    +0.000 A 
ATOM     28  C   UNL     1       3.856   4.427  17.304  0.00  0.00    +0.000 A 
ATOM     29  C   UNL     1       4.965   3.938  16.633  0.00  0.00    +0.000 A 
ATOM     30  C   UNL     1       2.812   3.664  18.057  0.00  0.00    +0.000 C 
ATOM     31  C   UNL     1       1.663   4.685  18.073  0.00  0.00    +0.000 C 
ATOM     32  C   UNL     1       2.324   6.081  18.116  0.00  0.00    +0.000 C 
BRANCH  24  34
ATOM     33  C   UNL     1       6.790   4.248  13.889  0.00  0.00    +0.000 C 
ATOM     34  O   UNL     1       6.854   4.255  15.309  0.00  0.00    +0.000 OA
ENDBRANCH  24  34
ENDBRANCH  22  32
ENDBRANCH   1  22
TORSDOF 8
ENDMDL
MODEL 2
REMARK VINA RESULT:      -7.7      1.982      8.594
REMARK  Name = 
REMARK  9 active torsions:
REMARK  status: ('A' for Active; 'I' for Inactive)
REMARK    1  A    between atoms: C_1  and  O_2
REMARK    2  A    between atoms: O_2  and  C_3
REMARK    3  A    between atoms: C_11  and  N_12
REMARK    4  A    between atoms: N_12  and  C_13
REMARK    5  A    between atoms: N_21  and  C1*_22
REMARK    6  A    between atoms: C4*_24  and  C5*_25
REMARK    7  A    between atoms: C5*_25  and  O5*_26
REMARK    8  A    between atoms: C3*_27  and  O3*_28
REMARK    9  A    between atoms: C2*_29  and  O2*_30
REMARK                            x       y       z     vdW  Elec       q    Type
REMARK                         _______ _______ _______ _____ _____    ______ ____
ROOT
ATOM      1  C   UNL     1       1.592   6.517  20.512  0.00  0.00    +0.000 A 
ATOM      2  N   UNL     1       1.673   5.322  21.159  0.00  0.00    +0.000 NA
ATOM      3  C   UNL     1       2.548   4.395  20.723  0.00  0.00    +0.000 A 
ATOM      4  N   UNL     1       3.387   4.474  19.678  0.00  0.00    +0.000 NA
ATOM      5  C   UNL     1       3.270   5.656  19.054  0.00  0.00    +0.000 A 
ATOM      6  C   UNL     1       2.439   6.712  19.401  0.00  0.00    +0.000 A 
ATOM      7  N   UNL     1       2.620   7.768  18.527  0.00  0.00    +0.000 NA
ATOM      8  C   UNL     1       3.523   7.349  17.664  0.00  0.00    +0.000 A 
ATOM      9  N   UNL     1       3.947   6.078  17.944  0.00  0.00    +0.000 N 
ENDROOT
BRANCH   9  10
ATOM     10  C1* UNL     1       4.957   5.347  17.207  0.00  0.00    +0.000 C 
ATOM     11  O4* UNL     1       5.776   4.591  18.127  0.00  0.00    +0.000 OA
ATOM     12  C4* UNL     1       7.164   4.712  17.721  0.00  0.00    +0.000 C 
ATOM     13  C3* UNL     1       7.165   5.397  16.358  0.00  0.00    +0.000 C 
ATOM     14  C2* UNL     1       5.887   6.220  16.366  0.00  0.00    +0.000 C 
BRANCH  13  15
ATOM     15  O3* UNL     1       7.065   4.448  15.277  0.00  0.00    +0.000 OA
ATOM     16  H3* UNL     1       7.782   3.793  15.357  0.00  0.00    +0.000 HD
ENDBRANCH  13  15
BRANCH  14  17
ATOM     17  O2* UNL     1       5.390   6.427  15.043  0.00  0.00    +0.000 OA
ATOM     18  H2* UNL     1       4.825   7.228  15.088  0.00  0.00    +0.000 HD
ENDBRANCH  14  17
BRANCH  12  19
ATOM     19  C5* UNL     1       7.939   5.486  18.789  0.00  0.00    +0.000 C 
BRANCH  19  20
ATOM     20  O5* UNL     1       7.233   5.435  20.028  0.00  0.00    +0.000 OA
ATOM     21  H5* UNL     1       7.811   5.870  20.685  0.00  0.00    +0.000 HD
ENDBRANCH  19  20
ENDBRANCH  12  19
ENDBRANCH   9  10
BRANCH   1  22
ATOM     22  N   UNL     1       0.698   7.498  20.960  0.00  0.00    +0.000 N 
ATOM     23  H   UNL     1      -0.103   7.520  20.337  0.00  0.00    +0.000 HD
BRANCH  22  32
ATOM     24  C   UNL     1      -1.325  12.022  20.154  0.00  0.00    +0.000 A 
ATOM     25  C   UNL     1      -0.541  11.471  19.126  0.00  0.00    +0.000 A 
ATOM     26  C   UNL     1       0.322  10.398  19.380  0.00  0.00    +0.000 A 
ATOM     27  C   UNL     1       0.400   9.902  20.671  0.00  0.00    +0.000 A 
ATOM     28  C   UNL     1      -0.373  10.452  21.697  0.00  0.00    +0.000 A 
ATOM     29  C   UNL     1      -1.251  11.495  21.448  0.00  0.00    +0.000 A 
ATOM     30  C   UNL     1      -0.107   9.749  22.990  0.00  0.00    +0.000 C 
ATOM     31  C   UNL     1       1.269   9.126  22.701  0.00  0.00    +0.000 C 
ATOM     32  C   UNL     1       1.292   8.805  21.190  0.00  0.00    +0.000 C 
BRANCH  24  34
ATOM     33  C   UNL     1      -3.497  12.898  20.565  0.00  0.00    +0.000 C 
ATOM     34  O   UNL     1      -2.195  13.071  20.018  0.00  0.00    +0.000 OA
ENDBRANCH  24  34
ENDBRANCH  22  32
ENDBRANCH   1  22
TORSDOF 8
ENDMDL
MODEL 3
REMARK VINA RESULT:      -7.7      2.030      2.881
REMARK  Name = 
REMARK  9 active torsions:
REMARK  status: ('A' for Active; 'I' for Inactive)
REMARK    1  A    between atoms: C_1  and  O_2
REMARK    2  A    between atoms: O_2  and  C_3
REMARK    3  A    between atoms: C_11  and  N_12
REMARK    4  A    between atoms: N_12  and  C_13
REMARK    5  A    between atoms: N_21  and  C1*_22
REMARK    6  A    between atoms: C4*_24  and  C5*_25
REMARK    7  A    between atoms: C5*_25  and  O5*_26
REMARK    8  A    between atoms: C3*_27  and  O3*_28
REMARK    9  A    between atoms: C2*_29  and  O2*_30
REMARK                            x       y       z     vdW  Elec       q    Type
REMARK                         _______ _______ _______ _____ _____    ______ ____
ROOT
ATOM      1  C   UNL     1       1.337   8.656  20.358  0.00  0.00    +0.000 A 
ATOM      2  N   UNL     1       1.490   9.140  19.095  0.00  0.00    +0.000 NA
ATOM      3  C   UNL     1       0.956  10.335  18.778  0.00  0.00    +0.000 A 
ATOM      4  N   UNL     1       0.241  11.157  19.563  0.00  0.00    +0.000 NA
ATOM      5  C   UNL     1       0.096  10.643  20.793  0.00  0.00    +0.000 A 
ATOM      6  C   UNL     1       0.609   9.446  21.272  0.00  0.00    +0.000 A 
ATOM      7  N   UNL     1       0.261   9.274  22.599  0.00  0.00    +0.000 NA
ATOM      8  C   UNL     1      -0.461  10.332  22.905  0.00  0.00    +0.000 A 
ATOM      9  N   UNL     1      -0.586  11.191  21.845  0.00  0.00    +0.000 N 
ENDROOT
BRANCH   9  10
ATOM     10  C1* UNL     1      -1.287  12.457  21.867  0.00  0.00    +0.000 C 
ATOM     11  O4* UNL     1      -1.583  12.823  23.235  0.00  0.00    +0.000 OA
ATOM     12  C4* UNL     1      -2.936  13.346  23.292  0.00  0.00    +0.000 C 
ATOM     13  C3* UNL     1      -3.407  13.509  21.851  0.00  0.00    +0.000 C 
ATOM     14  C2* UNL     1      -2.601  12.471  21.087  0.00  0.00    +0.000 C 
BRANCH  13  15
ATOM     15  O3* UNL     1      -3.066  14.804  21.315  0.00  0.00    +0.000 OA
ATOM     16  H3* UNL     1      -2.642  14.689  20.445  0.00  0.00    +0.000 HD
ENDBRANCH  13  15
BRANCH  14  17
ATOM     17  O2* UNL     1      -2.419  12.850  19.722  0.00  0.00    +0.000 OA
ATOM     18  H2* UNL     1      -1.534  12.515  19.464  0.00  0.00    +0.000 HD
ENDBRANCH  14  17
BRANCH  12  19
ATOM     19  C5* UNL     1      -3.811  12.396  24.112  0.00  0.00    +0.000 C 
BRANCH  19  20
ATOM     20  O5* UNL     1      -4.736  13.148  24.895  0.00  0.00    +0.000 OA
ATOM     21  H5* UNL     1      -4.333  13.232  25.782  0.00  0.00    +0.000 HD
ENDBRANCH  19  20
ENDBRANCH  12  19
ENDBRANCH   9  10
BRANCH   1  22
ATOM     22  N   UNL     1       1.898   7.422  20.709  0.00  0.00    +0.000 N 
ATOM     23  H   UNL     1       2.860   7.570  20.999  0.00  0.00    +0.000 HD
BRANCH  22  32
ATOM     24  C   UNL     1       5.485   5.040  18.125  0.00  0.00    +0.000 A 
ATOM     25  C   UNL     1       4.895   6.167  17.527  0.00  0.00    +0.000 A 
ATOM     26  C   UNL     1       3.685   6.681  18.005  0.00  0.00    +0.000 A 
ATOM     27  C   UNL     1       3.069   6.045  19.070  0.00  0.00    +0.000 A 
ATOM     28  C   UNL     1       3.650   4.920  19.664  0.00  0.00    +0.000 A 
ATOM     29  C   UNL     1       4.862   4.422  19.215  0.00  0.00    +0.000 A 
ATOM     30  C   UNL     1       2.795   4.417  20.784  0.00  0.00    +0.000 C 
ATOM     31  C   UNL     1       1.437   5.033  20.409  0.00  0.00    +0.000 C 
ATOM     32  C   UNL     1       1.746   6.375  19.710  0.00  0.00    +0.000 C 
BRANCH  24  34
ATOM     33  C   UNL     1       6.998   4.550  16.358  0.00  0.00    +0.000 C 
ATOM     34  O   UNL     1       6.660   4.454  17.736  0.00  0.00    +0.000 OA
ENDBRANCH  24  34
ENDBRANCH  22  32
ENDBRANCH   1  22
TORSDOF 8
ENDMDL
MODEL 4
REMARK VINA RESULT:      -7.7      2.633      8.841
REMARK  Name = 
REMARK  9 active torsions:
REMARK  status: ('A' for Active; 'I' for Inactive)
REMARK    1  A    between atoms: C_1  and  O_2
REMARK    2  A    between atoms: O_2  and  C_3
REMARK    3  A    between atoms: C_11  and  N_12
REMARK    4  A    between atoms: N_12  and  C_13
REMARK    5  A    between atoms: N_21  and  C1*_22
REMARK    6  A    between atoms: C4*_24  and  C5*_25
REMARK    7  A    between atoms: C5*_25  and  O5*_26
REMARK    8  A    between atoms: C3*_27  and  O3*_28
REMARK    9  A    between atoms: C2*_29  and  O2*_30
REMARK                            x       y       z     vdW  Elec       q    Type
REMARK                         _______ _______ _______ _____ _____    ______ ____
ROOT
ATOM      1  C   UNL     1       1.636   8.886  19.162  0.00  0.00    +0.000 A 
ATOM      2  N   UNL     1       2.290   9.114  17.991  0.00  0.00    +0.000 NA
ATOM      3  C   UNL     1       3.014   8.122  17.437  0.00  0.00    +0.000 A 
ATOM      4  N   UNL     1       3.210   6.879  17.905  0.00  0.00    +0.000 NA
ATOM      5  C   UNL     1       2.565   6.694  19.066  0.00  0.00    +0.000 A 
ATOM      6  C   UNL     1       1.763   7.605  19.740  0.00  0.00    +0.000 A 
ATOM      7  N   UNL     1       1.258   7.036  20.894  0.00  0.00    +0.000 NA
ATOM      8  C   UNL     1       1.759   5.818  20.924  0.00  0.00    +0.000 A 
ATOM      9  N   UNL     1       2.554   5.564  19.838  0.00  0.00    +0.000 N 
ENDROOT
BRANCH   9  10
ATOM     10  C1* UNL     1       3.222   4.310  19.560  0.00  0.00    +0.000 C 
ATOM     11  O4* UNL     1       4.650   4.529  19.485  0.00  0.00    +0.000 OA
ATOM     12  C4* UNL     1       5.177   3.773  18.364  0.00  0.00    +0.000 C 
ATOM     13  C3* UNL     1       4.046   2.878  17.866  0.00  0.00    +0.000 C 
ATOM     14  C2* UNL     1       2.787   3.632  18.261  0.00  0.00    +0.000 C 
BRANCH  13  15
ATOM     15  O3* UNL     1       4.024   1.607  18.547  0.00  0.00    +0.000 OA
ATOM     16  H3* UNL     1       4.918   1.406  18.881  0.00  0.00    +0.000 HD
ENDBRANCH  13  15
BRANCH  14  17
ATOM     17  O2* UNL     1       1.685   2.744  18.455  0.00  0.00    +0.000 OA
ATOM     18  H2* UNL     1       0.880   3.305  18.442  0.00  0.00    +0.000 HD
ENDBRANCH  14  17
BRANCH  12  19
ATOM     19  C5* UNL     1       5.696   4.741  17.300  0.00  0.00    +0.000 C 
BRANCH  19  20
ATOM     20  O5* UNL     1       6.051   5.982  17.909  0.00  0.00    +0.000 OA
ATOM     21  H5* UNL     1       5.290   6.578  17.771  0.00  0.00    +0.000 HD
ENDBRANCH  19  20
ENDBRANCH  12  19
ENDBRANCH   9  10
BRANCH   1  22
ATOM     22  N   UNL     1       0.866   9.901  19.745  0.00  0.00    +0.000 N 
ATOM     23  H   UNL     1       0.087   9.479  20.239  0.00  0.00    +0.000 HD
BRANCH  22  32
ATOM     24  C   UNL     1      -3.689  10.850  17.856  0.00  0.00    +0.000 A 
ATOM     25  C   UNL     1      -2.822  10.054  17.088  0.00  0.00    +0.000 A 
ATOM     26  C   UNL     1      -1.450  10.017  17.363  0.00  0.00    +0.000 A 
ATOM     27  C   UNL     1      -0.961  10.797  18.398  0.00  0.00    +0.000 A 
ATOM     28  C   UNL     1      -1.818  11.595  19.160  0.00  0.00    +0.000 A 
ATOM     29  C   UNL     1      -3.181  11.615  18.912  0.00  0.00    +0.000 A 
ATOM     30  C   UNL     1      -1.052  12.340  20.207  0.00  0.00    +0.000 C 
ATOM     31  C   UNL     1       0.365  12.297  19.611  0.00  0.00    +0.000 C 
ATOM     32  C   UNL     1       0.471  10.966  18.836  0.00  0.00    +0.000 C 
BRANCH  24  34
ATOM     33  C   UNL     1      -5.782  11.565  18.725  0.00  0.00    +0.000 C 
ATOM     34  O   UNL     1      -5.040  10.964  17.671  0.00  0.00    +0.000 OA
ENDBRANCH  24  34
ENDBRANCH  22  32
ENDBRANCH   1  22
TORSDOF 8
ENDMDL
MODEL 5
REMARK VINA RESULT:      -7.6      2.882      9.077
REMARK  Name = 
REMARK  9 active torsions:
REMARK  status: ('A' for Active; 'I' for Inactive)
REMARK    1  A    between atoms: C_1  and  O_2
REMARK    2  A    between atoms: O_2  and  C_3
REMARK    3  A    between atoms: C_11  and  N_12
REMARK    4  A    between atoms: N_12  and  C_13
REMARK    5  A    between atoms: N_21  and  C1*_22
REMARK    6  A    between atoms: C4*_24  and  C5*_25
REMARK    7  A    between atoms: C5*_25  and  O5*_26
REMARK    8  A    between atoms: C3*_27  and  O3*_28
REMARK    9  A    between atoms: C2*_29  and  O2*_30
REMARK                            x       y       z     vdW  Elec       q    Type
REMARK                         _______ _______ _______ _____ _____    ______ ____
ROOT
ATOM      1  C   UNL     1       1.767   8.502  19.098  0.00  0.00    +0.000 A 
ATOM      2  N   UNL     1       2.494   8.778  17.981  0.00  0.00    +0.000 NA
ATOM      3  C   UNL     1       3.357   7.856  17.512  0.00  0.00    +0.000 A 
ATOM      4  N   UNL     1       3.633   6.644  18.021  0.00  0.00    +0.000 NA
ATOM      5  C   UNL     1       2.911   6.411  19.128  0.00  0.00    +0.000 A 
ATOM      6  C   UNL     1       1.969   7.247  19.711  0.00  0.00    +0.000 A 
ATOM      7  N   UNL     1       1.423   6.645  20.830  0.00  0.00    +0.000 NA
ATOM      8  C   UNL     1       2.037   5.484  20.929  0.00  0.00    +0.000 A 
ATOM      9  N   UNL     1       2.944   5.297  19.920  0.00  0.00    +0.000 N 
ENDROOT
BRANCH   9  10
ATOM     10  C1* UNL     1       3.754   4.112  19.726  0.00  0.00    +0.000 C 
ATOM     11  O4* UNL     1       4.023   3.934  18.317  0.00  0.00    +0.000 OA
ATOM     12  C4* UNL     1       3.877   2.528  17.991  0.00  0.00    +0.000 C 
ATOM     13  C3* UNL     1       3.727   1.782  19.313  0.00  0.00    +0.000 C 
ATOM     14  C2* UNL     1       3.125   2.820  20.246  0.00  0.00    +0.000 C 
BRANCH  13  15
ATOM     15  O3* UNL     1       5.002   1.392  19.861  0.00  0.00    +0.000 OA
ATOM     16  H3* UNL     1       4.976   0.445  20.093  0.00  0.00    +0.000 HD
ENDBRANCH  13  15
BRANCH  14  17
ATOM     17  O2* UNL     1       3.467   2.559  21.609  0.00  0.00    +0.000 OA
ATOM     18  H2* UNL     1       3.461   1.584  21.708  0.00  0.00    +0.000 HD
ENDBRANCH  14  17
BRANCH  12  19
ATOM     19  C5* UNL     1       2.682   2.346  17.053  0.00  0.00    +0.000 C 
BRANCH  19  20
ATOM     20  O5* UNL     1       1.877   3.524  17.065  0.00  0.00    +0.000 OA
ATOM     21  H5* UNL     1       2.349   4.179  16.514  0.00  0.00    +0.000 HD
ENDBRANCH  19  20
ENDBRANCH  12  19
ENDBRANCH   9  10
BRANCH   1  22
ATOM     22  N   UNL     1       0.854   9.443  19.590  0.00  0.00    +0.000 N 
ATOM     23  H   UNL     1       0.020   8.956  19.905  0.00  0.00    +0.000 HD
BRANCH  22  32
ATOM     24  C   UNL     1      -3.601  11.069  17.939  0.00  0.00    +0.000 A 
ATOM     25  C   UNL     1      -2.908  10.148  17.134  0.00  0.00    +0.000 A 
ATOM     26  C   UNL     1      -1.545   9.903  17.335  0.00  0.00    +0.000 A 
ATOM     27  C   UNL     1      -0.887  10.602  18.334  0.00  0.00    +0.000 A 
ATOM     28  C   UNL     1      -1.570  11.524  19.132  0.00  0.00    +0.000 A 
ATOM     29  C   UNL     1      -2.926  11.751  18.958  0.00  0.00    +0.000 A 
ATOM     30  C   UNL     1      -0.643  12.146  20.128  0.00  0.00    +0.000 C 
ATOM     31  C   UNL     1       0.716  11.886  19.458  0.00  0.00    +0.000 C 
ATOM     32  C   UNL     1       0.575  10.552  18.692  0.00  0.00    +0.000 C 
BRANCH  24  34
ATOM     33  C   UNL     1      -5.588  11.810  19.012  0.00  0.00    +0.000 C 
ATOM     34  O   UNL     1      -4.927  11.387  17.826  0.00  0.00    +0.000 OA
ENDBRANCH  24  34
ENDBRANCH  22  32
ENDBRANCH   1  22
TORSDOF 8
ENDMDL
MODEL 6
REMARK VINA RESULT:      -7.5      2.471      9.458
REMARK  Name = 
REMARK  9 active torsions:
REMARK  status: ('A' for Active; 'I' for Inactive)
REMARK    1  A    between atoms: C_1  and  O_2
REMARK    2  A    between atoms: O_2  and  C_3
REMARK    3  A    between atoms: C_11  and  N_12
REMARK    4  A    between atoms: N_12  and  C_13
REMARK    5  A    between atoms: N_21  and  C1*_22
REMARK    6  A    between atoms: C4*_24  and  C5*_25
REMARK    7  A    between atoms: C5*_25  and  O5*_26
REMARK    8  A    between atoms: C3*_27  and  O3*_28
REMARK    9  A    between atoms: C2*_29  and  O2*_30
REMARK                            x       y       z     vdW  Elec       q    Type
REMARK                         _______ _______ _______ _____ _____    ______ ____
ROOT
ATOM      1  C   UNL     1       1.024   9.173  19.444  0.00  0.00    +0.000 A 
ATOM      2  N   UNL     1       1.361   9.967  18.391  0.00  0.00    +0.000 NA
ATOM      3  C   UNL     1       2.291   9.542  17.515  0.00  0.00    +0.000 A 
ATOM      4  N   UNL     1       2.986   8.393  17.538  0.00  0.00    +0.000 NA
ATOM      5  C   UNL     1       2.642   7.642  18.595  0.00  0.00    +0.000 A 
ATOM      6  C   UNL     1       1.687   7.933  19.559  0.00  0.00    +0.000 A 
ATOM      7  N   UNL     1       1.606   6.902  20.477  0.00  0.00    +0.000 NA
ATOM      8  C   UNL     1       2.504   6.022  20.085  0.00  0.00    +0.000 A 
ATOM      9  N   UNL     1       3.154   6.425  18.949  0.00  0.00    +0.000 N 
ENDROOT
BRANCH   9  10
ATOM     10  C1* UNL     1       4.170   5.667  18.248  0.00  0.00    +0.000 C 
ATOM     11  O4* UNL     1       3.541   4.784  17.291  0.00  0.00    +0.000 OA
ATOM     12  C4* UNL     1       4.204   3.494  17.345  0.00  0.00    +0.000 C 
ATOM     13  C3* UNL     1       5.439   3.670  18.224  0.00  0.00    +0.000 C 
ATOM     14  C2* UNL     1       5.064   4.816  19.149  0.00  0.00    +0.000 C 
BRANCH  13  15
ATOM     15  O3* UNL     1       6.589   4.085  17.460  0.00  0.00    +0.000 OA
ATOM     16  H3* UNL     1       6.715   5.046  17.567  0.00  0.00    +0.000 HD
ENDBRANCH  13  15
BRANCH  14  17
ATOM     17  O2* UNL     1       6.220   5.528  19.595  0.00  0.00    +0.000 OA
ATOM     18  H2* UNL     1       6.889   5.429  18.885  0.00  0.00    +0.000 HD
ENDBRANCH  14  17
BRANCH  12  19
ATOM     19  C5* UNL     1       3.226   2.445  17.878  0.00  0.00    +0.000 C 
BRANCH  19  20
ATOM     20  O5* UNL     1       3.938   1.263  18.242  0.00  0.00    +0.000 OA
ATOM     21  H5* UNL     1       4.868   1.536  18.366  0.00  0.00    +0.000 HD
ENDBRANCH  19  20
ENDBRANCH  12  19
ENDBRANCH   9  10
BRANCH   1  22
ATOM     22  N   UNL     1       0.048   9.593  20.356  0.00  0.00    +0.000 N 
ATOM     23  H   UNL     1      -0.733   9.987  19.841  0.00  0.00    +0.000 HD
BRANCH  22  32
ATOM     24  C   UNL     1      -2.395  13.258  22.767  0.00  0.00    +0.000 A 
ATOM     25  C   UNL     1      -1.617  13.621  21.654  0.00  0.00    +0.000 A 
ATOM     26  C   UNL     1      -0.654  12.747  21.137  0.00  0.00    +0.000 A 
ATOM     27  C   UNL     1      -0.470  11.523  21.757  0.00  0.00    +0.000 A 
ATOM     28  C   UNL     1      -1.237  11.160  22.868  0.00  0.00    +0.000 A 
ATOM     29  C   UNL     1      -2.212  12.008  23.368  0.00  0.00    +0.000 A 
ATOM     30  C   UNL     1      -0.847   9.800  23.355  0.00  0.00    +0.000 C 
ATOM     31  C   UNL     1       0.561   9.671  22.752  0.00  0.00    +0.000 C 
ATOM     32  C   UNL     1       0.538  10.455  21.421  0.00  0.00    +0.000 C 
BRANCH  24  34
ATOM     33  C   UNL     1      -4.517  13.365  23.833  0.00  0.00    +0.000 C 
ATOM     34  O   UNL     1      -3.357  14.035  23.354  0.00  0.00    +0.000 OA
ENDBRANCH  24  34
ENDBRANCH  22  32
ENDBRANCH   1  22
TORSDOF 8
ENDMDL
MODEL 7
REMARK VINA RESULT:      -7.5      2.390      9.337
REMARK  Name = 
REMARK  9 active torsions:
REMARK  status: ('A' for Active; 'I' for Inactive)
REMARK    1  A    between atoms: C_1  and  O_2
REMARK    2  A    between atoms: O_2  and  C_3
REMARK    3  A    between atoms: C_11  and  N_12
REMARK    4  A    between atoms: N_12  and  C_13
REMARK    5  A    between atoms: N_21  and  C1*_22
REMARK    6  A    between atoms: C4*_24  and  C5*_25
REMARK    7  A    between atoms: C5*_25  and  O5*_26
REMARK    8  A    between atoms: C3*_27  and  O3*_28
REMARK    9  A    between atoms: C2*_29  and  O2*_30
REMARK                            x       y       z     vdW  Elec       q    Type
REMARK                         _______ _______ _______ _____ _____    ______ ____
ROOT
ATOM      1  C   UNL     1       0.838   9.243  19.719  0.00  0.00    +0.000 A 
ATOM      2  N   UNL     1       1.154  10.028  18.653  0.00  0.00    +0.000 NA
ATOM      3  C   UNL     1       2.033   9.576  17.739  0.00  0.00    +0.000 A 
ATOM      4  N   UNL     1       2.693   8.406  17.732  0.00  0.00    +0.000 NA
ATOM      5  C   UNL     1       2.371   7.665  18.803  0.00  0.00    +0.000 A 
ATOM      6  C   UNL     1       1.467   7.983  19.807  0.00  0.00    +0.000 A 
ATOM      7  N   UNL     1       1.394   6.954  20.728  0.00  0.00    +0.000 NA
ATOM      8  C   UNL     1       2.247   6.048  20.298  0.00  0.00    +0.000 A 
ATOM      9  N   UNL     1       2.860   6.432  19.135  0.00  0.00    +0.000 N 
ENDROOT
BRANCH   9  10
ATOM     10  C1* UNL     1       3.822   5.645  18.392  0.00  0.00    +0.000 C 
ATOM     11  O4* UNL     1       3.132   4.837  17.412  0.00  0.00    +0.000 OA
ATOM     12  C4* UNL     1       3.719   3.509  17.408  0.00  0.00    +0.000 C 
ATOM     13  C3* UNL     1       4.972   3.580  18.275  0.00  0.00    +0.000 C 
ATOM     14  C2* UNL     1       4.675   4.709  19.248  0.00  0.00    +0.000 C 
BRANCH  13  15
ATOM     15  O3* UNL     1       6.135   3.957  17.512  0.00  0.00    +0.000 OA
ATOM     16  H3* UNL     1       6.756   4.438  18.090  0.00  0.00    +0.000 HD
ENDBRANCH  13  15
BRANCH  14  17
ATOM     17  O2* UNL     1       5.876   5.335  19.705  0.00  0.00    +0.000 OA
ATOM     18  H2* UNL     1       6.545   5.180  19.005  0.00  0.00    +0.000 HD
ENDBRANCH  14  17
BRANCH  12  19
ATOM     19  C5* UNL     1       2.688   2.499  17.914  0.00  0.00    +0.000 C 
BRANCH  19  20
ATOM     20  O5* UNL     1       3.346   1.300  18.319  0.00  0.00    +0.000 OA
ATOM     21  H5* UNL     1       3.999   1.101  17.620  0.00  0.00    +0.000 HD
ENDBRANCH  19  20
ENDBRANCH  12  19
ENDBRANCH   9  10
BRANCH   1  22
ATOM     22  N   UNL     1      -0.085   9.692  20.672  0.00  0.00    +0.000 N 
ATOM     23  H   UNL     1      -0.816  10.214  20.199  0.00  0.00    +0.000 HD
BRANCH  22  32
ATOM     24  C   UNL     1      -0.747  14.484  22.020  0.00  0.00    +0.000 A 
ATOM     25  C   UNL     1       0.357  14.187  21.201  0.00  0.00    +0.000 A 
ATOM     26  C   UNL     1       0.809  12.871  21.057  0.00  0.00    +0.000 A 
ATOM     27  C   UNL     1       0.157  11.866  21.753  0.00  0.00    +0.000 A 
ATOM     28  C   UNL     1      -0.937  12.158  22.573  0.00  0.00    +0.000 A 
ATOM     29  C   UNL     1      -1.408  13.454  22.699  0.00  0.00    +0.000 A 
ATOM     30  C   UNL     1      -1.459  10.911  23.215  0.00  0.00    +0.000 C 
ATOM     31  C   UNL     1      -0.232   9.992  23.100  0.00  0.00    +0.000 C 
ATOM     32  C   UNL     1       0.497  10.400  21.801  0.00  0.00    +0.000 C 
BRANCH  24  34
ATOM     33  C   UNL     1      -1.849  15.971  23.511  0.00  0.00    +0.000 C 
ATOM     34  O   UNL     1      -1.267  15.731  22.236  0.00  0.00    +0.000 OA
ENDBRANCH  24  34
ENDBRANCH  22  32
ENDBRANCH   1  22
TORSDOF 8
ENDMDL
MODEL 8
REMARK VINA RESULT:      -7.5      2.691      9.409
REMARK  Name = 
REMARK  9 active torsions:
REMARK  status: ('A' for Active; 'I' for Inactive)
REMARK    1  A    between atoms: C_1  and  O_2
REMARK    2  A    between atoms: O_2  and  C_3
REMARK    3  A    between atoms: C_11  and  N_12
REMARK    4  A    between atoms: N_12  and  C_13
REMARK    5  A    between atoms: N_21  and  C1*_22
REMARK    6  A    between atoms: C4*_24  and  C5*_25
REMARK    7  A    between atoms: C5*_25  and  O5*_26
REMARK    8  A    between atoms: C3*_27  and  O3*_28
REMARK    9  A    between atoms: C2*_29  and  O2*_30
REMARK                            x       y       z     vdW  Elec       q    Type
REMARK                         _______ _______ _______ _____ _____    ______ ____
ROOT
ATOM      1  C   UNL     1       0.866   9.741  19.797  0.00  0.00    +0.000 A 
ATOM      2  N   UNL     1       1.165  10.419  18.655  0.00  0.00    +0.000 NA
ATOM      3  C   UNL     1       1.921   9.822  17.713  0.00  0.00    +0.000 A 
ATOM      4  N   UNL     1       2.465   8.595  17.743  0.00  0.00    +0.000 NA
ATOM      5  C   UNL     1       2.164   7.962  18.887  0.00  0.00    +0.000 A 
ATOM      6  C   UNL     1       1.380   8.434  19.930  0.00  0.00    +0.000 A 
ATOM      7  N   UNL     1       1.286   7.481  20.927  0.00  0.00    +0.000 NA
ATOM      8  C   UNL     1       2.013   6.468  20.503  0.00  0.00    +0.000 A 
ATOM      9  N   UNL     1       2.562   6.711  19.272  0.00  0.00    +0.000 N 
ENDROOT
BRANCH   9  10
ATOM     10  C1* UNL     1       3.382   5.785  18.519  0.00  0.00    +0.000 C 
ATOM     11  O4* UNL     1       2.545   5.013  17.627  0.00  0.00    +0.000 OA
ATOM     12  C4* UNL     1       2.981   3.630  17.663  0.00  0.00    +0.000 C 
ATOM     13  C3* UNL     1       4.288   3.600  18.449  0.00  0.00    +0.000 C 
ATOM     14  C2* UNL     1       4.180   4.802  19.374  0.00  0.00    +0.000 C 
BRANCH  13  15
ATOM     15  O3* UNL     1       5.434   3.806  17.600  0.00  0.00    +0.000 OA
ATOM     16  H3* UNL     1       6.248   3.699  18.127  0.00  0.00    +0.000 HD
ENDBRANCH  13  15
BRANCH  14  17
ATOM     17  O2* UNL     1       5.469   5.310  19.724  0.00  0.00    +0.000 OA
ATOM     18  H2* UNL     1       5.736   5.902  18.989  0.00  0.00    +0.000 HD
ENDBRANCH  14  17
BRANCH  12  19
ATOM     19  C5* UNL     1       1.881   2.768  18.284  0.00  0.00    +0.000 C 
BRANCH  19  20
ATOM     20  O5* UNL     1       2.393   1.469  18.577  0.00  0.00    +0.000 OA
ATOM     21  H5* UNL     1       1.785   1.082  19.237  0.00  0.00    +0.000 HD
ENDBRANCH  19  20
ENDBRANCH  12  19
ENDBRANCH   9  10
BRANCH   1  22
ATOM     22  N   UNL     1       0.070  10.342  20.781  0.00  0.00    +0.000 N 
ATOM     23  H   UNL     1      -0.769   9.785  20.908  0.00  0.00    +0.000 HD
BRANCH  22  32
ATOM     24  C   UNL     1      -4.371  12.679  20.611  0.00  0.00    +0.000 A 
ATOM     25  C   UNL     1      -3.814  12.256  19.391  0.00  0.00    +0.000 A 
ATOM     26  C   UNL     1      -2.461  11.911  19.303  0.00  0.00    +0.000 A 
ATOM     27  C   UNL     1      -1.676  12.012  20.439  0.00  0.00    +0.000 A 
ATOM     28  C   UNL     1      -2.224  12.439  21.652  0.00  0.00    +0.000 A 
ATOM     29  C   UNL     1      -3.568  12.755  21.755  0.00  0.00    +0.000 A 
ATOM     30  C   UNL     1      -1.177  12.468  22.721  0.00  0.00    +0.000 C 
ATOM     31  C   UNL     1       0.102  12.538  21.869  0.00  0.00    +0.000 C 
ATOM     32  C   UNL     1      -0.197  11.756  20.571  0.00  0.00    +0.000 C 
BRANCH  24  34
ATOM     33  C   UNL     1      -6.576  12.807  19.733  0.00  0.00    +0.000 C 
ATOM     34  O   UNL     1      -5.675  13.044  20.808  0.00  0.00    +0.000 OA
ENDBRANCH  24  34
ENDBRANCH  22  32
ENDBRANCH   1  22
TORSDOF 8
ENDMDL
MODEL 9
REMARK VINA RESULT:      -7.5      1.249      2.085
REMARK  Name = 
REMARK  9 active torsions:
REMARK  status: ('A' for Active; 'I' for Inactive)
REMARK    1  A    between atoms: C_1  and  O_2
REMARK    2  A    between atoms: O_2  and  C_3
REMARK    3  A    between atoms: C_11  and  N_12
REMARK    4  A    between atoms: N_12  and  C_13
REMARK    5  A    between atoms: N_21  and  C1*_22
REMARK    6  A    between atoms: C4*_24  and  C5*_25
REMARK    7  A    between atoms: C5*_25  and  O5*_26
REMARK    8  A    between atoms: C3*_27  and  O3*_28
REMARK    9  A    between atoms: C2*_29  and  O2*_30
REMARK                            x       y       z     vdW  Elec       q    Type
REMARK                         _______ _______ _______ _____ _____    ______ ____
ROOT
ATOM      1  C   UNL     1       1.933   7.339  20.011  0.00  0.00    +0.000 A 
ATOM      2  N   UNL     1       1.274   7.157  21.188  0.00  0.00    +0.000 NA
ATOM      3  C   UNL     1       0.533   8.163  21.691  0.00  0.00    +0.000 A 
ATOM      4  N   UNL     1       0.352   9.393  21.182  0.00  0.00    +0.000 NA
ATOM      5  C   UNL     1       1.026   9.543  20.033  0.00  0.00    +0.000 A 
ATOM      6  C   UNL     1       1.803   8.595  19.381  0.00  0.00    +0.000 A 
ATOM      7  N   UNL     1       2.319   9.122  18.212  0.00  0.00    +0.000 NA
ATOM      8  C   UNL     1       1.880  10.363  18.171  0.00  0.00    +0.000 A 
ATOM      9  N   UNL     1       1.091  10.663  19.250  0.00  0.00    +0.000 N 
ENDROOT
BRANCH   9  10
ATOM     10  C1* UNL     1       0.429  11.930  19.481  0.00  0.00    +0.000 C 
ATOM     11  O4* UNL     1       0.638  12.799  18.344  0.00  0.00    +0.000 OA
ATOM     12  C4* UNL     1       0.929  14.135  18.830  0.00  0.00    +0.000 C 
ATOM     13  C3* UNL     1       0.669  14.124  20.333  0.00  0.00    +0.000 C 
ATOM     14  C2* UNL     1       0.900  12.675  20.729  0.00  0.00    +0.000 C 
BRANCH  13  15
ATOM     15  O3* UNL     1      -0.700  14.448  20.646  0.00  0.00    +0.000 OA
ATOM     16  H3* UNL     1      -0.728  14.953  21.480  0.00  0.00    +0.000 HD
ENDBRANCH  13  15
BRANCH  14  17
ATOM     17  O2* UNL     1       0.145  12.323  21.890  0.00  0.00    +0.000 OA
ATOM     18  H2* UNL     1      -0.582  11.745  21.574  0.00  0.00    +0.000 HD
ENDBRANCH  14  17
BRANCH  12  19
ATOM     19  C5* UNL     1       2.369  14.503  18.467  0.00  0.00    +0.000 C 
BRANCH  19  20
ATOM     20  O5* UNL     1       2.860  13.604  17.474  0.00  0.00    +0.000 OA
ATOM     21  H5* UNL     1       3.605  13.125  17.888  0.00  0.00    +0.000 HD
ENDBRANCH  19  20
ENDBRANCH  12  19
ENDBRANCH   9  10
BRANCH   1  22
ATOM     22  N   UNL     1       2.696   6.299  19.466  0.00  0.00    +0.000 N 
ATOM     23  H   UNL     1       3.678   6.492  19.632  0.00  0.00    +0.000 HD
BRANCH  22  32
ATOM     24  C   UNL     1       5.856   4.866  15.836  0.00  0.00    +0.000 A 
ATOM     25  C   UNL     1       5.565   6.238  15.938  0.00  0.00    +0.000 A 
ATOM     26  C   UNL     1       4.463   6.684  16.677  0.00  0.00    +0.000 A 
ATOM     27  C   UNL     1       3.653   5.743  17.292  0.00  0.00    +0.000 A 
ATOM     28  C   UNL     1       3.935   4.378  17.187  0.00  0.00    +0.000 A 
ATOM     29  C   UNL     1       5.040   3.930  16.481  0.00  0.00    +0.000 A 
ATOM     30  C   UNL     1       2.916   3.573  17.930  0.00  0.00    +0.000 C 
ATOM     31  C   UNL     1       1.752   4.575  18.001  0.00  0.00    +0.000 C 
ATOM     32  C   UNL     1       2.392   5.979  18.080  0.00  0.00    +0.000 C 
BRANCH  24  34
ATOM     33  C   UNL     1       6.665   4.015  13.769  0.00  0.00    +0.000 C 
ATOM     34  O   UNL     1       6.900   4.323  15.138  0.00  0.00    +0.000 OA
ENDBRANCH  24  34
ENDBRANCH  22  32
ENDBRANCH   1  22
TORSDOF 8
ENDMDL
