MODEL 1
REMARK VINA RESULT:      -8.1      0.000      0.000
REMARK  Name = 
REMARK  4 active torsions:
REMARK  status: ('A' for Active; 'I' for Inactive)
REMARK    1  A    between atoms: C_1  and  C_2
REMARK    2  A    between atoms: C_9  and  S_10
REMARK    3  A    between atoms: S_10  and  C_11
REMARK    4  A    between atoms: C_11  and  C_12
REMARK                            x       y       z     vdW  Elec       q    Type
REMARK                         _______ _______ _______ _____ _____    ______ ____
ROOT
ATOM      1  S   UNL     1       2.999   5.100  19.969  0.00  0.00    +0.000 S 
ENDROOT
BRANCH   1  10
ATOM      2  C   UNL     1       0.264   9.326  22.853  0.00  0.00    +0.000 C 
ATOM      3  C   UNL     1       0.624   9.462  21.425  0.00  0.00    +0.000 A 
ATOM      4  C   UNL     1       0.400  10.569  20.575  0.00  0.00    +0.000 A 
ATOM      5  N   UNL     1       0.857  10.377  19.337  0.00  0.00    +0.000 NA
ATOM      6  N   UNL     1       1.391   9.132  19.382  0.00  0.00    +0.000 N 
ATOM      7  C   UNL     1       2.017   8.514  18.290  0.00  0.00    +0.000 A 
ATOM      8  O   UNL     1       2.130   9.043  17.194  0.00  0.00    +0.000 OA
ATOM      9  N   UNL     1       2.471   7.257  18.633  0.00  0.00    +0.000 N 
ATOM     10  C   UNL     1       2.309   6.692  19.870  0.00  0.00    +0.000 A 
ATOM     11  N   UNL     1       1.726   7.272  20.869  0.00  0.00    +0.000 NA
ATOM     12  C   UNL     1       1.261   8.532  20.625  0.00  0.00    +0.000 A 
ATOM     13  H   UNL     1       2.944   6.733  17.914  0.00  0.00    +0.000 HD
ENDBRANCH   1  10
BRANCH   1  14
ATOM     14  C   UNL     1       3.523   4.857  18.241  0.00  0.00    +0.000 C 
BRANCH  14  15
ATOM     15  C   UNL     1       5.037   4.885  18.130  0.00  0.00    +0.000 A 
ATOM     16  N   UNL     1       5.728   5.168  19.298  0.00  0.00    +0.000 N 
ATOM     17  C   UNL     1       7.089   5.218  19.407  0.00  0.00    +0.000 A 
ATOM     18  O   UNL     1       7.645   5.475  20.469  0.00  0.00    +0.000 OA
ATOM     19  N   UNL     1       7.783   4.959  18.265  0.00  0.00    +0.000 N 
ATOM     20  C   UNL     1       7.227   4.649  17.055  0.00  0.00    +0.000 A 
ATOM     21  O   UNL     1       7.932   4.410  16.078  0.00  0.00    +0.000 OA
ATOM     22  C   UNL     1       5.733   4.616  17.009  0.00  0.00    +0.000 A 
ATOM     23 CL   UNL     1       5.010   4.215  15.498  0.00  0.00    +0.000 Cl
ATOM     24  H   UNL     1       5.219   5.379  20.151  0.00  0.00    +0.000 HD
ATOM     25  H   UNL     1       8.791   4.983  18.320  0.00  0.00    +0.000 HD
ENDBRANCH  14  15
ENDBRANCH   1  14
TORSDOF 3
ENDMDL
MODEL 2
REMARK VINA RESULT:      -7.8      3.445      5.883
REMARK  Name = 
REMARK  4 active torsions:
REMARK  status: ('A' for Active; 'I' for Inactive)
REMARK    1  A    between atoms: C_1  and  C_2
REMARK    2  A    between atoms: C_9  and  S_10
REMARK    3  A    between atoms: S_10  and  C_11
REMARK    4  A    between atoms: C_11  and  C_12
REMARK                            x       y       z     vdW  Elec       q    Type
REMARK                         _______ _______ _______ _____ _____    ______ ____
ROOT
ATOM      1  S   UNL     1       4.092   2.645  17.323  0.00  0.00    +0.000 S 
ENDROOT
BRANCH   1  10
ATOM      2  C   UNL     1       8.317   5.570  20.016  0.00  0.00    +0.000 C 
ATOM      3  C   UNL     1       7.653   6.097  18.804  0.00  0.00    +0.000 A 
ATOM      4  C   UNL     1       7.921   7.306  18.123  0.00  0.00    +0.000 A 
ATOM      5  N   UNL     1       7.149   7.483  17.050  0.00  0.00    +0.000 NA
ATOM      6  N   UNL     1       6.373   6.372  17.028  0.00  0.00    +0.000 N 
ATOM      7  C   UNL     1       5.409   6.117  16.040  0.00  0.00    +0.000 A 
ATOM      8  O   UNL     1       5.179   6.880  15.114  0.00  0.00    +0.000 OA
ATOM      9  N   UNL     1       4.783   4.910  16.270  0.00  0.00    +0.000 N 
ATOM     10  C   UNL     1       5.059   4.090  17.332  0.00  0.00    +0.000 A 
ATOM     11  N   UNL     1       5.948   4.339  18.238  0.00  0.00    +0.000 NA
ATOM     12  C   UNL     1       6.633   5.508  18.080  0.00  0.00    +0.000 A 
ATOM     13  H   UNL     1       4.076   4.632  15.608  0.00  0.00    +0.000 HD
ENDBRANCH   1  10
BRANCH   1  14
ATOM     14  C   UNL     1       2.427   3.357  17.521  0.00  0.00    +0.000 C 
BRANCH  14  15
ATOM     15  C   UNL     1       2.307   4.081  18.850  0.00  0.00    +0.000 A 
ATOM     16  N   UNL     1       2.368   3.286  19.984  0.00  0.00    +0.000 N 
ATOM     17  C   UNL     1       2.301   3.750  21.267  0.00  0.00    +0.000 A 
ATOM     18  O   UNL     1       2.358   2.997  22.233  0.00  0.00    +0.000 OA
ATOM     19  N   UNL     1       2.170   5.098  21.401  0.00  0.00    +0.000 N 
ATOM     20  C   UNL     1       2.116   5.995  20.370  0.00  0.00    +0.000 A 
ATOM     21  O   UNL     1       2.017   7.199  20.584  0.00  0.00    +0.000 OA
ATOM     22  C   UNL     1       2.193   5.415  18.993  0.00  0.00    +0.000 A 
ATOM     23 CL   UNL     1       2.140   6.526  17.679  0.00  0.00    +0.000 Cl
ATOM     24  H   UNL     1       2.448   2.278  19.894  0.00  0.00    +0.000 HD
ATOM     25  H   UNL     1       2.124   5.468  22.340  0.00  0.00    +0.000 HD
ENDBRANCH  14  15
ENDBRANCH   1  14
TORSDOF 3
ENDMDL
MODEL 3
REMARK VINA RESULT:      -7.5      3.358      5.978
REMARK  Name = 
REMARK  4 active torsions:
REMARK  status: ('A' for Active; 'I' for Inactive)
REMARK    1  A    between atoms: C_1  and  C_2
REMARK    2  A    between atoms: C_9  and  S_10
REMARK    3  A    between atoms: S_10  and  C_11
REMARK    4  A    between atoms: C_11  and  C_12
REMARK                            x       y       z     vdW  Elec       q    Type
REMARK                         _______ _______ _______ _____ _____    ______ ____
ROOT
ATOM      1  S   UNL     1       4.038   2.783  17.037  0.00  0.00    +0.000 S 
ENDROOT
BRANCH   1  10
ATOM      2  C   UNL     1       8.265   5.532  19.906  0.00  0.00    +0.000 C 
ATOM      3  C   UNL     1       7.626   6.118  18.709  0.00  0.00    +0.000 A 
ATOM      4  C   UNL     1       7.919   7.352  18.084  0.00  0.00    +0.000 A 
ATOM      5  N   UNL     1       7.164   7.585  17.010  0.00  0.00    +0.000 NA
ATOM      6  N   UNL     1       6.373   6.487  16.930  0.00  0.00    +0.000 N 
ATOM      7  C   UNL     1       5.420   6.287  15.920  0.00  0.00    +0.000 A 
ATOM      8  O   UNL     1       5.213   7.092  15.024  0.00  0.00    +0.000 OA
ATOM      9  N   UNL     1       4.774   5.081  16.089  0.00  0.00    +0.000 N 
ATOM     10  C   UNL     1       5.024   4.212  17.119  0.00  0.00    +0.000 A 
ATOM     11  N   UNL     1       5.904   4.410  18.046  0.00  0.00    +0.000 NA
ATOM     12  C   UNL     1       6.608   5.576  17.947  0.00  0.00    +0.000 A 
ATOM     13  H   UNL     1       4.073   4.841  15.407  0.00  0.00    +0.000 HD
ENDBRANCH   1  10
BRANCH   1  14
ATOM     14  C   UNL     1       2.393   3.494  17.362  0.00  0.00    +0.000 C 
BRANCH  14  15
ATOM     15  C   UNL     1       2.324   4.068  18.766  0.00  0.00    +0.000 A 
ATOM     16  N   UNL     1       2.311   5.451  18.859  0.00  0.00    +0.000 N 
ATOM     17  C   UNL     1       2.230   6.154  20.027  0.00  0.00    +0.000 A 
ATOM     18  O   UNL     1       2.224   7.380  20.046  0.00  0.00    +0.000 OA
ATOM     19  N   UNL     1       2.154   5.407  21.162  0.00  0.00    +0.000 N 
ATOM     20  C   UNL     1       2.139   4.041  21.210  0.00  0.00    +0.000 A 
ATOM     21  O   UNL     1       2.048   3.447  22.281  0.00  0.00    +0.000 OA
ATOM     22  C   UNL     1       2.233   3.338  19.893  0.00  0.00    +0.000 A 
ATOM     23 CL   UNL     1       2.204   1.616  19.928  0.00  0.00    +0.000 Cl
ATOM     24  H   UNL     1       2.384   6.017  18.018  0.00  0.00    +0.000 HD
ATOM     25  H   UNL     1       2.088   5.903  22.039  0.00  0.00    +0.000 HD
ENDBRANCH  14  15
ENDBRANCH   1  14
TORSDOF 3
ENDMDL
MODEL 4
REMARK VINA RESULT:      -7.5      2.820      4.443
REMARK  Name = 
REMARK  4 active torsions:
REMARK  status: ('A' for Active; 'I' for Inactive)
REMARK    1  A    between atoms: C_1  and  C_2
REMARK    2  A    between atoms: C_9  and  S_10
REMARK    3  A    between atoms: S_10  and  C_11
REMARK    4  A    between atoms: C_11  and  C_12
REMARK                            x       y       z     vdW  Elec       q    Type
REMARK                         _______ _______ _______ _____ _____    ______ ____
ROOT
ATOM      1  S   UNL     1       3.730   7.596  16.959  0.00  0.00    +0.000 S 
ENDROOT
BRANCH   1  10
ATOM      2  C   UNL     1       2.355   2.039  17.906  0.00  0.00    +0.000 C 
ATOM      3  C   UNL     1       2.001   3.106  18.867  0.00  0.00    +0.000 A 
ATOM      4  C   UNL     1       1.332   2.971  20.105  0.00  0.00    +0.000 A 
ATOM      5  N   UNL     1       1.176   4.133  20.743  0.00  0.00    +0.000 NA
ATOM      6  N   UNL     1       1.755   5.034  19.913  0.00  0.00    +0.000 N 
ATOM      7  C   UNL     1       1.845   6.405  20.194  0.00  0.00    +0.000 A 
ATOM      8  O   UNL     1       1.400   6.911  21.214  0.00  0.00    +0.000 OA
ATOM      9  N   UNL     1       2.492   7.072  19.176  0.00  0.00    +0.000 N 
ATOM     10  C   UNL     1       2.962   6.470  18.039  0.00  0.00    +0.000 A 
ATOM     11  N   UNL     1       2.870   5.204  17.789  0.00  0.00    +0.000 NA
ATOM     12  C   UNL     1       2.258   4.459  18.756  0.00  0.00    +0.000 A 
ATOM     13  H   UNL     1       2.614   8.066  19.289  0.00  0.00    +0.000 HD
ENDBRANCH   1  10
BRANCH   1  14
ATOM     14  C   UNL     1       5.122   6.586  16.360  0.00  0.00    +0.000 C 
BRANCH  14  15
ATOM     15  C   UNL     1       6.310   6.699  17.299  0.00  0.00    +0.000 A 
ATOM     16  N   UNL     1       6.988   7.908  17.280  0.00  0.00    +0.000 N 
ATOM     17  C   UNL     1       8.064   8.212  18.064  0.00  0.00    +0.000 A 
ATOM     18  O   UNL     1       8.625   9.301  18.002  0.00  0.00    +0.000 OA
ATOM     19  N   UNL     1       8.470   7.231  18.917  0.00  0.00    +0.000 N 
ATOM     20  C   UNL     1       7.881   6.004  19.048  0.00  0.00    +0.000 A 
ATOM     21  O   UNL     1       8.302   5.185  19.860  0.00  0.00    +0.000 OA
ATOM     22  C   UNL     1       6.709   5.741  18.156  0.00  0.00    +0.000 A 
ATOM     23 CL   UNL     1       5.943   4.207  18.313  0.00  0.00    +0.000 Cl
ATOM     24  H   UNL     1       6.704   8.640  16.636  0.00  0.00    +0.000 HD
ATOM     25  H   UNL     1       9.260   7.433  19.512  0.00  0.00    +0.000 HD
ENDBRANCH  14  15
ENDBRANCH   1  14
TORSDOF 3
ENDMDL
MODEL 5
REMARK VINA RESULT:      -7.5      4.629      7.424
REMARK  Name = 
REMARK  4 active torsions:
REMARK  status: ('A' for Active; 'I' for Inactive)
REMARK    1  A    between atoms: C_1  and  C_2
REMARK    2  A    between atoms: C_9  and  S_10
REMARK    3  A    between atoms: S_10  and  C_11
REMARK    4  A    between atoms: C_11  and  C_12
REMARK                            x       y       z     vdW  Elec       q    Type
REMARK                         _______ _______ _______ _____ _____    ______ ____
ROOT
ATOM      1  S   UNL     1       3.484   3.925  16.914  0.00  0.00    +0.000 S 
ENDROOT
BRANCH   1  10
ATOM      2  C   UNL     1       6.183   3.243  11.825  0.00  0.00    +0.000 C 
ATOM      3  C   UNL     1       6.733   4.109  12.890  0.00  0.00    +0.000 A 
ATOM      4  C   UNL     1       7.915   4.883  12.855  0.00  0.00    +0.000 A 
ATOM      5  N   UNL     1       8.125   5.567  13.981  0.00  0.00    +0.000 NA
ATOM      6  N   UNL     1       7.063   5.238  14.757  0.00  0.00    +0.000 N 
ATOM      7  C   UNL     1       6.853   5.751  16.046  0.00  0.00    +0.000 A 
ATOM      8  O   UNL     1       7.617   6.537  16.587  0.00  0.00    +0.000 OA
ATOM      9  N   UNL     1       5.690   5.248  16.589  0.00  0.00    +0.000 N 
ATOM     10  C   UNL     1       4.868   4.354  15.954  0.00  0.00    +0.000 A 
ATOM     11  N   UNL     1       5.075   3.886  14.765  0.00  0.00    +0.000 NA
ATOM     12  C   UNL     1       6.198   4.346  14.142  0.00  0.00    +0.000 A 
ATOM     13  H   UNL     1       5.446   5.564  17.513  0.00  0.00    +0.000 HD
ENDBRANCH   1  10
BRANCH   1  14
ATOM     14  C   UNL     1       3.953   4.656  18.516  0.00  0.00    +0.000 C 
BRANCH  14  15
ATOM     15  C   UNL     1       3.710   3.671  19.647  0.00  0.00    +0.000 A 
ATOM     16  N   UNL     1       4.707   2.733  19.862  0.00  0.00    +0.000 N 
ATOM     17  C   UNL     1       4.684   1.780  20.841  0.00  0.00    +0.000 A 
ATOM     18  O   UNL     1       5.597   0.974  20.982  0.00  0.00    +0.000 OA
ATOM     19  N   UNL     1       3.588   1.788  21.647  0.00  0.00    +0.000 N 
ATOM     20  C   UNL     1       2.544   2.668  21.556  0.00  0.00    +0.000 A 
ATOM     21  O   UNL     1       1.602   2.614  22.341  0.00  0.00    +0.000 OA
ATOM     22  C   UNL     1       2.636   3.681  20.459  0.00  0.00    +0.000 A 
ATOM     23 CL   UNL     1       1.340   4.807  20.332  0.00  0.00    +0.000 Cl
ATOM     24  H   UNL     1       5.521   2.708  19.255  0.00  0.00    +0.000 HD
ATOM     25  H   UNL     1       3.549   1.098  22.383  0.00  0.00    +0.000 HD
ENDBRANCH  14  15
ENDBRANCH   1  14
TORSDOF 3
ENDMDL
MODEL 6
REMARK VINA RESULT:      -7.4      2.723      7.216
REMARK  Name = 
REMARK  4 active torsions:
REMARK  status: ('A' for Active; 'I' for Inactive)
REMARK    1  A    between atoms: C_1  and  C_2
REMARK    2  A    between atoms: C_9  and  S_10
REMARK    3  A    between atoms: S_10  and  C_11
REMARK    4  A    between atoms: C_11  and  C_12
REMARK                            x       y       z     vdW  Elec       q    Type
REMARK                         _______ _______ _______ _____ _____    ______ ____
ROOT
ATOM      1  S   UNL     1       3.975   3.552  18.507  0.00  0.00    +0.000 S 
ENDROOT
BRANCH   1  10
ATOM      2  C   UNL     1       5.406   3.333  12.889  0.00  0.00    +0.000 C 
ATOM      3  C   UNL     1       6.177   4.138  13.860  0.00  0.00    +0.000 A 
ATOM      4  C   UNL     1       7.305   4.953  13.610  0.00  0.00    +0.000 A 
ATOM      5  N   UNL     1       7.764   5.559  14.706  0.00  0.00    +0.000 NA
ATOM      6  N   UNL     1       6.921   5.139  15.681  0.00  0.00    +0.000 N 
ATOM      7  C   UNL     1       7.014   5.549  17.020  0.00  0.00    +0.000 A 
ATOM      8  O   UNL     1       7.871   6.319  17.427  0.00  0.00    +0.000 OA
ATOM      9  N   UNL     1       6.020   4.969  17.779  0.00  0.00    +0.000 N 
ATOM     10  C   UNL     1       5.086   4.096  17.286  0.00  0.00    +0.000 A 
ATOM     11  N   UNL     1       5.013   3.723  16.049  0.00  0.00    +0.000 NA
ATOM     12  C   UNL     1       5.950   4.265  15.218  0.00  0.00    +0.000 A 
ATOM     13  H   UNL     1       5.997   5.208  18.757  0.00  0.00    +0.000 HD
ENDBRANCH   1  10
BRANCH   1  14
ATOM     14  C   UNL     1       2.436   4.336  17.931  0.00  0.00    +0.000 C 
BRANCH  14  15
ATOM     15  C   UNL     1       2.268   5.711  18.553  0.00  0.00    +0.000 A 
ATOM     16  N   UNL     1       2.402   6.790  17.693  0.00  0.00    +0.000 N 
ATOM     17  C   UNL     1       2.266   8.100  18.055  0.00  0.00    +0.000 A 
ATOM     18  O   UNL     1       2.398   9.013  17.249  0.00  0.00    +0.000 OA
ATOM     19  N   UNL     1       1.972   8.322  19.366  0.00  0.00    +0.000 N 
ATOM     20  C   UNL     1       1.795   7.351  20.313  0.00  0.00    +0.000 A 
ATOM     21  O   UNL     1       1.511   7.643  21.471  0.00  0.00    +0.000 OA
ATOM     22  C   UNL     1       1.963   5.941  19.844  0.00  0.00    +0.000 A 
ATOM     23 CL   UNL     1       1.732   4.700  21.016  0.00  0.00    +0.000 Cl
ATOM     24  H   UNL     1       2.639   6.635  16.717  0.00  0.00    +0.000 HD
ATOM     25  H   UNL     1       1.860   9.282  19.659  0.00  0.00    +0.000 HD
ENDBRANCH  14  15
ENDBRANCH   1  14
TORSDOF 3
ENDMDL
MODEL 7
REMARK VINA RESULT:      -7.4      2.216      2.950
REMARK  Name = 
REMARK  4 active torsions:
REMARK  status: ('A' for Active; 'I' for Inactive)
REMARK    1  A    between atoms: C_1  and  C_2
REMARK    2  A    between atoms: C_9  and  S_10
REMARK    3  A    between atoms: S_10  and  C_11
REMARK    4  A    between atoms: C_11  and  C_12
REMARK                            x       y       z     vdW  Elec       q    Type
REMARK                         _______ _______ _______ _____ _____    ______ ____
ROOT
ATOM      1  S   UNL     1       2.889   3.355  16.974  0.00  0.00    +0.000 S 
ENDROOT
BRANCH   1  10
ATOM      2  C   UNL     1       1.946   9.023  17.780  0.00  0.00    +0.000 C 
ATOM      3  C   UNL     1       1.958   8.065  18.907  0.00  0.00    +0.000 A 
ATOM      4  C   UNL     1       1.741   8.335  20.277  0.00  0.00    +0.000 A 
ATOM      5  N   UNL     1       1.809   7.244  21.041  0.00  0.00    +0.000 NA
ATOM      6  N   UNL     1       2.068   6.250  20.157  0.00  0.00    +0.000 N 
ATOM      7  C   UNL     1       2.203   4.901  20.520  0.00  0.00    +0.000 A 
ATOM      8  O   UNL     1       2.104   4.504  21.672  0.00  0.00    +0.000 OA
ATOM      9  N   UNL     1       2.454   4.120  19.412  0.00  0.00    +0.000 N 
ATOM     10  C   UNL     1       2.574   4.608  18.138  0.00  0.00    +0.000 A 
ATOM     11  N   UNL     1       2.451   5.855  17.817  0.00  0.00    +0.000 NA
ATOM     12  C   UNL     1       2.181   6.703  18.852  0.00  0.00    +0.000 A 
ATOM     13  H   UNL     1       2.559   3.131  19.569  0.00  0.00    +0.000 HD
ENDBRANCH   1  10
BRANCH   1  14
ATOM     14  C   UNL     1       4.490   2.734  17.580  0.00  0.00    +0.000 C 
BRANCH  14  15
ATOM     15  C   UNL     1       5.532   3.838  17.572  0.00  0.00    +0.000 A 
ATOM     16  N   UNL     1       6.013   4.230  18.811  0.00  0.00    +0.000 N 
ATOM     17  C   UNL     1       6.966   5.188  19.012  0.00  0.00    +0.000 A 
ATOM     18  O   UNL     1       7.352   5.494  20.135  0.00  0.00    +0.000 OA
ATOM     19  N   UNL     1       7.459   5.775  17.887  0.00  0.00    +0.000 N 
ATOM     20  C   UNL     1       7.087   5.470  16.607  0.00  0.00    +0.000 A 
ATOM     21  O   UNL     1       7.599   6.038  15.647  0.00  0.00    +0.000 OA
ATOM     22  C   UNL     1       6.037   4.414  16.465  0.00  0.00    +0.000 A 
ATOM     23 CL   UNL     1       5.561   4.004  14.861  0.00  0.00    +0.000 Cl
ATOM     24  H   UNL     1       5.640   3.810  19.658  0.00  0.00    +0.000 HD
ATOM     25  H   UNL     1       8.169   6.483  18.007  0.00  0.00    +0.000 HD
ENDBRANCH  14  15
ENDBRANCH   1  14
TORSDOF 3
ENDMDL
MODEL 8
REMARK VINA RESULT:      -7.4      3.479      7.545
REMARK  Name = 
REMARK  4 active torsions:
REMARK  status: ('A' for Active; 'I' for Inactive)
REMARK    1  A    between atoms: C_1  and  C_2
REMARK    2  A    between atoms: C_9  and  S_10
REMARK    3  A    between atoms: S_10  and  C_11
REMARK    4  A    between atoms: C_11  and  C_12
REMARK                            x       y       z     vdW  Elec       q    Type
REMARK                         _______ _______ _______ _____ _____    ______ ____
ROOT
ATOM      1  S   UNL     1       4.403   3.076  17.510  0.00  0.00    +0.000 S 
ENDROOT
BRANCH   1  10
ATOM      2  C   UNL     1       5.980   2.864  11.931  0.00  0.00    +0.000 C 
ATOM      3  C   UNL     1       6.573   3.838  12.873  0.00  0.00    +0.000 A 
ATOM      4  C   UNL     1       7.543   4.829  12.601  0.00  0.00    +0.000 A 
ATOM      5  N   UNL     1       7.861   5.556  13.673  0.00  0.00    +0.000 NA
ATOM      6  N   UNL     1       7.083   5.037  14.654  0.00  0.00    +0.000 N 
ATOM      7  C   UNL     1       7.070   5.517  15.973  0.00  0.00    +0.000 A 
ATOM      8  O   UNL     1       7.767   6.445  16.355  0.00  0.00    +0.000 OA
ATOM      9  N   UNL     1       6.178   4.802  16.744  0.00  0.00    +0.000 N 
ATOM     10  C   UNL     1       5.427   3.755  16.280  0.00  0.00    +0.000 A 
ATOM     11  N   UNL     1       5.451   3.319  15.062  0.00  0.00    +0.000 NA
ATOM     12  C   UNL     1       6.295   3.982  14.219  0.00  0.00    +0.000 A 
ATOM     13  H   UNL     1       6.090   5.077  17.709  0.00  0.00    +0.000 HD
ENDBRANCH   1  10
BRANCH   1  14
ATOM     14  C   UNL     1       2.893   4.065  17.269  0.00  0.00    +0.000 C 
BRANCH  14  15
ATOM     15  C   UNL     1       2.407   4.633  18.591  0.00  0.00    +0.000 A 
ATOM     16  N   UNL     1       1.997   3.708  19.538  0.00  0.00    +0.000 N 
ATOM     17  C   UNL     1       1.550   4.018  20.790  0.00  0.00    +0.000 A 
ATOM     18  O   UNL     1       1.199   3.154  21.586  0.00  0.00    +0.000 OA
ATOM     19  N   UNL     1       1.523   5.345  21.096  0.00  0.00    +0.000 N 
ATOM     20  C   UNL     1       1.915   6.356  20.264  0.00  0.00    +0.000 A 
ATOM     21  O   UNL     1       1.875   7.527  20.630  0.00  0.00    +0.000 OA
ATOM     22  C   UNL     1       2.391   5.942  18.907  0.00  0.00    +0.000 A 
ATOM     23 CL   UNL     1       2.902   7.198  17.846  0.00  0.00    +0.000 Cl
ATOM     24  H   UNL     1       1.998   2.717  19.313  0.00  0.00    +0.000 HD
ATOM     25  H   UNL     1       1.201   5.601  22.018  0.00  0.00    +0.000 HD
ENDBRANCH  14  15
ENDBRANCH   1  14
TORSDOF 3
ENDMDL
MODEL 9
REMARK VINA RESULT:      -7.3      2.756      3.545
REMARK  Name = 
REMARK  4 active torsions:
REMARK  status: ('A' for Active; 'I' for Inactive)
REMARK    1  A    between atoms: C_1  and  C_2
REMARK    2  A    between atoms: C_9  and  S_10
REMARK    3  A    between atoms: S_10  and  C_11
REMARK    4  A    between atoms: C_11  and  C_12
REMARK                            x       y       z     vdW  Elec       q    Type
REMARK                         _______ _______ _______ _____ _____    ______ ____
ROOT
ATOM      1  S   UNL     1       2.304   7.443  18.826  0.00  0.00    +0.000 S 
ENDROOT
BRANCH   1  10
ATOM      2  C   UNL     1      -0.935  12.251  18.607  0.00  0.00    +0.000 C 
ATOM      3  C   UNL     1      -0.462  11.686  19.890  0.00  0.00    +0.000 A 
ATOM      4  C   UNL     1      -0.711  12.168  21.195  0.00  0.00    +0.000 A 
ATOM      5  N   UNL     1      -0.147  11.420  22.144  0.00  0.00    +0.000 NA
ATOM      6  N   UNL     1       0.471  10.434  21.449  0.00  0.00    +0.000 N 
ATOM      7  C   UNL     1       1.187   9.388  22.052  0.00  0.00    +0.000 A 
ATOM      8  O   UNL     1       1.321   9.278  23.261  0.00  0.00    +0.000 OA
ATOM      9  N   UNL     1       1.697   8.533  21.099  0.00  0.00    +0.000 N 
ATOM     10  C   UNL     1       1.537   8.701  19.748  0.00  0.00    +0.000 A 
ATOM     11  N   UNL     1       0.878   9.673  19.205  0.00  0.00    +0.000 NA
ATOM     12  C   UNL     1       0.319  10.562  20.077  0.00  0.00    +0.000 A 
ATOM     13  H   UNL     1       2.223   7.742  21.433  0.00  0.00    +0.000 HD
ENDBRANCH   1  10
BRANCH   1  14
ATOM     14  C   UNL     1       2.246   6.071  20.024  0.00  0.00    +0.000 C 
BRANCH  14  15
ATOM     15  C   UNL     1       3.190   4.956  19.609  0.00  0.00    +0.000 A 
ATOM     16  N   UNL     1       4.527   5.302  19.492  0.00  0.00    +0.000 N 
ATOM     17  C   UNL     1       5.530   4.440  19.152  0.00  0.00    +0.000 A 
ATOM     18  O   UNL     1       6.697   4.805  19.062  0.00  0.00    +0.000 OA
ATOM     19  N   UNL     1       5.150   3.152  18.925  0.00  0.00    +0.000 N 
ATOM     20  C   UNL     1       3.872   2.675  19.025  0.00  0.00    +0.000 A 
ATOM     21  O   UNL     1       3.622   1.491  18.821  0.00  0.00    +0.000 OA
ATOM     22  C   UNL     1       2.826   3.677  19.398  0.00  0.00    +0.000 A 
ATOM     23 CL   UNL     1       1.211   3.097  19.541  0.00  0.00    +0.000 Cl
ATOM     24  H   UNL     1       4.818   6.264  19.642  0.00  0.00    +0.000 HD
ATOM     25  H   UNL     1       5.873   2.493  18.678  0.00  0.00    +0.000 HD
ENDBRANCH  14  15
ENDBRANCH   1  14
TORSDOF 3
ENDMDL
