MODEL 1
REMARK VINA RESULT:      -7.8      0.000      0.000
REMARK  Name = 
REMARK  6 active torsions:
REMARK  status: ('A' for Active; 'I' for Inactive)
REMARK    1  A    between atoms: C_1  and  C_2
REMARK    2  A    between atoms: C_2  and  C_3
REMARK    3  A    between atoms: C_3  and  N_4
REMARK    4  A    between atoms: C_8  and  C_9
REMARK    5  A    between atoms: C_9  and  C_10
REMARK    6  A    between atoms: N_12  and  C_13
REMARK                            x       y       z     vdW  Elec       q    Type
REMARK                         _______ _______ _______ _____ _____    ______ ____
ROOT
ATOM      1  C   UNL     1       2.714   5.337  19.236  0.00  0.00    +0.000 C 
ATOM      2  O   UNL     1       2.003   5.192  18.259  0.00  0.00    +0.000 OA
ATOM      3  N   UNL     1       2.915   6.550  19.890  0.00  0.00    +0.000 N 
ATOM      4  H   UNL     1       3.791   6.674  20.382  0.00  0.00    +0.000 HD
ENDROOT
BRANCH   3   5
ATOM      5  C   UNL     1       2.257   7.719  19.421  0.00  0.00    +0.000 A 
ATOM      6  C   UNL     1       2.517   8.133  18.105  0.00  0.00    +0.000 A 
ATOM      7  C   UNL     1       1.938   9.290  17.594  0.00  0.00    +0.000 A 
ATOM      8  C   UNL     1       1.100  10.053  18.398  0.00  0.00    +0.000 A 
ATOM      9  C   UNL     1       0.801   9.654  19.709  0.00  0.00    +0.000 A 
ATOM     10  C   UNL     1      -0.042  10.452  20.497  0.00  0.00    +0.000 A 
ATOM     11  C   UNL     1      -0.342  10.098  21.809  0.00  0.00    +0.000 A 
ATOM     12  C   UNL     1       0.203   8.943  22.354  0.00  0.00    +0.000 A 
ATOM     13  C   UNL     1       1.049   8.138  21.584  0.00  0.00    +0.000 A 
ATOM     14  C   UNL     1       1.366   8.462  20.243  0.00  0.00    +0.000 A 
ENDBRANCH   3   5
BRANCH   1  15
ATOM     15  C   UNL     1       3.554   4.185  19.773  0.00  0.00    +0.000 C 
BRANCH  15  20
ATOM     16  N   UNL     1       5.257   4.798  16.745  0.00  0.00    +0.000 N 
ATOM     17  C   UNL     1       5.889   5.824  17.387  0.00  0.00    +0.000 C 
ATOM     18  O   UNL     1       6.426   6.796  16.877  0.00  0.00    +0.000 OA
ATOM     19  S   UNL     1       5.867   5.581  19.122  0.00  0.00    +0.000 S 
ATOM     20  C   UNL     1       4.867   4.064  18.997  0.00  0.00    +0.000 C 
ATOM     21  C   UNL     1       4.650   3.833  17.516  0.00  0.00    +0.000 C 
ATOM     22  O   UNL     1       4.017   2.873  17.083  0.00  0.00    +0.000 OA
BRANCH  16  23
ATOM     23  C   UNL     1       5.176   4.779  15.296  0.00  0.00    +0.000 C 
BRANCH  23  25
ATOM     24  C   UNL     1       6.095   3.696  13.221  0.00  0.00    +0.000 C 
ATOM     25  C   UNL     1       6.362   4.038  14.677  0.00  0.00    +0.000 C 
ENDBRANCH  23  25
ENDBRANCH  16  23
ENDBRANCH  15  20
ENDBRANCH   1  15
TORSDOF 5
ENDMDL
MODEL 2
REMARK VINA RESULT:      -7.4      3.816      8.438
REMARK  Name = 
REMARK  6 active torsions:
REMARK  status: ('A' for Active; 'I' for Inactive)
REMARK    1  A    between atoms: C_1  and  C_2
REMARK    2  A    between atoms: C_2  and  C_3
REMARK    3  A    between atoms: C_3  and  N_4
REMARK    4  A    between atoms: C_8  and  C_9
REMARK    5  A    between atoms: C_9  and  C_10
REMARK    6  A    between atoms: N_12  and  C_13
REMARK                            x       y       z     vdW  Elec       q    Type
REMARK                         _______ _______ _______ _____ _____    ______ ____
ROOT
ATOM      1  C   UNL     1       1.806   8.198  20.097  0.00  0.00    +0.000 C 
ATOM      2  O   UNL     1       1.471   8.523  18.973  0.00  0.00    +0.000 OA
ATOM      3  N   UNL     1       2.462   7.011  20.410  0.00  0.00    +0.000 N 
ATOM      4  H   UNL     1       2.326   6.635  21.340  0.00  0.00    +0.000 HD
ENDROOT
BRANCH   3   5
ATOM      5  C   UNL     1       2.787   6.094  19.375  0.00  0.00    +0.000 A 
ATOM      6  C   UNL     1       3.719   6.500  18.407  0.00  0.00    +0.000 A 
ATOM      7  C   UNL     1       4.052   5.669  17.344  0.00  0.00    +0.000 A 
ATOM      8  C   UNL     1       3.449   4.422  17.229  0.00  0.00    +0.000 A 
ATOM      9  C   UNL     1       2.532   3.975  18.192  0.00  0.00    +0.000 A 
ATOM     10  C   UNL     1       1.935   2.715  18.043  0.00  0.00    +0.000 A 
ATOM     11  C   UNL     1       1.004   2.249  18.967  0.00  0.00    +0.000 A 
ATOM     12  C   UNL     1       0.653   3.043  20.052  0.00  0.00    +0.000 A 
ATOM     13  C   UNL     1       1.236   4.304  20.215  0.00  0.00    +0.000 A 
ATOM     14  C   UNL     1       2.194   4.803  19.300  0.00  0.00    +0.000 A 
ENDBRANCH   3   5
BRANCH   1  15
ATOM     15  C   UNL     1       1.424   9.045  21.305  0.00  0.00    +0.000 C 
BRANCH  15  20
ATOM     16  N   UNL     1      -1.076  11.407  22.088  0.00  0.00    +0.000 N 
ATOM     17  C   UNL     1      -1.125  11.696  20.755  0.00  0.00    +0.000 C 
ATOM     18  O   UNL     1      -1.541  12.722  20.236  0.00  0.00    +0.000 OA
ATOM     19  S   UNL     1      -0.511  10.359  19.804  0.00  0.00    +0.000 S 
ATOM     20  C   UNL     1      -0.068   9.386  21.277  0.00  0.00    +0.000 C 
ATOM     21  C   UNL     1      -0.498  10.218  22.468  0.00  0.00    +0.000 C 
ATOM     22  O   UNL     1      -0.351   9.837  23.627  0.00  0.00    +0.000 OA
BRANCH  16  23
ATOM     23  C   UNL     1      -1.559  12.366  23.065  0.00  0.00    +0.000 C 
BRANCH  23  25
ATOM     24  C   UNL     1      -3.581  13.289  24.242  0.00  0.00    +0.000 C 
ATOM     25  C   UNL     1      -3.056  12.194  23.328  0.00  0.00    +0.000 C 
ENDBRANCH  23  25
ENDBRANCH  16  23
ENDBRANCH  15  20
ENDBRANCH   1  15
TORSDOF 5
ENDMDL
MODEL 3
REMARK VINA RESULT:      -7.3      2.467      4.061
REMARK  Name = 
REMARK  6 active torsions:
REMARK  status: ('A' for Active; 'I' for Inactive)
REMARK    1  A    between atoms: C_1  and  C_2
REMARK    2  A    between atoms: C_2  and  C_3
REMARK    3  A    between atoms: C_3  and  N_4
REMARK    4  A    between atoms: C_8  and  C_9
REMARK    5  A    between atoms: C_9  and  C_10
REMARK    6  A    between atoms: N_12  and  C_13
REMARK                            x       y       z     vdW  Elec       q    Type
REMARK                         _______ _______ _______ _____ _____    ______ ____
ROOT
ATOM      1  C   UNL     1       1.956   8.713  18.354  0.00  0.00    +0.000 C 
ATOM      2  O   UNL     1       1.719   8.357  19.493  0.00  0.00    +0.000 OA
ATOM      3  N   UNL     1       1.428   9.857  17.761  0.00  0.00    +0.000 N 
ATOM      4  H   UNL     1       1.325   9.855  16.754  0.00  0.00    +0.000 HD
ENDROOT
BRANCH   3   5
ATOM      5  C   UNL     1       0.555  10.695  18.506  0.00  0.00    +0.000 A 
ATOM      6  C   UNL     1       1.117  11.503  19.507  0.00  0.00    +0.000 A 
ATOM      7  C   UNL     1       0.315  12.316  20.301  0.00  0.00    +0.000 A 
ATOM      8  C   UNL     1      -1.062  12.324  20.109  0.00  0.00    +0.000 A 
ATOM      9  C   UNL     1      -1.652  11.547  19.101  0.00  0.00    +0.000 A 
ATOM     10  C   UNL     1      -3.045  11.572  18.939  0.00  0.00    +0.000 A 
ATOM     11  C   UNL     1      -3.666  10.797  17.965  0.00  0.00    +0.000 A 
ATOM     12  C   UNL     1      -2.901   9.981  17.141  0.00  0.00    +0.000 A 
ATOM     13  C   UNL     1      -1.512   9.941  17.291  0.00  0.00    +0.000 A 
ATOM     14  C   UNL     1      -0.846  10.725  18.265  0.00  0.00    +0.000 A 
ENDBRANCH   3   5
BRANCH   1  15
ATOM     15  C   UNL     1       2.793   7.848  17.421  0.00  0.00    +0.000 C 
BRANCH  15  20
ATOM     16  N   UNL     1       3.461   4.385  17.490  0.00  0.00    +0.000 N 
ATOM     17  C   UNL     1       4.751   4.697  17.168  0.00  0.00    +0.000 C 
ATOM     18  O   UNL     1       5.581   3.964  16.651  0.00  0.00    +0.000 OA
ATOM     19  S   UNL     1       5.124   6.348  17.618  0.00  0.00    +0.000 S 
ATOM     20  C   UNL     1       3.426   6.682  18.184  0.00  0.00    +0.000 C 
ATOM     21  C   UNL     1       2.666   5.385  18.001  0.00  0.00    +0.000 C 
ATOM     22  O   UNL     1       1.481   5.266  18.303  0.00  0.00    +0.000 OA
BRANCH  16  23
ATOM     23  C   UNL     1       2.941   3.056  17.228  0.00  0.00    +0.000 C 
BRANCH  23  25
ATOM     24  C   UNL     1       1.796   1.922  19.159  0.00  0.00    +0.000 C 
ATOM     25  C   UNL     1       3.116   2.136  18.437  0.00  0.00    +0.000 C 
ENDBRANCH  23  25
ENDBRANCH  16  23
ENDBRANCH  15  20
ENDBRANCH   1  15
TORSDOF 5
ENDMDL
MODEL 4
REMARK VINA RESULT:      -7.3      3.509      8.050
REMARK  Name = 
REMARK  6 active torsions:
REMARK  status: ('A' for Active; 'I' for Inactive)
REMARK    1  A    between atoms: C_1  and  C_2
REMARK    2  A    between atoms: C_2  and  C_3
REMARK    3  A    between atoms: C_3  and  N_4
REMARK    4  A    between atoms: C_8  and  C_9
REMARK    5  A    between atoms: C_9  and  C_10
REMARK    6  A    between atoms: N_12  and  C_13
REMARK                            x       y       z     vdW  Elec       q    Type
REMARK                         _______ _______ _______ _____ _____    ______ ____
ROOT
ATOM      1  C   UNL     1       2.066   8.379  18.450  0.00  0.00    +0.000 C 
ATOM      2  O   UNL     1       1.487   8.156  17.402  0.00  0.00    +0.000 OA
ATOM      3  N   UNL     1       2.931   7.486  19.077  0.00  0.00    +0.000 N 
ATOM      4  H   UNL     1       3.022   7.555  20.083  0.00  0.00    +0.000 HD
ENDROOT
BRANCH   3   5
ATOM      5  C   UNL     1       3.187   6.221  18.483  0.00  0.00    +0.000 A 
ATOM      6  C   UNL     1       4.127   6.164  17.443  0.00  0.00    +0.000 A 
ATOM      7  C   UNL     1       4.396   4.966  16.789  0.00  0.00    +0.000 A 
ATOM      8  C   UNL     1       3.719   3.811  17.163  0.00  0.00    +0.000 A 
ATOM      9  C   UNL     1       2.791   3.829  18.214  0.00  0.00    +0.000 A 
ATOM     10  C   UNL     1       2.119   2.648  18.561  0.00  0.00    +0.000 A 
ATOM     11  C   UNL     1       1.176   2.634  19.583  0.00  0.00    +0.000 A 
ATOM     12  C   UNL     1       0.887   3.806  20.271  0.00  0.00    +0.000 A 
ATOM     13  C   UNL     1       1.545   4.994  19.937  0.00  0.00    +0.000 A 
ATOM     14  C   UNL     1       2.518   5.041  18.909  0.00  0.00    +0.000 A 
ENDBRANCH   3   5
BRANCH   1  15
ATOM     15  C   UNL     1       1.796   9.655  19.237  0.00  0.00    +0.000 C 
BRANCH  15  20
ATOM     16  N   UNL     1      -0.613  11.360  21.169  0.00  0.00    +0.000 N 
ATOM     17  C   UNL     1      -1.279  11.601  20.002  0.00  0.00    +0.000 C 
ATOM     18  O   UNL     1      -2.096  12.484  19.785  0.00  0.00    +0.000 OA
ATOM     19  S   UNL     1      -0.832  10.431  18.777  0.00  0.00    +0.000 S 
ATOM     20  C   UNL     1       0.395   9.625  19.853  0.00  0.00    +0.000 C 
ATOM     21  C   UNL     1       0.325  10.354  21.179  0.00  0.00    +0.000 C 
ATOM     22  O   UNL     1       1.026  10.045  22.140  0.00  0.00    +0.000 OA
BRANCH  16  23
ATOM     23  C   UNL     1      -0.848  12.195  22.333  0.00  0.00    +0.000 C 
BRANCH  23  25
ATOM     24  C   UNL     1      -3.202  12.458  23.178  0.00  0.00    +0.000 C 
ATOM     25  C   UNL     1      -1.940  11.613  23.231  0.00  0.00    +0.000 C 
ENDBRANCH  23  25
ENDBRANCH  16  23
ENDBRANCH  15  20
ENDBRANCH   1  15
TORSDOF 5
ENDMDL
MODEL 5
REMARK VINA RESULT:      -7.3      3.421      8.377
REMARK  Name = 
REMARK  6 active torsions:
REMARK  status: ('A' for Active; 'I' for Inactive)
REMARK    1  A    between atoms: C_1  and  C_2
REMARK    2  A    between atoms: C_2  and  C_3
REMARK    3  A    between atoms: C_3  and  N_4
REMARK    4  A    between atoms: C_8  and  C_9
REMARK    5  A    between atoms: C_9  and  C_10
REMARK    6  A    between atoms: N_12  and  C_13
REMARK                            x       y       z     vdW  Elec       q    Type
REMARK                         _______ _______ _______ _____ _____    ______ ____
ROOT
ATOM      1  C   UNL     1       2.078   8.435  18.336  0.00  0.00    +0.000 C 
ATOM      2  O   UNL     1       1.732   8.408  17.169  0.00  0.00    +0.000 OA
ATOM      3  N   UNL     1       2.622   7.350  19.020  0.00  0.00    +0.000 N 
ATOM      4  H   UNL     1       2.487   7.317  20.023  0.00  0.00    +0.000 HD
ENDROOT
BRANCH   3   5
ATOM      5  C   UNL     1       2.808   6.114  18.344  0.00  0.00    +0.000 A 
ATOM      6  C   UNL     1       1.800   5.145  18.461  0.00  0.00    +0.000 A 
ATOM      7  C   UNL     1       1.935   3.899  17.859  0.00  0.00    +0.000 A 
ATOM      8  C   UNL     1       3.087   3.603  17.140  0.00  0.00    +0.000 A 
ATOM      9  C   UNL     1       4.102   4.558  16.983  0.00  0.00    +0.000 A 
ATOM     10  C   UNL     1       5.256   4.225  16.258  0.00  0.00    +0.000 A 
ATOM     11  C   UNL     1       6.293   5.139  16.102  0.00  0.00    +0.000 A 
ATOM     12  C   UNL     1       6.192   6.400  16.676  0.00  0.00    +0.000 A 
ATOM     13  C   UNL     1       5.051   6.749  17.405  0.00  0.00    +0.000 A 
ATOM     14  C   UNL     1       3.973   5.846  17.574  0.00  0.00    +0.000 A 
ENDBRANCH   3   5
BRANCH   1  15
ATOM     15  C   UNL     1       1.835   9.667  19.197  0.00  0.00    +0.000 C 
BRANCH  15  20
ATOM     16  N   UNL     1      -0.563  11.335  21.174  0.00  0.00    +0.000 N 
ATOM     17  C   UNL     1      -1.245  11.582  20.017  0.00  0.00    +0.000 C 
ATOM     18  O   UNL     1      -2.071  12.461  19.819  0.00  0.00    +0.000 OA
ATOM     19  S   UNL     1      -0.804  10.428  18.776  0.00  0.00    +0.000 S 
ATOM     20  C   UNL     1       0.442   9.621  19.829  0.00  0.00    +0.000 C 
ATOM     21  C   UNL     1       0.383  10.336  21.163  0.00  0.00    +0.000 C 
ATOM     22  O   UNL     1       1.097  10.023  22.112  0.00  0.00    +0.000 OA
BRANCH  16  23
ATOM     23  C   UNL     1      -0.790  12.157  22.348  0.00  0.00    +0.000 C 
BRANCH  23  25
ATOM     24  C   UNL     1      -3.139  12.352  23.226  0.00  0.00    +0.000 C 
ATOM     25  C   UNL     1      -1.851  11.547  23.265  0.00  0.00    +0.000 C 
ENDBRANCH  23  25
ENDBRANCH  16  23
ENDBRANCH  15  20
ENDBRANCH   1  15
TORSDOF 5
ENDMDL
MODEL 6
REMARK VINA RESULT:      -7.3      5.490      6.670
REMARK  Name = 
REMARK  6 active torsions:
REMARK  status: ('A' for Active; 'I' for Inactive)
REMARK    1  A    between atoms: C_1  and  C_2
REMARK    2  A    between atoms: C_2  and  C_3
REMARK    3  A    between atoms: C_3  and  N_4
REMARK    4  A    between atoms: C_8  and  C_9
REMARK    5  A    between atoms: C_9  and  C_10
REMARK    6  A    between atoms: N_12  and  C_13
REMARK                            x       y       z     vdW  Elec       q    Type
REMARK                         _______ _______ _______ _____ _____    ______ ____
ROOT
ATOM      1  C   UNL     1       8.192   8.678  18.278  0.00  0.00    +0.000 C 
ATOM      2  O   UNL     1       7.616   9.379  17.467  0.00  0.00    +0.000 OA
ATOM      3  N   UNL     1       9.191   9.127  19.138  0.00  0.00    +0.000 N 
ATOM      4  H   UNL     1       9.877   8.450  19.449  0.00  0.00    +0.000 HD
ENDROOT
BRANCH   3   5
ATOM      5  C   UNL     1       9.588  10.491  19.102  0.00  0.00    +0.000 A 
ATOM      6  C   UNL     1      10.216  10.961  17.937  0.00  0.00    +0.000 A 
ATOM      7  C   UNL     1      10.666  12.273  17.849  0.00  0.00    +0.000 A 
ATOM      8  C   UNL     1      10.503  13.131  18.930  0.00  0.00    +0.000 A 
ATOM      9  C   UNL     1       9.858  12.701  20.099  0.00  0.00    +0.000 A 
ATOM     10  C   UNL     1       9.717  13.589  21.176  0.00  0.00    +0.000 A 
ATOM     11  C   UNL     1       9.103  13.189  22.359  0.00  0.00    +0.000 A 
ATOM     12  C   UNL     1       8.627  11.891  22.484  0.00  0.00    +0.000 A 
ATOM     13  C   UNL     1       8.762  10.990  21.422  0.00  0.00    +0.000 A 
ATOM     14  C   UNL     1       9.372  11.367  20.201  0.00  0.00    +0.000 A 
ENDBRANCH   3   5
BRANCH   1  15
ATOM     15  C   UNL     1       7.931   7.179  18.343  0.00  0.00    +0.000 C 
BRANCH  15  20
ATOM     16  N   UNL     1       6.182   4.699  16.545  0.00  0.00    +0.000 N 
ATOM     17  C   UNL     1       5.388   4.556  17.647  0.00  0.00    +0.000 C 
ATOM     18  O   UNL     1       4.708   3.586  17.947  0.00  0.00    +0.000 OA
ATOM     19  S   UNL     1       5.432   6.001  18.637  0.00  0.00    +0.000 S 
ATOM     20  C   UNL     1       6.662   6.815  17.570  0.00  0.00    +0.000 C 
ATOM     21  C   UNL     1       6.928   5.850  16.434  0.00  0.00    +0.000 C 
ATOM     22  O   UNL     1       7.710   6.104  15.521  0.00  0.00    +0.000 OA
BRANCH  16  23
ATOM     23  C   UNL     1       6.280   3.630  15.569  0.00  0.00    +0.000 C 
BRANCH  23  25
ATOM     24  C   UNL     1       6.332   3.785  13.059  0.00  0.00    +0.000 C 
ATOM     25  C   UNL     1       5.479   3.948  14.305  0.00  0.00    +0.000 C 
ENDBRANCH  23  25
ENDBRANCH  16  23
ENDBRANCH  15  20
ENDBRANCH   1  15
TORSDOF 5
ENDMDL
MODEL 7
REMARK VINA RESULT:      -7.2      3.407      8.367
REMARK  Name = 
REMARK  6 active torsions:
REMARK  status: ('A' for Active; 'I' for Inactive)
REMARK    1  A    between atoms: C_1  and  C_2
REMARK    2  A    between atoms: C_2  and  C_3
REMARK    3  A    between atoms: C_3  and  N_4
REMARK    4  A    between atoms: C_8  and  C_9
REMARK    5  A    between atoms: C_9  and  C_10
REMARK    6  A    between atoms: N_12  and  C_13
REMARK                            x       y       z     vdW  Elec       q    Type
REMARK                         _______ _______ _______ _____ _____    ______ ____
ROOT
ATOM      1  C   UNL     1       1.805   7.189  20.338  0.00  0.00    +0.000 C 
ATOM      2  O   UNL     1       1.583   6.168  20.963  0.00  0.00    +0.000 OA
ATOM      3  N   UNL     1       2.307   7.224  19.040  0.00  0.00    +0.000 N 
ATOM      4  H   UNL     1       2.840   8.040  18.769  0.00  0.00    +0.000 HD
ENDROOT
BRANCH   3   5
ATOM      5  C   UNL     1       2.586   6.006  18.362  0.00  0.00    +0.000 A 
ATOM      6  C   UNL     1       1.635   4.977  18.446  0.00  0.00    +0.000 A 
ATOM      7  C   UNL     1       1.862   3.745  17.840  0.00  0.00    +0.000 A 
ATOM      8  C   UNL     1       3.049   3.525  17.151  0.00  0.00    +0.000 A 
ATOM      9  C   UNL     1       4.008   4.541  17.028  0.00  0.00    +0.000 A 
ATOM     10  C   UNL     1       5.199   4.283  16.333  0.00  0.00    +0.000 A 
ATOM     11  C   UNL     1       6.183   5.259  16.211  0.00  0.00    +0.000 A 
ATOM     12  C   UNL     1       5.991   6.508  16.789  0.00  0.00    +0.000 A 
ATOM     13  C   UNL     1       4.811   6.781  17.488  0.00  0.00    +0.000 A 
ATOM     14  C   UNL     1       3.785   5.815  17.623  0.00  0.00    +0.000 A 
ENDBRANCH   3   5
BRANCH   1  15
ATOM     15  C   UNL     1       1.646   8.557  20.990  0.00  0.00    +0.000 C 
BRANCH  15  20
ATOM     16  N   UNL     1      -0.693  11.048  21.866  0.00  0.00    +0.000 N 
ATOM     17  C   UNL     1      -0.763  11.353  20.537  0.00  0.00    +0.000 C 
ATOM     18  O   UNL     1      -1.135  12.405  20.039  0.00  0.00    +0.000 OA
ATOM     19  S   UNL     1      -0.253   9.993  19.558  0.00  0.00    +0.000 S 
ATOM     20  C   UNL     1       0.176   8.981  21.009  0.00  0.00    +0.000 C 
ATOM     21  C   UNL     1      -0.171   9.824  22.219  0.00  0.00    +0.000 C 
ATOM     22  O   UNL     1      -0.013   9.424  23.370  0.00  0.00    +0.000 OA
BRANCH  16  23
ATOM     23  C   UNL     1      -1.092  12.022  22.865  0.00  0.00    +0.000 C 
BRANCH  23  25
ATOM     24  C   UNL     1      -3.457  12.865  22.718  0.00  0.00    +0.000 C 
ATOM     25  C   UNL     1      -2.539  11.808  23.311  0.00  0.00    +0.000 C 
ENDBRANCH  23  25
ENDBRANCH  16  23
ENDBRANCH  15  20
ENDBRANCH   1  15
TORSDOF 5
ENDMDL
MODEL 8
REMARK VINA RESULT:      -7.2      2.170      4.178
REMARK  Name = 
REMARK  6 active torsions:
REMARK  status: ('A' for Active; 'I' for Inactive)
REMARK    1  A    between atoms: C_1  and  C_2
REMARK    2  A    between atoms: C_2  and  C_3
REMARK    3  A    between atoms: C_3  and  N_4
REMARK    4  A    between atoms: C_8  and  C_9
REMARK    5  A    between atoms: C_9  and  C_10
REMARK    6  A    between atoms: N_12  and  C_13
REMARK                            x       y       z     vdW  Elec       q    Type
REMARK                         _______ _______ _______ _____ _____    ______ ____
ROOT
ATOM      1  C   UNL     1       1.613   9.382  18.025  0.00  0.00    +0.000 C 
ATOM      2  O   UNL     1       2.365  10.278  18.364  0.00  0.00    +0.000 OA
ATOM      3  N   UNL     1       0.247   9.357  18.295  0.00  0.00    +0.000 N 
ATOM      4  H   UNL     1      -0.197   8.450  18.366  0.00  0.00    +0.000 HD
ENDROOT
BRANCH   3   5
ATOM      5  C   UNL     1      -0.349  10.435  19.003  0.00  0.00    +0.000 A 
ATOM      6  C   UNL     1      -0.742  11.565  18.269  0.00  0.00    +0.000 A 
ATOM      7  C   UNL     1      -1.294  12.672  18.904  0.00  0.00    +0.000 A 
ATOM      8  C   UNL     1      -1.451  12.666  20.285  0.00  0.00    +0.000 A 
ATOM      9  C   UNL     1      -1.091  11.544  21.045  0.00  0.00    +0.000 A 
ATOM     10  C   UNL     1      -1.254  11.574  22.438  0.00  0.00    +0.000 A 
ATOM     11  C   UNL     1      -0.887  10.488  23.226  0.00  0.00    +0.000 A 
ATOM     12  C   UNL     1      -0.344   9.356  22.630  0.00  0.00    +0.000 A 
ATOM     13  C   UNL     1      -0.171   9.310  21.243  0.00  0.00    +0.000 A 
ATOM     14  C   UNL     1      -0.543  10.393  20.411  0.00  0.00    +0.000 A 
ENDBRANCH   3   5
BRANCH   1  15
ATOM     15  C   UNL     1       2.147   8.124  17.352  0.00  0.00    +0.000 C 
BRANCH  15  20
ATOM     16  N   UNL     1       3.517   5.295  18.953  0.00  0.00    +0.000 N 
ATOM     17  C   UNL     1       4.354   5.178  17.880  0.00  0.00    +0.000 C 
ATOM     18  O   UNL     1       4.945   4.175  17.510  0.00  0.00    +0.000 OA
ATOM     19  S   UNL     1       4.521   6.712  17.050  0.00  0.00    +0.000 S 
ATOM     20  C   UNL     1       3.324   7.545  18.140  0.00  0.00    +0.000 C 
ATOM     21  C   UNL     1       2.892   6.504  19.153  0.00  0.00    +0.000 C 
ATOM     22  O   UNL     1       2.089   6.749  20.050  0.00  0.00    +0.000 OA
BRANCH  16  23
ATOM     23  C   UNL     1       3.251   4.150  19.803  0.00  0.00    +0.000 C 
BRANCH  23  25
ATOM     24  C   UNL     1       0.923   3.387  20.371  0.00  0.00    +0.000 C 
ATOM     25  C   UNL     1       2.026   3.368  19.326  0.00  0.00    +0.000 C 
ENDBRANCH  23  25
ENDBRANCH  16  23
ENDBRANCH  15  20
ENDBRANCH   1  15
TORSDOF 5
ENDMDL
MODEL 9
REMARK VINA RESULT:      -7.2      2.578      3.665
REMARK  Name = 
REMARK  6 active torsions:
REMARK  status: ('A' for Active; 'I' for Inactive)
REMARK    1  A    between atoms: C_1  and  C_2
REMARK    2  A    between atoms: C_2  and  C_3
REMARK    3  A    between atoms: C_3  and  N_4
REMARK    4  A    between atoms: C_8  and  C_9
REMARK    5  A    between atoms: C_9  and  C_10
REMARK    6  A    between atoms: N_12  and  C_13
REMARK                            x       y       z     vdW  Elec       q    Type
REMARK                         _______ _______ _______ _____ _____    ______ ____
ROOT
ATOM      1  C   UNL     1       1.904   8.623  18.474  0.00  0.00    +0.000 C 
ATOM      2  O   UNL     1       2.126   9.003  17.339  0.00  0.00    +0.000 OA
ATOM      3  N   UNL     1       1.131   9.318  19.400  0.00  0.00    +0.000 N 
ATOM      4  H   UNL     1       1.337   9.175  20.380  0.00  0.00    +0.000 HD
ENDROOT
BRANCH   3   5
ATOM      5  C   UNL     1       0.536  10.555  19.031  0.00  0.00    +0.000 A 
ATOM      6  C   UNL     1       1.280  11.728  19.236  0.00  0.00    +0.000 A 
ATOM      7  C   UNL     1       0.744  12.975  18.935  0.00  0.00    +0.000 A 
ATOM      8  C   UNL     1      -0.549  13.065  18.433  0.00  0.00    +0.000 A 
ATOM      9  C   UNL     1      -1.310  11.912  18.193  0.00  0.00    +0.000 A 
ATOM     10  C   UNL     1      -2.615  12.038  17.694  0.00  0.00    +0.000 A 
ATOM     11  C   UNL     1      -3.406  10.917  17.466  0.00  0.00    +0.000 A 
ATOM     12  C   UNL     1      -2.904   9.651  17.740  0.00  0.00    +0.000 A 
ATOM     13  C   UNL     1      -1.607   9.506  18.242  0.00  0.00    +0.000 A 
ATOM     14  C   UNL     1      -0.771  10.625  18.475  0.00  0.00    +0.000 A 
ENDBRANCH   3   5
BRANCH   1  15
ATOM     15  C   UNL     1       2.568   7.367  19.024  0.00  0.00    +0.000 C 
BRANCH  15  20
ATOM     16  N   UNL     1       4.551   4.818  17.604  0.00  0.00    +0.000 N 
ATOM     17  C   UNL     1       3.705   3.924  18.196  0.00  0.00    +0.000 C 
ATOM     18  O   UNL     1       3.936   2.755  18.467  0.00  0.00    +0.000 OA
ATOM     19  S   UNL     1       2.153   4.664  18.532  0.00  0.00    +0.000 S 
ATOM     20  C   UNL     1       2.691   6.298  17.936  0.00  0.00    +0.000 C 
ATOM     21  C   UNL     1       4.115   6.115  17.456  0.00  0.00    +0.000 C 
ATOM     22  O   UNL     1       4.773   7.035  16.975  0.00  0.00    +0.000 OA
BRANCH  16  23
ATOM     23  C   UNL     1       5.889   4.413  17.214  0.00  0.00    +0.000 C 
BRANCH  23  25
ATOM     24  C   UNL     1       6.947   4.696  14.950  0.00  0.00    +0.000 C 
ATOM     25  C   UNL     1       5.927   3.920  15.767  0.00  0.00    +0.000 C 
ENDBRANCH  23  25
ENDBRANCH  16  23
ENDBRANCH  15  20
ENDBRANCH   1  15
TORSDOF 5
ENDMDL
