MODEL 1
REMARK VINA RESULT:      -8.4      0.000      0.000
REMARK  Name = 
REMARK  10 active torsions:
REMARK  status: ('A' for Active; 'I' for Inactive)
REMARK    1  A    between atoms: C_2  and  C_3
REMARK    2  A    between atoms: N_5  and  C_6
REMARK    3  A    between atoms: C_8  and  N_9
REMARK    4  A    between atoms: C_14  and  C_15
REMARK    5  A    between atoms: N_17  and  C_18
REMARK    6  A    between atoms: C_18  and  C_19
REMARK    7  A    between atoms: C_19  and  C_20
REMARK    8  A    between atoms: C_20  and  O_21
REMARK    9  A    between atoms: C_29  and  O_30
REMARK   10  A    between atoms: O_30  and  C_31
REMARK                            x       y       z     vdW  Elec       q    Type
REMARK                         _______ _______ _______ _____ _____    ______ ____
ROOT
ATOM      1  N   UNL     1       1.048  10.549  18.076  0.00  0.00    +0.000 N 
ATOM      2  C   UNL     1       1.306   9.498  18.972  0.00  0.00    +0.000 A 
ATOM      3  N   UNL     1       0.968   9.654  20.265  0.00  0.00    +0.000 NA
ATOM      4  C   UNL     1       1.207   8.637  21.103  0.00  0.00    +0.000 A 
ATOM      5  C   UNL     1       1.738   7.445  20.698  0.00  0.00    +0.000 A 
ATOM      6  C   UNL     1       2.035   7.355  19.356  0.00  0.00    +0.000 A 
ATOM      7  N   UNL     1       1.854   8.377  18.483  0.00  0.00    +0.000 NA
ATOM      8  H   UNL     1       1.548  10.365  17.216  0.00  0.00    +0.000 HD
ENDROOT
BRANCH   6   9
ATOM      9  C   UNL     1       2.528   6.100  18.801  0.00  0.00    +0.000 A 
ATOM     10  C   UNL     1       3.543   6.042  17.868  0.00  0.00    +0.000 A 
ATOM     11  N   UNL     1       3.733   4.732  17.513  0.00  0.00    +0.000 N 
ATOM     12  C   UNL     1       2.870   3.916  18.214  0.00  0.00    +0.000 A 
ATOM     13  C   UNL     1       2.679   2.524  18.180  0.00  0.00    +0.000 A 
ATOM     14  C   UNL     1       1.709   1.965  19.018  0.00  0.00    +0.000 A 
ATOM     15  C   UNL     1       0.950   2.765  19.861  0.00  0.00    +0.000 A 
ATOM     16  C   UNL     1       1.134   4.151  19.878  0.00  0.00    +0.000 A 
ATOM     17  C   UNL     1       2.110   4.748  19.047  0.00  0.00    +0.000 A 
BRANCH  11  18
ATOM     18  C   UNL     1       4.719   4.292  16.541  0.00  0.00    +0.000 C 
BRANCH  18  19
ATOM     19  C   UNL     1       5.418   5.436  15.812  0.00  0.00    +0.000 C 
BRANCH  19  20
ATOM     20  C   UNL     1       6.913   5.512  16.097  0.00  0.00    +0.000 C 
BRANCH  20  21
ATOM     21  O   UNL     1       7.639   5.387  14.880  0.00  0.00    +0.000 OA
ATOM     22  H   UNL     1       7.005   5.184  14.171  0.00  0.00    +0.000 HD
ENDBRANCH  20  21
ENDBRANCH  19  20
ENDBRANCH  18  19
ENDBRANCH  11  18
ENDBRANCH   6   9
BRANCH   1  25
ATOM     23  C   UNL     1       2.249  13.991  18.865  0.00  0.00    +0.000 A 
ATOM     24  C   UNL     1       2.218  12.640  18.532  0.00  0.00    +0.000 A 
ATOM     25  C   UNL     1       1.011  11.922  18.420  0.00  0.00    +0.000 A 
ATOM     26  C   UNL     1      -0.207  12.614  18.592  0.00  0.00    +0.000 A 
ATOM     27  C   UNL     1      -0.184  13.976  18.917  0.00  0.00    +0.000 A 
ATOM     28  C   UNL     1       1.032  14.642  19.066  0.00  0.00    +0.000 A 
ATOM     29  F   UNL     1       1.022  15.948  19.380  0.00  0.00    +0.000 F 
BRANCH  23  32
ATOM     30  C   UNL     1       4.063  15.487  18.069  0.00  0.00    +0.000 C 
ATOM     31  O   UNL     1       3.603  15.773  16.968  0.00  0.00    +0.000 OA
ATOM     32  N   UNL     1       3.459  14.709  19.032  0.00  0.00    +0.000 N 
ATOM     33  H   UNL     1       3.864  14.666  19.961  0.00  0.00    +0.000 HD
BRANCH  30  35
ATOM     34  C   UNL     1       6.461  15.244  18.378  0.00  0.00    +0.000 C 
ATOM     35  C   UNL     1       5.381  16.027  18.479  0.00  0.00    +0.000 C 
ENDBRANCH  30  35
ENDBRANCH  23  32
BRANCH  26  36
ATOM     36  O   UNL     1      -1.355  11.874  18.444  0.00  0.00    +0.000 OA
ATOM     37  C   UNL     1      -2.383  12.083  19.406  0.00  0.00    +0.000 C 
ENDBRANCH  26  36
ENDBRANCH   1  25
TORSDOF 9
ENDMDL
MODEL 2
REMARK VINA RESULT:      -8.3      1.542      1.608
REMARK  Name = 
REMARK  10 active torsions:
REMARK  status: ('A' for Active; 'I' for Inactive)
REMARK    1  A    between atoms: C_2  and  C_3
REMARK    2  A    between atoms: N_5  and  C_6
REMARK    3  A    between atoms: C_8  and  N_9
REMARK    4  A    between atoms: C_14  and  C_15
REMARK    5  A    between atoms: N_17  and  C_18
REMARK    6  A    between atoms: C_18  and  C_19
REMARK    7  A    between atoms: C_19  and  C_20
REMARK    8  A    between atoms: C_20  and  O_21
REMARK    9  A    between atoms: C_29  and  O_30
REMARK   10  A    between atoms: O_30  and  C_31
REMARK                            x       y       z     vdW  Elec       q    Type
REMARK                         _______ _______ _______ _____ _____    ______ ____
ROOT
ATOM      1  N   UNL     1       1.051  10.843  18.064  0.00  0.00    +0.000 N 
ATOM      2  C   UNL     1       1.358   9.719  18.849  0.00  0.00    +0.000 A 
ATOM      3  N   UNL     1       0.987   9.714  20.142  0.00  0.00    +0.000 NA
ATOM      4  C   UNL     1       1.274   8.629  20.874  0.00  0.00    +0.000 A 
ATOM      5  C   UNL     1       1.886   7.522  20.358  0.00  0.00    +0.000 A 
ATOM      6  C   UNL     1       2.213   7.595  19.022  0.00  0.00    +0.000 A 
ATOM      7  N   UNL     1       1.984   8.692  18.258  0.00  0.00    +0.000 NA
ATOM      8  H   UNL     1       1.577  10.783  17.202  0.00  0.00    +0.000 HD
ENDROOT
BRANCH   6   9
ATOM      9  C   UNL     1       2.794   6.439  18.350  0.00  0.00    +0.000 A 
ATOM     10  C   UNL     1       3.867   6.536  17.487  0.00  0.00    +0.000 A 
ATOM     11  N   UNL     1       4.136   5.290  16.985  0.00  0.00    +0.000 N 
ATOM     12  C   UNL     1       3.268   4.361  17.520  0.00  0.00    +0.000 A 
ATOM     13  C   UNL     1       3.142   2.978  17.300  0.00  0.00    +0.000 A 
ATOM     14  C   UNL     1       2.147   2.283  17.995  0.00  0.00    +0.000 A 
ATOM     15  C   UNL     1       1.302   2.942  18.878  0.00  0.00    +0.000 A 
ATOM     16  C   UNL     1       1.424   4.320  19.080  0.00  0.00    +0.000 A 
ATOM     17  C   UNL     1       2.422   5.053  18.397  0.00  0.00    +0.000 A 
BRANCH  11  18
ATOM     18  C   UNL     1       5.199   5.012  16.034  0.00  0.00    +0.000 C 
BRANCH  18  19
ATOM     19  C   UNL     1       6.302   4.115  16.589  0.00  0.00    +0.000 C 
BRANCH  19  20
ATOM     20  C   UNL     1       7.210   4.820  17.589  0.00  0.00    +0.000 C 
BRANCH  20  21
ATOM     21  O   UNL     1       8.378   4.038  17.810  0.00  0.00    +0.000 OA
ATOM     22  H   UNL     1       8.893   4.459  18.518  0.00  0.00    +0.000 HD
ENDBRANCH  20  21
ENDBRANCH  19  20
ENDBRANCH  18  19
ENDBRANCH  11  18
ENDBRANCH   6   9
BRANCH   1  25
ATOM     23  C   UNL     1       2.004  14.152  19.495  0.00  0.00    +0.000 A 
ATOM     24  C   UNL     1       2.065  12.850  19.006  0.00  0.00    +0.000 A 
ATOM     25  C   UNL     1       0.921  12.166  18.551  0.00  0.00    +0.000 A 
ATOM     26  C   UNL     1      -0.314  12.847  18.532  0.00  0.00    +0.000 A 
ATOM     27  C   UNL     1      -0.381  14.162  19.013  0.00  0.00    +0.000 A 
ATOM     28  C   UNL     1       0.764  14.790  19.501  0.00  0.00    +0.000 A 
ATOM     29  F   UNL     1       0.668  16.050  19.956  0.00  0.00    +0.000 F 
BRANCH  23  32
ATOM     30  C   UNL     1       3.418  15.022  21.340  0.00  0.00    +0.000 C 
ATOM     31  O   UNL     1       2.803  14.547  22.290  0.00  0.00    +0.000 OA
ATOM     32  N   UNL     1       3.139  14.830  20.005  0.00  0.00    +0.000 N 
ATOM     33  H   UNL     1       3.804  15.146  19.309  0.00  0.00    +0.000 HD
BRANCH  30  35
ATOM     34  C   UNL     1       5.513  16.012  20.608  0.00  0.00    +0.000 C 
ATOM     35  C   UNL     1       4.611  15.868  21.584  0.00  0.00    +0.000 C 
ENDBRANCH  30  35
ENDBRANCH  23  32
BRANCH  26  36
ATOM     36  O   UNL     1      -1.392  12.144  18.052  0.00  0.00    +0.000 OA
ATOM     37  C   UNL     1      -2.382  11.757  19.000  0.00  0.00    +0.000 C 
ENDBRANCH  26  36
ENDBRANCH   1  25
TORSDOF 9
ENDMDL
MODEL 3
REMARK VINA RESULT:      -8.3      1.338      2.721
REMARK  Name = 
REMARK  10 active torsions:
REMARK  status: ('A' for Active; 'I' for Inactive)
REMARK    1  A    between atoms: C_2  and  C_3
REMARK    2  A    between atoms: N_5  and  C_6
REMARK    3  A    between atoms: C_8  and  N_9
REMARK    4  A    between atoms: C_14  and  C_15
REMARK    5  A    between atoms: N_17  and  C_18
REMARK    6  A    between atoms: C_18  and  C_19
REMARK    7  A    between atoms: C_19  and  C_20
REMARK    8  A    between atoms: C_20  and  O_21
REMARK    9  A    between atoms: C_29  and  O_30
REMARK   10  A    between atoms: O_30  and  C_31
REMARK                            x       y       z     vdW  Elec       q    Type
REMARK                         _______ _______ _______ _____ _____    ______ ____
ROOT
ATOM      1  N   UNL     1       1.146  10.513  17.947  0.00  0.00    +0.000 N 
ATOM      2  C   UNL     1       1.431   9.394  18.746  0.00  0.00    +0.000 A 
ATOM      3  N   UNL     1       1.092   9.427  20.048  0.00  0.00    +0.000 NA
ATOM      4  C   UNL     1       1.356   8.346  20.793  0.00  0.00    +0.000 A 
ATOM      5  C   UNL     1       1.913   7.207  20.284  0.00  0.00    +0.000 A 
ATOM      6  C   UNL     1       2.209   7.242  18.939  0.00  0.00    +0.000 A 
ATOM      7  N   UNL     1       2.002   8.332  18.160  0.00  0.00    +0.000 NA
ATOM      8  H   UNL     1       1.648  10.418  17.074  0.00  0.00    +0.000 HD
ENDROOT
BRANCH   6   9
ATOM      9  C   UNL     1       2.728   6.052  18.276  0.00  0.00    +0.000 A 
ATOM     10  C   UNL     1       2.118   4.817  18.367  0.00  0.00    +0.000 A 
ATOM     11  N   UNL     1       2.877   3.906  17.681  0.00  0.00    +0.000 N 
ATOM     12  C   UNL     1       3.973   4.523  17.117  0.00  0.00    +0.000 A 
ATOM     13  C   UNL     1       5.032   4.008  16.349  0.00  0.00    +0.000 A 
ATOM     14  C   UNL     1       6.024   4.890  15.909  0.00  0.00    +0.000 A 
ATOM     15  C   UNL     1       5.967   6.241  16.225  0.00  0.00    +0.000 A 
ATOM     16  C   UNL     1       4.920   6.743  17.003  0.00  0.00    +0.000 A 
ATOM     17  C   UNL     1       3.897   5.880  17.460  0.00  0.00    +0.000 A 
BRANCH  11  18
ATOM     18  C   UNL     1       2.543   2.496  17.569  0.00  0.00    +0.000 C 
BRANCH  18  19
ATOM     19  C   UNL     1       3.278   1.608  18.570  0.00  0.00    +0.000 C 
BRANCH  19  20
ATOM     20  C   UNL     1       3.852   2.377  19.754  0.00  0.00    +0.000 C 
BRANCH  20  21
ATOM     21  O   UNL     1       5.272   2.399  19.666  0.00  0.00    +0.000 OA
ATOM     22  H   UNL     1       5.609   2.951  20.391  0.00  0.00    +0.000 HD
ENDBRANCH  20  21
ENDBRANCH  19  20
ENDBRANCH  18  19
ENDBRANCH  11  18
ENDBRANCH   6   9
BRANCH   1  25
ATOM     23  C   UNL     1       2.261  13.930  18.944  0.00  0.00    +0.000 A 
ATOM     24  C   UNL     1       2.260  12.611  18.498  0.00  0.00    +0.000 A 
ATOM     25  C   UNL     1       1.079  11.850  18.411  0.00  0.00    +0.000 A 
ATOM     26  C   UNL     1      -0.150  12.466  18.728  0.00  0.00    +0.000 A 
ATOM     27  C   UNL     1      -0.158  13.796  19.168  0.00  0.00    +0.000 A 
ATOM     28  C   UNL     1       1.037  14.504  19.287  0.00  0.00    +0.000 A 
ATOM     29  F   UNL     1       0.997  15.777  19.714  0.00  0.00    +0.000 F 
BRANCH  23  32
ATOM     30  C   UNL     1       3.999  15.496  18.116  0.00  0.00    +0.000 C 
ATOM     31  O   UNL     1       3.500  15.777  17.031  0.00  0.00    +0.000 OA
ATOM     32  N   UNL     1       3.450  14.688  19.087  0.00  0.00    +0.000 N 
ATOM     33  H   UNL     1       3.881  14.649  20.003  0.00  0.00    +0.000 HD
BRANCH  30  35
ATOM     34  C   UNL     1       6.073  15.428  19.380  0.00  0.00    +0.000 C 
ATOM     35  C   UNL     1       5.309  16.077  18.496  0.00  0.00    +0.000 C 
ENDBRANCH  30  35
ENDBRANCH  23  32
BRANCH  26  36
ATOM     36  O   UNL     1      -1.274  11.687  18.599  0.00  0.00    +0.000 OA
ATOM     37  C   UNL     1      -2.446  12.133  19.273  0.00  0.00    +0.000 C 
ENDBRANCH  26  36
ENDBRANCH   1  25
TORSDOF 9
ENDMDL
MODEL 4
REMARK VINA RESULT:      -8.2      1.970      4.400
REMARK  Name = 
REMARK  10 active torsions:
REMARK  status: ('A' for Active; 'I' for Inactive)
REMARK    1  A    between atoms: C_2  and  C_3
REMARK    2  A    between atoms: N_5  and  C_6
REMARK    3  A    between atoms: C_8  and  N_9
REMARK    4  A    between atoms: C_14  and  C_15
REMARK    5  A    between atoms: N_17  and  C_18
REMARK    6  A    between atoms: C_18  and  C_19
REMARK    7  A    between atoms: C_19  and  C_20
REMARK    8  A    between atoms: C_20  and  O_21
REMARK    9  A    between atoms: C_29  and  O_30
REMARK   10  A    between atoms: O_30  and  C_31
REMARK                            x       y       z     vdW  Elec       q    Type
REMARK                         _______ _______ _______ _____ _____    ______ ____
ROOT
ATOM      1  N   UNL     1       0.328  10.677  18.264  0.00  0.00    +0.000 N 
ATOM      2  C   UNL     1       0.893   9.623  19.001  0.00  0.00    +0.000 A 
ATOM      3  N   UNL     1       0.565   9.496  20.300  0.00  0.00    +0.000 NA
ATOM      4  C   UNL     1       1.100   8.477  20.986  0.00  0.00    +0.000 A 
ATOM      5  C   UNL     1       1.926   7.549  20.419  0.00  0.00    +0.000 A 
ATOM      6  C   UNL     1       2.195   7.734  19.081  0.00  0.00    +0.000 A 
ATOM      7  N   UNL     1       1.713   8.778  18.362  0.00  0.00    +0.000 NA
ATOM      8  H   UNL     1       0.832  10.762  17.391  0.00  0.00    +0.000 HD
ENDROOT
BRANCH   6   9
ATOM      9  C   UNL     1       2.997   6.755  18.356  0.00  0.00    +0.000 A 
ATOM     10  C   UNL     1       4.163   7.086  17.694  0.00  0.00    +0.000 A 
ATOM     11  N   UNL     1       4.644   5.962  17.074  0.00  0.00    +0.000 N 
ATOM     12  C   UNL     1       3.824   4.884  17.334  0.00  0.00    +0.000 A 
ATOM     13  C   UNL     1       3.893   3.546  16.909  0.00  0.00    +0.000 A 
ATOM     14  C   UNL     1       2.899   2.661  17.336  0.00  0.00    +0.000 A 
ATOM     15  C   UNL     1       1.866   3.093  18.158  0.00  0.00    +0.000 A 
ATOM     16  C   UNL     1       1.795   4.429  18.563  0.00  0.00    +0.000 A 
ATOM     17  C   UNL     1       2.787   5.349  18.153  0.00  0.00    +0.000 A 
BRANCH  11  18
ATOM     18  C   UNL     1       5.857   5.936  16.274  0.00  0.00    +0.000 C 
BRANCH  18  19
ATOM     19  C   UNL     1       7.130   6.188  17.078  0.00  0.00    +0.000 C 
BRANCH  19  20
ATOM     20  C   UNL     1       7.391   5.132  18.144  0.00  0.00    +0.000 C 
BRANCH  20  21
ATOM     21  O   UNL     1       8.174   4.080  17.594  0.00  0.00    +0.000 OA
ATOM     22  H   UNL     1       7.960   3.262  18.075  0.00  0.00    +0.000 HD
ENDBRANCH  20  21
ENDBRANCH  19  20
ENDBRANCH  18  19
ENDBRANCH  11  18
ENDBRANCH   6   9
BRANCH   1  25
ATOM     23  C   UNL     1      -1.744  13.206  20.058  0.00  0.00    +0.000 A 
ATOM     24  C   UNL     1      -1.292  12.011  19.505  0.00  0.00    +0.000 A 
ATOM     25  C   UNL     1      -0.075  11.923  18.801  0.00  0.00    +0.000 A 
ATOM     26  C   UNL     1       0.739  13.072  18.710  0.00  0.00    +0.000 A 
ATOM     27  C   UNL     1       0.296  14.275  19.274  0.00  0.00    +0.000 A 
ATOM     28  C   UNL     1      -0.937  14.335  19.922  0.00  0.00    +0.000 A 
ATOM     29  F   UNL     1      -1.335  15.504  20.451  0.00  0.00    +0.000 F 
BRANCH  23  32
ATOM     30  C   UNL     1      -4.200  12.888  20.220  0.00  0.00    +0.000 C 
ATOM     31  O   UNL     1      -4.377  12.248  19.189  0.00  0.00    +0.000 OA
ATOM     32  N   UNL     1      -2.991  13.317  20.722  0.00  0.00    +0.000 N 
ATOM     33  H   UNL     1      -2.951  13.704  21.658  0.00  0.00    +0.000 HD
BRANCH  30  35
ATOM     34  C   UNL     1      -6.483  12.523  20.969  0.00  0.00    +0.000 C 
ATOM     35  C   UNL     1      -5.359  13.238  21.077  0.00  0.00    +0.000 C 
ENDBRANCH  30  35
ENDBRANCH  23  32
BRANCH  26  36
ATOM     36  O   UNL     1       1.928  12.924  18.038  0.00  0.00    +0.000 OA
ATOM     37  C   UNL     1       2.876  13.978  18.169  0.00  0.00    +0.000 C 
ENDBRANCH  26  36
ENDBRANCH   1  25
TORSDOF 9
ENDMDL
MODEL 5
REMARK VINA RESULT:      -8.2      1.108      1.108
REMARK  Name = 
REMARK  10 active torsions:
REMARK  status: ('A' for Active; 'I' for Inactive)
REMARK    1  A    between atoms: C_2  and  C_3
REMARK    2  A    between atoms: N_5  and  C_6
REMARK    3  A    between atoms: C_8  and  N_9
REMARK    4  A    between atoms: C_14  and  C_15
REMARK    5  A    between atoms: N_17  and  C_18
REMARK    6  A    between atoms: C_18  and  C_19
REMARK    7  A    between atoms: C_19  and  C_20
REMARK    8  A    between atoms: C_20  and  O_21
REMARK    9  A    between atoms: C_29  and  O_30
REMARK   10  A    between atoms: O_30  and  C_31
REMARK                            x       y       z     vdW  Elec       q    Type
REMARK                         _______ _______ _______ _____ _____    ______ ____
ROOT
ATOM      1  N   UNL     1       1.266  10.542  17.932  0.00  0.00    +0.000 N 
ATOM      2  C   UNL     1       1.472   9.465  18.810  0.00  0.00    +0.000 A 
ATOM      3  N   UNL     1       1.069   9.587  20.088  0.00  0.00    +0.000 NA
ATOM      4  C   UNL     1       1.259   8.546  20.909  0.00  0.00    +0.000 A 
ATOM      5  C   UNL     1       1.803   7.362  20.498  0.00  0.00    +0.000 A 
ATOM      6  C   UNL     1       2.168   7.306  19.171  0.00  0.00    +0.000 A 
ATOM      7  N   UNL     1       2.038   8.353  18.319  0.00  0.00    +0.000 NA
ATOM      8  H   UNL     1       1.809  10.378  17.094  0.00  0.00    +0.000 HD
ENDROOT
BRANCH   6   9
ATOM      9  C   UNL     1       2.682   6.063  18.608  0.00  0.00    +0.000 A 
ATOM     10  C   UNL     1       3.776   6.019  17.768  0.00  0.00    +0.000 A 
ATOM     11  N   UNL     1       3.968   4.720  17.373  0.00  0.00    +0.000 N 
ATOM     12  C   UNL     1       3.027   3.898  17.957  0.00  0.00    +0.000 A 
ATOM     13  C   UNL     1       2.810   2.514  17.844  0.00  0.00    +0.000 A 
ATOM     14  C   UNL     1       1.755   1.946  18.565  0.00  0.00    +0.000 A 
ATOM     15  C   UNL     1       0.940   2.729  19.371  0.00  0.00    +0.000 A 
ATOM     16  C   UNL     1       1.152   4.108  19.466  0.00  0.00    +0.000 A 
ATOM     17  C   UNL     1       2.213   4.714  18.754  0.00  0.00    +0.000 A 
BRANCH  11  18
ATOM     18  C   UNL     1       5.029   4.296  16.476  0.00  0.00    +0.000 C 
BRANCH  18  19
ATOM     19  C   UNL     1       5.416   5.348  15.439  0.00  0.00    +0.000 C 
BRANCH  19  20
ATOM     20  C   UNL     1       6.518   4.888  14.493  0.00  0.00    +0.000 C 
BRANCH  20  21
ATOM     21  O   UNL     1       7.751   5.491  14.867  0.00  0.00    +0.000 OA
ATOM     22  H   UNL     1       8.473   4.938  14.523  0.00  0.00    +0.000 HD
ENDBRANCH  20  21
ENDBRANCH  19  20
ENDBRANCH  18  19
ENDBRANCH  11  18
ENDBRANCH   6   9
BRANCH   1  25
ATOM     23  C   UNL     1       2.443  13.969  18.812  0.00  0.00    +0.000 A 
ATOM     24  C   UNL     1       2.422  12.628  18.443  0.00  0.00    +0.000 A 
ATOM     25  C   UNL     1       1.219  11.905  18.312  0.00  0.00    +0.000 A 
ATOM     26  C   UNL     1      -0.003  12.583  18.499  0.00  0.00    +0.000 A 
ATOM     27  C   UNL     1       0.010  13.937  18.860  0.00  0.00    +0.000 A 
ATOM     28  C   UNL     1       1.222  14.607  19.028  0.00  0.00    +0.000 A 
ATOM     29  F   UNL     1       1.202  15.905  19.376  0.00  0.00    +0.000 F 
BRANCH  23  32
ATOM     30  C   UNL     1       4.305  14.844  20.200  0.00  0.00    +0.000 C 
ATOM     31  O   UNL     1       4.024  14.297  21.261  0.00  0.00    +0.000 OA
ATOM     32  N   UNL     1       3.648  14.691  18.999  0.00  0.00    +0.000 N 
ATOM     33  H   UNL     1       4.061  15.072  18.155  0.00  0.00    +0.000 HD
BRANCH  30  35
ATOM     34  C   UNL     1       6.379  15.721  21.114  0.00  0.00    +0.000 C 
ATOM     35  C   UNL     1       5.479  15.748  20.126  0.00  0.00    +0.000 C 
ENDBRANCH  30  35
ENDBRANCH  23  32
BRANCH  26  36
ATOM     36  O   UNL     1      -1.146  11.840  18.331  0.00  0.00    +0.000 OA
ATOM     37  C   UNL     1      -2.145  11.958  19.339  0.00  0.00    +0.000 C 
ENDBRANCH  26  36
ENDBRANCH   1  25
TORSDOF 9
ENDMDL
MODEL 6
REMARK VINA RESULT:      -8.2      1.817      2.068
REMARK  Name = 
REMARK  10 active torsions:
REMARK  status: ('A' for Active; 'I' for Inactive)
REMARK    1  A    between atoms: C_2  and  C_3
REMARK    2  A    between atoms: N_5  and  C_6
REMARK    3  A    between atoms: C_8  and  N_9
REMARK    4  A    between atoms: C_14  and  C_15
REMARK    5  A    between atoms: N_17  and  C_18
REMARK    6  A    between atoms: C_18  and  C_19
REMARK    7  A    between atoms: C_19  and  C_20
REMARK    8  A    between atoms: C_20  and  O_21
REMARK    9  A    between atoms: C_29  and  O_30
REMARK   10  A    between atoms: O_30  and  C_31
REMARK                            x       y       z     vdW  Elec       q    Type
REMARK                         _______ _______ _______ _____ _____    ______ ____
ROOT
ATOM      1  N   UNL     1       0.274  10.702  18.386  0.00  0.00    +0.000 N 
ATOM      2  C   UNL     1       0.835   9.636  19.108  0.00  0.00    +0.000 A 
ATOM      3  N   UNL     1       0.532   9.509  20.413  0.00  0.00    +0.000 NA
ATOM      4  C   UNL     1       1.062   8.478  21.083  0.00  0.00    +0.000 A 
ATOM      5  C   UNL     1       1.859   7.536  20.495  0.00  0.00    +0.000 A 
ATOM      6  C   UNL     1       2.103   7.722  19.153  0.00  0.00    +0.000 A 
ATOM      7  N   UNL     1       1.626   8.778  18.448  0.00  0.00    +0.000 NA
ATOM      8  H   UNL     1       0.762  10.781  17.503  0.00  0.00    +0.000 HD
ENDROOT
BRANCH   6   9
ATOM      9  C   UNL     1       2.872   6.731  18.408  0.00  0.00    +0.000 A 
ATOM     10  C   UNL     1       4.019   7.047  17.707  0.00  0.00    +0.000 A 
ATOM     11  N   UNL     1       4.469   5.916  17.078  0.00  0.00    +0.000 N 
ATOM     12  C   UNL     1       3.647   4.847  17.370  0.00  0.00    +0.000 A 
ATOM     13  C   UNL     1       3.689   3.506  16.950  0.00  0.00    +0.000 A 
ATOM     14  C   UNL     1       2.700   2.633  17.414  0.00  0.00    +0.000 A 
ATOM     15  C   UNL     1       1.698   3.080  18.265  0.00  0.00    +0.000 A 
ATOM     16  C   UNL     1       1.654   4.419  18.666  0.00  0.00    +0.000 A 
ATOM     17  C   UNL     1       2.641   5.327  18.219  0.00  0.00    +0.000 A 
BRANCH  11  18
ATOM     18  C   UNL     1       5.655   5.874  16.240  0.00  0.00    +0.000 C 
BRANCH  18  19
ATOM     19  C   UNL     1       6.946   6.210  16.982  0.00  0.00    +0.000 C 
BRANCH  19  20
ATOM     20  C   UNL     1       7.405   5.106  17.928  0.00  0.00    +0.000 C 
BRANCH  20  21
ATOM     21  O   UNL     1       8.114   4.114  17.196  0.00  0.00    +0.000 OA
ATOM     22  H   UNL     1       8.524   3.506  17.833  0.00  0.00    +0.000 HD
ENDBRANCH  20  21
ENDBRANCH  19  20
ENDBRANCH  18  19
ENDBRANCH  11  18
ENDBRANCH   6   9
BRANCH   1  25
ATOM     23  C   UNL     1       0.598  14.181  19.691  0.00  0.00    +0.000 A 
ATOM     24  C   UNL     1       0.896  12.932  19.155  0.00  0.00    +0.000 A 
ATOM     25  C   UNL     1      -0.094  11.954  18.936  0.00  0.00    +0.000 A 
ATOM     26  C   UNL     1      -1.439  12.278  19.213  0.00  0.00    +0.000 A 
ATOM     27  C   UNL     1      -1.748  13.537  19.743  0.00  0.00    +0.000 A 
ATOM     28  C   UNL     1      -0.734  14.463  19.991  0.00  0.00    +0.000 A 
ATOM     29  F   UNL     1      -1.062  15.661  20.501  0.00  0.00    +0.000 F 
BRANCH  23  32
ATOM     30  C   UNL     1       2.242  15.308  21.171  0.00  0.00    +0.000 C 
ATOM     31  O   UNL     1       2.150  14.575  22.150  0.00  0.00    +0.000 OA
ATOM     32  N   UNL     1       1.594  15.152  19.965  0.00  0.00    +0.000 N 
ATOM     33  H   UNL     1       1.863  15.730  19.178  0.00  0.00    +0.000 HD
BRANCH  30  35
ATOM     34  C   UNL     1       3.288  17.229  20.112  0.00  0.00    +0.000 C 
ATOM     35  C   UNL     1       3.151  16.479  21.210  0.00  0.00    +0.000 C 
ENDBRANCH  30  35
ENDBRANCH  23  32
BRANCH  26  36
ATOM     36  O   UNL     1      -2.368  11.299  18.955  0.00  0.00    +0.000 OA
ATOM     37  C   UNL     1      -3.240  11.515  17.851  0.00  0.00    +0.000 C 
ENDBRANCH  26  36
ENDBRANCH   1  25
TORSDOF 9
ENDMDL
MODEL 7
REMARK VINA RESULT:      -8.1      1.733      3.127
REMARK  Name = 
REMARK  10 active torsions:
REMARK  status: ('A' for Active; 'I' for Inactive)
REMARK    1  A    between atoms: C_2  and  C_3
REMARK    2  A    between atoms: N_5  and  C_6
REMARK    3  A    between atoms: C_8  and  N_9
REMARK    4  A    between atoms: C_14  and  C_15
REMARK    5  A    between atoms: N_17  and  C_18
REMARK    6  A    between atoms: C_18  and  C_19
REMARK    7  A    between atoms: C_19  and  C_20
REMARK    8  A    between atoms: C_20  and  O_21
REMARK    9  A    between atoms: C_29  and  O_30
REMARK   10  A    between atoms: O_30  and  C_31
REMARK                            x       y       z     vdW  Elec       q    Type
REMARK                         _______ _______ _______ _____ _____    ______ ____
ROOT
ATOM      1  N   UNL     1       0.959  10.937  18.204  0.00  0.00    +0.000 N 
ATOM      2  C   UNL     1       1.193   9.924  19.149  0.00  0.00    +0.000 A 
ATOM      3  N   UNL     1       0.802  10.126  20.421  0.00  0.00    +0.000 NA
ATOM      4  C   UNL     1       1.018   9.145  21.307  0.00  0.00    +0.000 A 
ATOM      5  C   UNL     1       1.577   7.944  20.970  0.00  0.00    +0.000 A 
ATOM      6  C   UNL     1       1.927   7.805  19.645  0.00  0.00    +0.000 A 
ATOM      7  N   UNL     1       1.770   8.791  18.726  0.00  0.00    +0.000 NA
ATOM      8  H   UNL     1       1.494  10.725  17.372  0.00  0.00    +0.000 HD
ENDROOT
BRANCH   6   9
ATOM      9  C   UNL     1       2.453   6.535  19.159  0.00  0.00    +0.000 A 
ATOM     10  C   UNL     1       2.080   5.318  19.692  0.00  0.00    +0.000 A 
ATOM     11  N   UNL     1       2.788   4.331  19.058  0.00  0.00    +0.000 N 
ATOM     12  C   UNL     1       3.611   4.876  18.095  0.00  0.00    +0.000 A 
ATOM     13  C   UNL     1       4.526   4.275  17.212  0.00  0.00    +0.000 A 
ATOM     14  C   UNL     1       5.238   5.097  16.332  0.00  0.00    +0.000 A 
ATOM     15  C   UNL     1       5.049   6.473  16.332  0.00  0.00    +0.000 A 
ATOM     16  C   UNL     1       4.149   7.064  17.224  0.00  0.00    +0.000 A 
ATOM     17  C   UNL     1       3.410   6.262  18.124  0.00  0.00    +0.000 A 
BRANCH  11  18
ATOM     18  C   UNL     1       2.660   2.917  19.367  0.00  0.00    +0.000 C 
BRANCH  18  19
ATOM     19  C   UNL     1       1.361   2.559  20.087  0.00  0.00    +0.000 C 
BRANCH  19  20
ATOM     20  C   UNL     1       1.496   2.543  21.604  0.00  0.00    +0.000 C 
BRANCH  20  21
ATOM     21  O   UNL     1       2.872   2.496  21.962  0.00  0.00    +0.000 OA
ATOM     22  H   UNL     1       3.213   1.616  21.729  0.00  0.00    +0.000 HD
ENDBRANCH  20  21
ENDBRANCH  19  20
ENDBRANCH  18  19
ENDBRANCH  11  18
ENDBRANCH   6   9
BRANCH   1  25
ATOM     23  C   UNL     1       2.090  14.393  19.031  0.00  0.00    +0.000 A 
ATOM     24  C   UNL     1       2.086  13.031  18.743  0.00  0.00    +0.000 A 
ATOM     25  C   UNL     1       0.895  12.322  18.492  0.00  0.00    +0.000 A 
ATOM     26  C   UNL     1      -0.325  13.030  18.472  0.00  0.00    +0.000 A 
ATOM     27  C   UNL     1      -0.327  14.403  18.750  0.00  0.00    +0.000 A 
ATOM     28  C   UNL     1       0.867  15.062  19.041  0.00  0.00    +0.000 A 
ATOM     29  F   UNL     1       0.833  16.379  19.306  0.00  0.00    +0.000 F 
BRANCH  23  32
ATOM     30  C   UNL     1       4.083  15.740  18.419  0.00  0.00    +0.000 C 
ATOM     31  O   UNL     1       3.851  15.889  17.224  0.00  0.00    +0.000 OA
ATOM     32  N   UNL     1       3.277  15.105  19.337  0.00  0.00    +0.000 N 
ATOM     33  H   UNL     1       3.497  15.176  20.324  0.00  0.00    +0.000 HD
BRANCH  30  35
ATOM     34  C   UNL     1       6.505  15.910  18.523  0.00  0.00    +0.000 C 
ATOM     35  C   UNL     1       5.322  16.306  19.005  0.00  0.00    +0.000 C 
ENDBRANCH  30  35
ENDBRANCH  23  32
BRANCH  26  36
ATOM     36  O   UNL     1      -1.452  12.296  18.195  0.00  0.00    +0.000 OA
ATOM     37  C   UNL     1      -2.309  11.994  19.291  0.00  0.00    +0.000 C 
ENDBRANCH  26  36
ENDBRANCH   1  25
TORSDOF 9
ENDMDL
MODEL 8
REMARK VINA RESULT:      -8.0      1.666      1.815
REMARK  Name = 
REMARK  10 active torsions:
REMARK  status: ('A' for Active; 'I' for Inactive)
REMARK    1  A    between atoms: C_2  and  C_3
REMARK    2  A    between atoms: N_5  and  C_6
REMARK    3  A    between atoms: C_8  and  N_9
REMARK    4  A    between atoms: C_14  and  C_15
REMARK    5  A    between atoms: N_17  and  C_18
REMARK    6  A    between atoms: C_18  and  C_19
REMARK    7  A    between atoms: C_19  and  C_20
REMARK    8  A    between atoms: C_20  and  O_21
REMARK    9  A    between atoms: C_29  and  O_30
REMARK   10  A    between atoms: O_30  and  C_31
REMARK                            x       y       z     vdW  Elec       q    Type
REMARK                         _______ _______ _______ _____ _____    ______ ____
ROOT
ATOM      1  N   UNL     1       0.685  10.560  18.380  0.00  0.00    +0.000 N 
ATOM      2  C   UNL     1       1.097   9.452  19.139  0.00  0.00    +0.000 A 
ATOM      3  N   UNL     1       0.678   9.350  20.414  0.00  0.00    +0.000 NA
ATOM      4  C   UNL     1       1.067   8.280  21.119  0.00  0.00    +0.000 A 
ATOM      5  C   UNL     1       1.831   7.277  20.593  0.00  0.00    +0.000 A 
ATOM      6  C   UNL     1       2.199   7.441  19.276  0.00  0.00    +0.000 A 
ATOM      7  N   UNL     1       1.867   8.532  18.541  0.00  0.00    +0.000 NA
ATOM      8  H   UNL     1       1.249  10.599  17.541  0.00  0.00    +0.000 HD
ENDROOT
BRANCH   6   9
ATOM      9  C   UNL     1       2.943   6.392  18.590  0.00  0.00    +0.000 A 
ATOM     10  C   UNL     1       4.147   6.621  17.955  0.00  0.00    +0.000 A 
ATOM     11  N   UNL     1       4.558   5.453  17.368  0.00  0.00    +0.000 N 
ATOM     12  C   UNL     1       3.653   4.445  17.623  0.00  0.00    +0.000 A 
ATOM     13  C   UNL     1       3.632   3.097  17.222  0.00  0.00    +0.000 A 
ATOM     14  C   UNL     1       2.562   2.298  17.637  0.00  0.00    +0.000 A 
ATOM     15  C   UNL     1       1.544   2.822  18.422  0.00  0.00    +0.000 A 
ATOM     16  C   UNL     1       1.563   4.167  18.803  0.00  0.00    +0.000 A 
ATOM     17  C   UNL     1       2.633   5.002  18.405  0.00  0.00    +0.000 A 
BRANCH  11  18
ATOM     18  C   UNL     1       5.786   5.321  16.602  0.00  0.00    +0.000 C 
BRANCH  18  19
ATOM     19  C   UNL     1       5.576   5.357  15.090  0.00  0.00    +0.000 C 
BRANCH  19  20
ATOM     20  C   UNL     1       6.678   4.652  14.309  0.00  0.00    +0.000 C 
BRANCH  20  21
ATOM     21  O   UNL     1       7.821   5.495  14.231  0.00  0.00    +0.000 OA
ATOM     22  H   UNL     1       7.671   6.261  14.810  0.00  0.00    +0.000 HD
ENDBRANCH  20  21
ENDBRANCH  19  20
ENDBRANCH  18  19
ENDBRANCH  11  18
ENDBRANCH   6   9
BRANCH   1  25
ATOM     23  C   UNL     1       1.172  14.039  19.633  0.00  0.00    +0.000 A 
ATOM     24  C   UNL     1       1.411  12.767  19.120  0.00  0.00    +0.000 A 
ATOM     25  C   UNL     1       0.375  11.838  18.907  0.00  0.00    +0.000 A 
ATOM     26  C   UNL     1      -0.954  12.234  19.163  0.00  0.00    +0.000 A 
ATOM     27  C   UNL     1      -1.204  13.515  19.669  0.00  0.00    +0.000 A 
ATOM     28  C   UNL     1      -0.148  14.392  19.913  0.00  0.00    +0.000 A 
ATOM     29  F   UNL     1      -0.419  15.615  20.401  0.00  0.00    +0.000 F 
BRANCH  23  32
ATOM     30  C   UNL     1       2.824  15.139  21.124  0.00  0.00    +0.000 C 
ATOM     31  O   UNL     1       2.652  14.460  22.131  0.00  0.00    +0.000 OA
ATOM     32  N   UNL     1       2.213  14.963  19.902  0.00  0.00    +0.000 N 
ATOM     33  H   UNL     1       2.545  15.486  19.101  0.00  0.00    +0.000 HD
BRANCH  30  35
ATOM     34  C   UNL     1       3.395  17.459  21.568  0.00  0.00    +0.000 C 
ATOM     35  C   UNL     1       3.799  16.256  21.147  0.00  0.00    +0.000 C 
ENDBRANCH  30  35
ENDBRANCH  23  32
BRANCH  26  36
ATOM     36  O   UNL     1      -1.929  11.299  18.911  0.00  0.00    +0.000 OA
ATOM     37  C   UNL     1      -3.150  11.776  18.355  0.00  0.00    +0.000 C 
ENDBRANCH  26  36
ENDBRANCH   1  25
TORSDOF 9
ENDMDL
MODEL 9
REMARK VINA RESULT:      -8.0      1.991      4.175
REMARK  Name = 
REMARK  10 active torsions:
REMARK  status: ('A' for Active; 'I' for Inactive)
REMARK    1  A    between atoms: C_2  and  C_3
REMARK    2  A    between atoms: N_5  and  C_6
REMARK    3  A    between atoms: C_8  and  N_9
REMARK    4  A    between atoms: C_14  and  C_15
REMARK    5  A    between atoms: N_17  and  C_18
REMARK    6  A    between atoms: C_18  and  C_19
REMARK    7  A    between atoms: C_19  and  C_20
REMARK    8  A    between atoms: C_20  and  O_21
REMARK    9  A    between atoms: C_29  and  O_30
REMARK   10  A    between atoms: O_30  and  C_31
REMARK                            x       y       z     vdW  Elec       q    Type
REMARK                         _______ _______ _______ _____ _____    ______ ____
ROOT
ATOM      1  N   UNL     1       0.450  10.688  18.193  0.00  0.00    +0.000 N 
ATOM      2  C   UNL     1       0.963   9.627  18.958  0.00  0.00    +0.000 A 
ATOM      3  N   UNL     1       0.618   9.540  20.256  0.00  0.00    +0.000 NA
ATOM      4  C   UNL     1       1.104   8.515  20.968  0.00  0.00    +0.000 A 
ATOM      5  C   UNL     1       1.896   7.541  20.428  0.00  0.00    +0.000 A 
ATOM      6  C   UNL     1       2.185   7.687  19.089  0.00  0.00    +0.000 A 
ATOM      7  N   UNL     1       1.754   8.735  18.344  0.00  0.00    +0.000 NA
ATOM      8  H   UNL     1       0.965  10.733  17.324  0.00  0.00    +0.000 HD
ENDROOT
BRANCH   6   9
ATOM      9  C   UNL     1       2.953   6.662  18.393  0.00  0.00    +0.000 A 
ATOM     10  C   UNL     1       4.133   6.932  17.730  0.00  0.00    +0.000 A 
ATOM     11  N   UNL     1       4.574   5.776  17.140  0.00  0.00    +0.000 N 
ATOM     12  C   UNL     1       3.713   4.736  17.421  0.00  0.00    +0.000 A 
ATOM     13  C   UNL     1       3.734   3.386  17.030  0.00  0.00    +0.000 A 
ATOM     14  C   UNL     1       2.705   2.550  17.473  0.00  0.00    +0.000 A 
ATOM     15  C   UNL     1       1.685   3.041  18.278  0.00  0.00    +0.000 A 
ATOM     16  C   UNL     1       1.663   4.388  18.651  0.00  0.00    +0.000 A 
ATOM     17  C   UNL     1       2.691   5.261  18.223  0.00  0.00    +0.000 A 
BRANCH  11  18
ATOM     18  C   UNL     1       5.789   5.685  16.348  0.00  0.00    +0.000 C 
BRANCH  18  19
ATOM     19  C   UNL     1       5.552   5.237  14.908  0.00  0.00    +0.000 C 
BRANCH  19  20
ATOM     20  C   UNL     1       6.753   4.533  14.288  0.00  0.00    +0.000 C 
BRANCH  20  21
ATOM     21  O   UNL     1       6.321   3.361  13.607  0.00  0.00    +0.000 OA
ATOM     22  H   UNL     1       6.042   2.711  14.273  0.00  0.00    +0.000 HD
ENDBRANCH  20  21
ENDBRANCH  19  20
ENDBRANCH  18  19
ENDBRANCH  11  18
ENDBRANCH   6   9
BRANCH   1  25
ATOM     23  C   UNL     1      -1.620  13.393  19.712  0.00  0.00    +0.000 A 
ATOM     24  C   UNL     1      -1.208  12.166  19.199  0.00  0.00    +0.000 A 
ATOM     25  C   UNL     1       0.093  11.961  18.701  0.00  0.00    +0.000 A 
ATOM     26  C   UNL     1       1.025  13.016  18.784  0.00  0.00    +0.000 A 
ATOM     27  C   UNL     1       0.621  14.250  19.310  0.00  0.00    +0.000 A 
ATOM     28  C   UNL     1      -0.690  14.431  19.749  0.00  0.00    +0.000 A 
ATOM     29  F   UNL     1      -1.048  15.626  20.247  0.00  0.00    +0.000 F 
BRANCH  23  32
ATOM     30  C   UNL     1      -3.477  13.143  21.340  0.00  0.00    +0.000 C 
ATOM     31  O   UNL     1      -2.875  12.541  22.224  0.00  0.00    +0.000 OA
ATOM     32  N   UNL     1      -2.942  13.626  20.166  0.00  0.00    +0.000 N 
ATOM     33  H   UNL     1      -3.499  14.240  19.583  0.00  0.00    +0.000 HD
BRANCH  30  35
ATOM     34  C   UNL     1      -5.417  14.554  20.951  0.00  0.00    +0.000 C 
ATOM     35  C   UNL     1      -4.920  13.444  21.506  0.00  0.00    +0.000 C 
ENDBRANCH  30  35
ENDBRANCH  23  32
BRANCH  26  36
ATOM     36  O   UNL     1       2.288  12.754  18.311  0.00  0.00    +0.000 OA
ATOM     37  C   UNL     1       3.221  13.829  18.337  0.00  0.00    +0.000 C 
ENDBRANCH  26  36
ENDBRANCH   1  25
TORSDOF 9
ENDMDL
