MODEL 1
REMARK VINA RESULT:      -7.5      0.000      0.000
REMARK  Name = 
REMARK  13 active torsions:
REMARK  status: ('A' for Active; 'I' for Inactive)
REMARK    1  A    between atoms: C_2  and  C_3
REMARK    2  A    between atoms: C_2  and  C_4
REMARK    3  A    between atoms: C_7  and  C_8
REMARK    4  A    between atoms: C_10  and  C_11
REMARK    5  A    between atoms: C_12  and  O_13
REMARK    6  A    between atoms: C_15  and  C_16
REMARK    7  A    between atoms: C_16  and  C_17
REMARK    8  A    between atoms: C_17  and  C_18
REMARK    9  A    between atoms: C_18  and  C_19
REMARK   10  A    between atoms: C_19  and  C_20
REMARK   11  A    between atoms: C_21  and  C_22
REMARK   12  A    between atoms: C_22  and  O_24
REMARK   13  A    between atoms: C_25  and  O_26
REMARK                            x       y       z     vdW  Elec       q    Type
REMARK                         _______ _______ _______ _____ _____    ______ ____
ROOT
ATOM      1  C   UNL     1       2.701   6.740  18.588  0.00  0.00    +0.000 A 
ATOM      2  C   UNL     1       2.211   6.470  19.870  0.00  0.00    +0.000 A 
ATOM      3  C   UNL     1       1.595   7.444  20.655  0.00  0.00    +0.000 A 
ATOM      4  C   UNL     1       1.330   8.734  20.178  0.00  0.00    +0.000 A 
ATOM      5  C   UNL     1       1.744   9.041  18.865  0.00  0.00    +0.000 A 
ATOM      6  C   UNL     1       2.433   8.043  18.100  0.00  0.00    +0.000 A 
ENDROOT
BRANCH   1  13
ATOM      7  C   UNL     1       5.022   5.652  17.988  0.00  0.00    +0.000 C 
ATOM      8  C   UNL     1       5.346   4.827  19.248  0.00  0.00    +0.000 C 
ATOM      9  C   UNL     1       4.674   3.445  19.282  0.00  0.00    +0.000 C 
ATOM     10  C   UNL     1       3.382   3.311  18.500  0.00  0.00    +0.000 C 
ATOM     11  C   UNL     1       2.715   1.972  18.507  0.00  0.00    +0.000 C 
ATOM     12  C   UNL     1       2.843   4.341  17.813  0.00  0.00    +0.000 C 
ATOM     13  C   UNL     1       3.471   5.715  17.726  0.00  0.00    +0.000 C 
BRANCH   7  15
ATOM     14  C   UNL     1       5.399   5.132  15.549  0.00  0.00    +0.000 C 
ATOM     15  C   UNL     1       5.880   5.141  16.805  0.00  0.00    +0.000 C 
ATOM     16  C   UNL     1       7.291   4.656  17.042  0.00  0.00    +0.000 C 
ENDBRANCH   7  15
ENDBRANCH   1  13
BRANCH   2  17
ATOM     17  O   UNL     1       2.213   5.247  20.476  0.00  0.00    +0.000 OA
ATOM     18  H   UNL     1       1.291   5.026  20.675  0.00  0.00    +0.000 HD
ENDBRANCH   2  17
BRANCH   5  19
ATOM     19  C   UNL     1       1.436  10.321  18.148  0.00  0.00    +0.000 C 
ATOM     20  O   UNL     1       2.317  11.140  17.941  0.00  0.00    +0.000 OA
BRANCH  19  21
ATOM     21  O   UNL     1       0.160  10.578  17.822  0.00  0.00    +0.000 OA
ATOM     22  H   UNL     1      -0.029  10.754  16.891  0.00  0.00    +0.000 HD
ENDBRANCH  19  21
ENDBRANCH   5  19
BRANCH   6  23
ATOM     23  O   UNL     1       2.873   8.314  16.820  0.00  0.00    +0.000 OA
ATOM     24  H   UNL     1       3.598   7.692  16.583  0.00  0.00    +0.000 HD
ENDBRANCH   6  23
BRANCH   4  25
ATOM     25  C   UNL     1       0.577   9.617  21.151  0.00  0.00    +0.000 C 
BRANCH  25  26
ATOM     26  C   UNL     1      -0.176   8.893  22.261  0.00  0.00    +0.000 C 
BRANCH  26  27
ATOM     27  C   UNL     1      -0.757   9.842  23.309  0.00  0.00    +0.000 C 
BRANCH  27  28
ATOM     28  C   UNL     1      -0.891  11.246  22.729  0.00  0.00    +0.000 C 
ATOM     29  C   UNL     1      -2.211  11.877  23.129  0.00  0.00    +0.000 C 
ENDBRANCH  27  28
ENDBRANCH  26  27
ENDBRANCH  25  26
ENDBRANCH   4  25
TORSDOF 10
ENDMDL
MODEL 2
REMARK VINA RESULT:      -7.5      2.131      4.123
REMARK  Name = 
REMARK  13 active torsions:
REMARK  status: ('A' for Active; 'I' for Inactive)
REMARK    1  A    between atoms: C_2  and  C_3
REMARK    2  A    between atoms: C_2  and  C_4
REMARK    3  A    between atoms: C_7  and  C_8
REMARK    4  A    between atoms: C_10  and  C_11
REMARK    5  A    between atoms: C_12  and  O_13
REMARK    6  A    between atoms: C_15  and  C_16
REMARK    7  A    between atoms: C_16  and  C_17
REMARK    8  A    between atoms: C_17  and  C_18
REMARK    9  A    between atoms: C_18  and  C_19
REMARK   10  A    between atoms: C_19  and  C_20
REMARK   11  A    between atoms: C_21  and  C_22
REMARK   12  A    between atoms: C_22  and  O_24
REMARK   13  A    between atoms: C_25  and  O_26
REMARK                            x       y       z     vdW  Elec       q    Type
REMARK                         _______ _______ _______ _____ _____    ______ ____
ROOT
ATOM      1  C   UNL     1       2.821   6.737  19.181  0.00  0.00    +0.000 A 
ATOM      2  C   UNL     1       2.943   7.534  18.038  0.00  0.00    +0.000 A 
ATOM      3  C   UNL     1       2.229   8.720  17.874  0.00  0.00    +0.000 A 
ATOM      4  C   UNL     1       1.417   9.252  18.884  0.00  0.00    +0.000 A 
ATOM      5  C   UNL     1       1.310   8.522  20.085  0.00  0.00    +0.000 A 
ATOM      6  C   UNL     1       2.002   7.272  20.206  0.00  0.00    +0.000 A 
ENDROOT
BRANCH   1  13
ATOM      7  C   UNL     1       2.757   4.142  18.743  0.00  0.00    +0.000 C 
ATOM      8  C   UNL     1       2.977   4.049  17.222  0.00  0.00    +0.000 C 
ATOM      9  C   UNL     1       4.453   4.114  16.797  0.00  0.00    +0.000 C 
ATOM     10  C   UNL     1       5.387   4.851  17.737  0.00  0.00    +0.000 C 
ATOM     11  C   UNL     1       6.831   4.918  17.351  0.00  0.00    +0.000 C 
ATOM     12  C   UNL     1       4.957   5.424  18.881  0.00  0.00    +0.000 C 
ATOM     13  C   UNL     1       3.522   5.372  19.360  0.00  0.00    +0.000 C 
BRANCH   7  15
ATOM     14  C   UNL     1       3.130   2.629  20.727  0.00  0.00    +0.000 C 
ATOM     15  C   UNL     1       3.065   2.770  19.391  0.00  0.00    +0.000 C 
ATOM     16  C   UNL     1       3.283   1.551  18.524  0.00  0.00    +0.000 C 
ENDBRANCH   7  15
ENDBRANCH   1  13
BRANCH   2  17
ATOM     17  O   UNL     1       3.794   7.298  16.997  0.00  0.00    +0.000 OA
ATOM     18  H   UNL     1       4.201   6.431  17.153  0.00  0.00    +0.000 HD
ENDBRANCH   2  17
BRANCH   5  19
ATOM     19  C   UNL     1       0.591   8.996  21.313  0.00  0.00    +0.000 C 
ATOM     20  O   UNL     1      -0.465   8.482  21.647  0.00  0.00    +0.000 OA
BRANCH  19  21
ATOM     21  O   UNL     1       1.091  10.049  21.978  0.00  0.00    +0.000 OA
ATOM     22  H   UNL     1       1.976  10.346  21.728  0.00  0.00    +0.000 HD
ENDBRANCH  19  21
ENDBRANCH   5  19
BRANCH   6  23
ATOM     23  O   UNL     1       1.903   6.519  21.359  0.00  0.00    +0.000 OA
ATOM     24  H   UNL     1       2.368   6.982  22.094  0.00  0.00    +0.000 HD
ENDBRANCH   6  23
BRANCH   4  25
ATOM     25  C   UNL     1       0.796  10.591  18.545  0.00  0.00    +0.000 C 
BRANCH  25  26
ATOM     26  C   UNL     1      -0.727  10.624  18.492  0.00  0.00    +0.000 C 
BRANCH  26  27
ATOM     27  C   UNL     1      -1.306   9.770  17.365  0.00  0.00    +0.000 C 
BRANCH  27  28
ATOM     28  C   UNL     1      -2.683  10.289  16.966  0.00  0.00    +0.000 C 
ATOM     29  C   UNL     1      -2.833  10.337  15.457  0.00  0.00    +0.000 C 
ENDBRANCH  27  28
ENDBRANCH  26  27
ENDBRANCH  25  26
ENDBRANCH   4  25
TORSDOF 10
ENDMDL
MODEL 3
REMARK VINA RESULT:      -7.4      2.116      3.929
REMARK  Name = 
REMARK  13 active torsions:
REMARK  status: ('A' for Active; 'I' for Inactive)
REMARK    1  A    between atoms: C_2  and  C_3
REMARK    2  A    between atoms: C_2  and  C_4
REMARK    3  A    between atoms: C_7  and  C_8
REMARK    4  A    between atoms: C_10  and  C_11
REMARK    5  A    between atoms: C_12  and  O_13
REMARK    6  A    between atoms: C_15  and  C_16
REMARK    7  A    between atoms: C_16  and  C_17
REMARK    8  A    between atoms: C_17  and  C_18
REMARK    9  A    between atoms: C_18  and  C_19
REMARK   10  A    between atoms: C_19  and  C_20
REMARK   11  A    between atoms: C_21  and  C_22
REMARK   12  A    between atoms: C_22  and  O_24
REMARK   13  A    between atoms: C_25  and  O_26
REMARK                            x       y       z     vdW  Elec       q    Type
REMARK                         _______ _______ _______ _____ _____    ______ ____
ROOT
ATOM      1  C   UNL     1       3.026   6.511  19.122  0.00  0.00    +0.000 A 
ATOM      2  C   UNL     1       3.162   7.323  17.991  0.00  0.00    +0.000 A 
ATOM      3  C   UNL     1       2.419   8.489  17.815  0.00  0.00    +0.000 A 
ATOM      4  C   UNL     1       1.559   8.987  18.802  0.00  0.00    +0.000 A 
ATOM      5  C   UNL     1       1.435   8.242  19.992  0.00  0.00    +0.000 A 
ATOM      6  C   UNL     1       2.159   7.012  20.125  0.00  0.00    +0.000 A 
ENDROOT
BRANCH   1  13
ATOM      7  C   UNL     1       3.179   3.964  18.478  0.00  0.00    +0.000 C 
ATOM      8  C   UNL     1       3.657   4.012  17.014  0.00  0.00    +0.000 C 
ATOM      9  C   UNL     1       5.177   4.173  16.856  0.00  0.00    +0.000 C 
ATOM     10  C   UNL     1       5.898   4.864  17.997  0.00  0.00    +0.000 C 
ATOM     11  C   UNL     1       7.381   5.022  17.872  0.00  0.00    +0.000 C 
ATOM     12  C   UNL     1       5.251   5.317  19.091  0.00  0.00    +0.000 C 
ATOM     13  C   UNL     1       3.760   5.165  19.312  0.00  0.00    +0.000 C 
BRANCH   7  15
ATOM     14  C   UNL     1       3.409   1.459  18.279  0.00  0.00    +0.000 C 
ATOM     15  C   UNL     1       3.449   2.554  19.059  0.00  0.00    +0.000 C 
ATOM     16  C   UNL     1       3.784   2.386  20.523  0.00  0.00    +0.000 C 
ENDBRANCH   7  15
ENDBRANCH   1  13
BRANCH   2  17
ATOM     17  O   UNL     1       4.053   7.122  16.976  0.00  0.00    +0.000 OA
ATOM     18  H   UNL     1       3.979   7.881  16.378  0.00  0.00    +0.000 HD
ENDBRANCH   2  17
BRANCH   5  19
ATOM     19  C   UNL     1       0.663   8.683  21.200  0.00  0.00    +0.000 C 
ATOM     20  O   UNL     1       1.132   9.511  21.965  0.00  0.00    +0.000 OA
BRANCH  19  21
ATOM     21  O   UNL     1      -0.509   8.083  21.462  0.00  0.00    +0.000 OA
ATOM     22  H   UNL     1      -1.101   7.930  20.713  0.00  0.00    +0.000 HD
ENDBRANCH  19  21
ENDBRANCH   5  19
BRANCH   6  23
ATOM     23  O   UNL     1       2.045   6.245  21.267  0.00  0.00    +0.000 OA
ATOM     24  H   UNL     1       1.671   6.794  21.994  0.00  0.00    +0.000 HD
ENDBRANCH   6  23
BRANCH   4  25
ATOM     25  C   UNL     1       0.910  10.311  18.455  0.00  0.00    +0.000 C 
BRANCH  25  26
ATOM     26  C   UNL     1      -0.606  10.368  18.603  0.00  0.00    +0.000 C 
BRANCH  26  27
ATOM     27  C   UNL     1      -1.348   9.863  17.365  0.00  0.00    +0.000 C 
BRANCH  27  28
ATOM     28  C   UNL     1      -2.849   9.831  17.628  0.00  0.00    +0.000 C 
ATOM     29  C   UNL     1      -3.575  10.849  16.769  0.00  0.00    +0.000 C 
ENDBRANCH  27  28
ENDBRANCH  26  27
ENDBRANCH  25  26
ENDBRANCH   4  25
TORSDOF 10
ENDMDL
MODEL 4
REMARK VINA RESULT:      -7.3      2.195      4.033
REMARK  Name = 
REMARK  13 active torsions:
REMARK  status: ('A' for Active; 'I' for Inactive)
REMARK    1  A    between atoms: C_2  and  C_3
REMARK    2  A    between atoms: C_2  and  C_4
REMARK    3  A    between atoms: C_7  and  C_8
REMARK    4  A    between atoms: C_10  and  C_11
REMARK    5  A    between atoms: C_12  and  O_13
REMARK    6  A    between atoms: C_15  and  C_16
REMARK    7  A    between atoms: C_16  and  C_17
REMARK    8  A    between atoms: C_17  and  C_18
REMARK    9  A    between atoms: C_18  and  C_19
REMARK   10  A    between atoms: C_19  and  C_20
REMARK   11  A    between atoms: C_21  and  C_22
REMARK   12  A    between atoms: C_22  and  O_24
REMARK   13  A    between atoms: C_25  and  O_26
REMARK                            x       y       z     vdW  Elec       q    Type
REMARK                         _______ _______ _______ _____ _____    ______ ____
ROOT
ATOM      1  C   UNL     1       2.436   6.950  19.389  0.00  0.00    +0.000 A 
ATOM      2  C   UNL     1       2.615   7.663  18.198  0.00  0.00    +0.000 A 
ATOM      3  C   UNL     1       2.025   8.906  17.976  0.00  0.00    +0.000 A 
ATOM      4  C   UNL     1       1.296   9.579  18.966  0.00  0.00    +0.000 A 
ATOM      5  C   UNL     1       1.140   8.934  20.210  0.00  0.00    +0.000 A 
ATOM      6  C   UNL     1       1.701   7.627  20.394  0.00  0.00    +0.000 A 
ENDROOT
BRANCH   1  13
ATOM      7  C   UNL     1       2.117   4.358  19.060  0.00  0.00    +0.000 C 
ATOM      8  C   UNL     1       2.345   4.177  17.548  0.00  0.00    +0.000 C 
ATOM      9  C   UNL     1       3.825   4.076  17.145  0.00  0.00    +0.000 C 
ATOM     10  C   UNL     1       4.817   4.757  18.068  0.00  0.00    +0.000 C 
ATOM     11  C   UNL     1       6.265   4.662  17.703  0.00  0.00    +0.000 C 
ATOM     12  C   UNL     1       4.432   5.419  19.179  0.00  0.00    +0.000 C 
ATOM     13  C   UNL     1       2.994   5.532  19.637  0.00  0.00    +0.000 C 
BRANCH   7  15
ATOM     14  C   UNL     1       2.188   1.837  19.087  0.00  0.00    +0.000 C 
ATOM     15  C   UNL     1       2.279   2.992  19.770  0.00  0.00    +0.000 C 
ATOM     16  C   UNL     1       2.562   2.933  21.253  0.00  0.00    +0.000 C 
ENDBRANCH   7  15
ENDBRANCH   1  13
BRANCH   2  17
ATOM     17  O   UNL     1       3.412   7.279  17.160  0.00  0.00    +0.000 OA
ATOM     18  H   UNL     1       4.052   6.642  17.512  0.00  0.00    +0.000 HD
ENDBRANCH   2  17
BRANCH   5  19
ATOM     19  C   UNL     1       0.503   9.551  21.419  0.00  0.00    +0.000 C 
ATOM     20  O   UNL     1      -0.534   9.093  21.872  0.00  0.00    +0.000 OA
BRANCH  19  21
ATOM     21  O   UNL     1       1.052  10.664  21.931  0.00  0.00    +0.000 OA
ATOM     22  H   UNL     1       0.447  11.335  22.274  0.00  0.00    +0.000 HD
ENDBRANCH  19  21
ENDBRANCH   5  19
BRANCH   6  23
ATOM     23  O   UNL     1       1.550   6.956  21.591  0.00  0.00    +0.000 OA
ATOM     24  H   UNL     1       2.276   6.299  21.692  0.00  0.00    +0.000 HD
ENDBRANCH   6  23
BRANCH   4  25
ATOM     25  C   UNL     1       0.811  10.954  18.558  0.00  0.00    +0.000 C 
BRANCH  25  26
ATOM     26  C   UNL     1      -0.699  11.114  18.421  0.00  0.00    +0.000 C 
BRANCH  26  27
ATOM     27  C   UNL     1      -1.329  10.078  17.489  0.00  0.00    +0.000 C 
BRANCH  27  28
ATOM     28  C   UNL     1      -2.827   9.977  17.752  0.00  0.00    +0.000 C 
ATOM     29  C   UNL     1      -3.563  11.175  17.181  0.00  0.00    +0.000 C 
ENDBRANCH  27  28
ENDBRANCH  26  27
ENDBRANCH  25  26
ENDBRANCH   4  25
TORSDOF 10
ENDMDL
MODEL 5
REMARK VINA RESULT:      -7.3      2.160      4.067
REMARK  Name = 
REMARK  13 active torsions:
REMARK  status: ('A' for Active; 'I' for Inactive)
REMARK    1  A    between atoms: C_2  and  C_3
REMARK    2  A    between atoms: C_2  and  C_4
REMARK    3  A    between atoms: C_7  and  C_8
REMARK    4  A    between atoms: C_10  and  C_11
REMARK    5  A    between atoms: C_12  and  O_13
REMARK    6  A    between atoms: C_15  and  C_16
REMARK    7  A    between atoms: C_16  and  C_17
REMARK    8  A    between atoms: C_17  and  C_18
REMARK    9  A    between atoms: C_18  and  C_19
REMARK   10  A    between atoms: C_19  and  C_20
REMARK   11  A    between atoms: C_21  and  C_22
REMARK   12  A    between atoms: C_22  and  O_24
REMARK   13  A    between atoms: C_25  and  O_26
REMARK                            x       y       z     vdW  Elec       q    Type
REMARK                         _______ _______ _______ _____ _____    ______ ____
ROOT
ATOM      1  C   UNL     1       2.407   7.057  19.431  0.00  0.00    +0.000 A 
ATOM      2  C   UNL     1       2.562   7.784  18.246  0.00  0.00    +0.000 A 
ATOM      3  C   UNL     1       1.954   9.022  18.044  0.00  0.00    +0.000 A 
ATOM      4  C   UNL     1       1.229   9.675  19.050  0.00  0.00    +0.000 A 
ATOM      5  C   UNL     1       1.097   9.015  20.289  0.00  0.00    +0.000 A 
ATOM      6  C   UNL     1       1.677   7.713  20.452  0.00  0.00    +0.000 A 
ENDROOT
BRANCH   1  13
ATOM      7  C   UNL     1       2.074   4.459  19.163  0.00  0.00    +0.000 C 
ATOM      8  C   UNL     1       2.191   4.258  17.640  0.00  0.00    +0.000 C 
ATOM      9  C   UNL     1       3.637   4.154  17.131  0.00  0.00    +0.000 C 
ATOM     10  C   UNL     1       4.692   4.850  17.970  0.00  0.00    +0.000 C 
ATOM     11  C   UNL     1       6.110   4.753  17.502  0.00  0.00    +0.000 C 
ATOM     12  C   UNL     1       4.388   5.526  19.097  0.00  0.00    +0.000 C 
ATOM     13  C   UNL     1       2.986   5.642  19.658  0.00  0.00    +0.000 C 
BRANCH   7  15
ATOM     14  C   UNL     1       2.495   3.041  21.206  0.00  0.00    +0.000 C 
ATOM     15  C   UNL     1       2.290   3.103  19.878  0.00  0.00    +0.000 C 
ATOM     16  C   UNL     1       2.257   1.814  19.091  0.00  0.00    +0.000 C 
ENDBRANCH   7  15
ENDBRANCH   1  13
BRANCH   2  17
ATOM     17  O   UNL     1       3.352   7.421  17.194  0.00  0.00    +0.000 OA
ATOM     18  H   UNL     1       3.956   8.159  17.023  0.00  0.00    +0.000 HD
ENDBRANCH   2  17
BRANCH   5  19
ATOM     19  C   UNL     1       0.467   9.611  21.512  0.00  0.00    +0.000 C 
ATOM     20  O   UNL     1       0.953  10.601  22.037  0.00  0.00    +0.000 OA
BRANCH  19  21
ATOM     21  O   UNL     1      -0.584   8.981  22.060  0.00  0.00    +0.000 OA
ATOM     22  H   UNL     1      -0.398   8.189  22.581  0.00  0.00    +0.000 HD
ENDBRANCH  19  21
ENDBRANCH   5  19
BRANCH   6  23
ATOM     23  O   UNL     1       1.549   7.028  21.644  0.00  0.00    +0.000 OA
ATOM     24  H   UNL     1       0.980   6.237  21.508  0.00  0.00    +0.000 HD
ENDBRANCH   6  23
BRANCH   4  25
ATOM     25  C   UNL     1       0.722  11.048  18.663  0.00  0.00    +0.000 C 
BRANCH  25  26
ATOM     26  C   UNL     1      -0.596  11.079  17.897  0.00  0.00    +0.000 C 
BRANCH  26  27
ATOM     27  C   UNL     1      -1.769  10.518  18.702  0.00  0.00    +0.000 C 
BRANCH  27  28
ATOM     28  C   UNL     1      -2.784   9.869  17.767  0.00  0.00    +0.000 C 
ATOM     29  C   UNL     1      -2.407  10.088  16.314  0.00  0.00    +0.000 C 
ENDBRANCH  27  28
ENDBRANCH  26  27
ENDBRANCH  25  26
ENDBRANCH   4  25
TORSDOF 10
ENDMDL
MODEL 6
REMARK VINA RESULT:      -7.2      0.565      1.191
REMARK  Name = 
REMARK  13 active torsions:
REMARK  status: ('A' for Active; 'I' for Inactive)
REMARK    1  A    between atoms: C_2  and  C_3
REMARK    2  A    between atoms: C_2  and  C_4
REMARK    3  A    between atoms: C_7  and  C_8
REMARK    4  A    between atoms: C_10  and  C_11
REMARK    5  A    between atoms: C_12  and  O_13
REMARK    6  A    between atoms: C_15  and  C_16
REMARK    7  A    between atoms: C_16  and  C_17
REMARK    8  A    between atoms: C_17  and  C_18
REMARK    9  A    between atoms: C_18  and  C_19
REMARK   10  A    between atoms: C_19  and  C_20
REMARK   11  A    between atoms: C_21  and  C_22
REMARK   12  A    between atoms: C_22  and  O_24
REMARK   13  A    between atoms: C_25  and  O_26
REMARK                            x       y       z     vdW  Elec       q    Type
REMARK                         _______ _______ _______ _____ _____    ______ ____
ROOT
ATOM      1  C   UNL     1       2.653   6.872  18.714  0.00  0.00    +0.000 A 
ATOM      2  C   UNL     1       2.282   6.493  20.009  0.00  0.00    +0.000 A 
ATOM      3  C   UNL     1       1.585   7.344  20.865  0.00  0.00    +0.000 A 
ATOM      4  C   UNL     1       1.117   8.600  20.458  0.00  0.00    +0.000 A 
ATOM      5  C   UNL     1       1.407   9.006  19.139  0.00  0.00    +0.000 A 
ATOM      6  C   UNL     1       2.180   8.141  18.297  0.00  0.00    +0.000 A 
ENDROOT
BRANCH   1  13
ATOM      7  C   UNL     1       5.047   5.979  18.083  0.00  0.00    +0.000 C 
ATOM      8  C   UNL     1       5.373   5.028  19.250  0.00  0.00    +0.000 C 
ATOM      9  C   UNL     1       4.776   3.620  19.097  0.00  0.00    +0.000 C 
ATOM     10  C   UNL     1       3.519   3.516  18.255  0.00  0.00    +0.000 C 
ATOM     11  C   UNL     1       2.924   2.154  18.081  0.00  0.00    +0.000 C 
ATOM     12  C   UNL     1       2.948   4.592  17.672  0.00  0.00    +0.000 C 
ATOM     13  C   UNL     1       3.505   5.996  17.769  0.00  0.00    +0.000 C 
BRANCH   7  15
ATOM     14  C   UNL     1       7.222   5.197  17.071  0.00  0.00    +0.000 C 
ATOM     15  C   UNL     1       5.970   5.653  16.883  0.00  0.00    +0.000 C 
ATOM     16  C   UNL     1       5.468   5.825  15.468  0.00  0.00    +0.000 C 
ENDBRANCH   7  15
ENDBRANCH   1  13
BRANCH   2  17
ATOM     17  O   UNL     1       2.489   5.263  20.562  0.00  0.00    +0.000 OA
ATOM     18  H   UNL     1       3.340   5.298  21.024  0.00  0.00    +0.000 HD
ENDBRANCH   2  17
BRANCH   5  19
ATOM     19  C   UNL     1       0.883  10.255  18.494  0.00  0.00    +0.000 C 
ATOM     20  O   UNL     1      -0.313  10.392  18.295  0.00  0.00    +0.000 OA
BRANCH  19  21
ATOM     21  O   UNL     1       1.767  11.171  18.068  0.00  0.00    +0.000 OA
ATOM     22  H   UNL     1       2.310  11.603  18.740  0.00  0.00    +0.000 HD
ENDBRANCH  19  21
ENDBRANCH   5  19
BRANCH   6  23
ATOM     23  O   UNL     1       2.502   8.515  17.007  0.00  0.00    +0.000 OA
ATOM     24  H   UNL     1       1.679   8.748  16.519  0.00  0.00    +0.000 HD
ENDBRANCH   6  23
BRANCH   4  25
ATOM     25  C   UNL     1       0.308   9.335  21.506  0.00  0.00    +0.000 C 
BRANCH  25  26
ATOM     26  C   UNL     1       0.677  10.798  21.727  0.00  0.00    +0.000 C 
BRANCH  26  27
ATOM     27  C   UNL     1      -0.542  11.708  21.872  0.00  0.00    +0.000 C 
BRANCH  27  28
ATOM     28  C   UNL     1      -1.404  11.249  23.044  0.00  0.00    +0.000 C 
ATOM     29  C   UNL     1      -2.636  12.123  23.189  0.00  0.00    +0.000 C 
ENDBRANCH  27  28
ENDBRANCH  26  27
ENDBRANCH  25  26
ENDBRANCH   4  25
TORSDOF 10
ENDMDL
MODEL 7
REMARK VINA RESULT:      -7.2      1.773      3.585
REMARK  Name = 
REMARK  13 active torsions:
REMARK  status: ('A' for Active; 'I' for Inactive)
REMARK    1  A    between atoms: C_2  and  C_3
REMARK    2  A    between atoms: C_2  and  C_4
REMARK    3  A    between atoms: C_7  and  C_8
REMARK    4  A    between atoms: C_10  and  C_11
REMARK    5  A    between atoms: C_12  and  O_13
REMARK    6  A    between atoms: C_15  and  C_16
REMARK    7  A    between atoms: C_16  and  C_17
REMARK    8  A    between atoms: C_17  and  C_18
REMARK    9  A    between atoms: C_18  and  C_19
REMARK   10  A    between atoms: C_19  and  C_20
REMARK   11  A    between atoms: C_21  and  C_22
REMARK   12  A    between atoms: C_22  and  O_24
REMARK   13  A    between atoms: C_25  and  O_26
REMARK                            x       y       z     vdW  Elec       q    Type
REMARK                         _______ _______ _______ _____ _____    ______ ____
ROOT
ATOM      1  C   UNL     1       3.115   6.451  19.090  0.00  0.00    +0.000 A 
ATOM      2  C   UNL     1       3.258   7.278  17.971  0.00  0.00    +0.000 A 
ATOM      3  C   UNL     1       2.512   8.445  17.804  0.00  0.00    +0.000 A 
ATOM      4  C   UNL     1       1.643   8.927  18.791  0.00  0.00    +0.000 A 
ATOM      5  C   UNL     1       1.511   8.166  19.970  0.00  0.00    +0.000 A 
ATOM      6  C   UNL     1       2.239   6.936  20.092  0.00  0.00    +0.000 A 
ENDROOT
BRANCH   1  13
ATOM      7  C   UNL     1       3.253   3.902  18.449  0.00  0.00    +0.000 C 
ATOM      8  C   UNL     1       3.701   3.947  16.976  0.00  0.00    +0.000 C 
ATOM      9  C   UNL     1       5.218   4.106  16.786  0.00  0.00    +0.000 C 
ATOM     10  C   UNL     1       5.962   4.799  17.911  0.00  0.00    +0.000 C 
ATOM     11  C   UNL     1       7.442   4.956  17.756  0.00  0.00    +0.000 C 
ATOM     12  C   UNL     1       5.338   5.255  19.017  0.00  0.00    +0.000 C 
ATOM     13  C   UNL     1       3.852   5.105  19.268  0.00  0.00    +0.000 C 
BRANCH   7  15
ATOM     14  C   UNL     1       3.445   1.394  18.258  0.00  0.00    +0.000 C 
ATOM     15  C   UNL     1       3.534   2.494  19.028  0.00  0.00    +0.000 C 
ATOM     16  C   UNL     1       3.934   2.332  20.476  0.00  0.00    +0.000 C 
ENDBRANCH   7  15
ENDBRANCH   1  13
BRANCH   2  17
ATOM     17  O   UNL     1       4.157   7.094  16.961  0.00  0.00    +0.000 OA
ATOM     18  H   UNL     1       4.914   6.619  17.338  0.00  0.00    +0.000 HD
ENDBRANCH   2  17
BRANCH   5  19
ATOM     19  C   UNL     1       0.727   8.588  21.177  0.00  0.00    +0.000 C 
ATOM     20  O   UNL     1       1.205   9.374  21.979  0.00  0.00    +0.000 OA
BRANCH  19  21
ATOM     21  O   UNL     1      -0.467   8.015  21.394  0.00  0.00    +0.000 OA
ATOM     22  H   UNL     1      -0.963   7.726  20.617  0.00  0.00    +0.000 HD
ENDBRANCH  19  21
ENDBRANCH   5  19
BRANCH   6  23
ATOM     23  O   UNL     1       2.117   6.153  21.223  0.00  0.00    +0.000 OA
ATOM     24  H   UNL     1       1.893   5.231  20.961  0.00  0.00    +0.000 HD
ENDBRANCH   6  23
BRANCH   4  25
ATOM     25  C   UNL     1       0.993  10.253  18.456  0.00  0.00    +0.000 C 
BRANCH  25  26
ATOM     26  C   UNL     1      -0.497  10.202  18.134  0.00  0.00    +0.000 C 
BRANCH  26  27
ATOM     27  C   UNL     1      -1.253  11.447  18.597  0.00  0.00    +0.000 C 
BRANCH  27  28
ATOM     28  C   UNL     1      -0.543  12.080  19.789  0.00  0.00    +0.000 C 
ATOM     29  C   UNL     1      -1.264  11.761  21.085  0.00  0.00    +0.000 C 
ENDBRANCH  27  28
ENDBRANCH  26  27
ENDBRANCH  25  26
ENDBRANCH   4  25
TORSDOF 10
ENDMDL
MODEL 8
REMARK VINA RESULT:      -7.2      1.874      3.698
REMARK  Name = 
REMARK  13 active torsions:
REMARK  status: ('A' for Active; 'I' for Inactive)
REMARK    1  A    between atoms: C_2  and  C_3
REMARK    2  A    between atoms: C_2  and  C_4
REMARK    3  A    between atoms: C_7  and  C_8
REMARK    4  A    between atoms: C_10  and  C_11
REMARK    5  A    between atoms: C_12  and  O_13
REMARK    6  A    between atoms: C_15  and  C_16
REMARK    7  A    between atoms: C_16  and  C_17
REMARK    8  A    between atoms: C_17  and  C_18
REMARK    9  A    between atoms: C_18  and  C_19
REMARK   10  A    between atoms: C_19  and  C_20
REMARK   11  A    between atoms: C_21  and  C_22
REMARK   12  A    between atoms: C_22  and  O_24
REMARK   13  A    between atoms: C_25  and  O_26
REMARK                            x       y       z     vdW  Elec       q    Type
REMARK                         _______ _______ _______ _____ _____    ______ ____
ROOT
ATOM      1  C   UNL     1       2.918   6.642  19.179  0.00  0.00    +0.000 A 
ATOM      2  C   UNL     1       3.067   7.431  18.034  0.00  0.00    +0.000 A 
ATOM      3  C   UNL     1       2.349   8.611  17.842  0.00  0.00    +0.000 A 
ATOM      4  C   UNL     1       1.506   9.146  18.825  0.00  0.00    +0.000 A 
ATOM      5  C   UNL     1       1.370   8.423  20.028  0.00  0.00    +0.000 A 
ATOM      6  C   UNL     1       2.067   7.179  20.177  0.00  0.00    +0.000 A 
ENDROOT
BRANCH   1  13
ATOM      7  C   UNL     1       2.954   4.064  18.649  0.00  0.00    +0.000 C 
ATOM      8  C   UNL     1       3.340   4.029  17.159  0.00  0.00    +0.000 C 
ATOM      9  C   UNL     1       4.851   4.133  16.900  0.00  0.00    +0.000 C 
ATOM     10  C   UNL     1       5.663   4.851  17.961  0.00  0.00    +0.000 C 
ATOM     11  C   UNL     1       7.139   4.955  17.739  0.00  0.00    +0.000 C 
ATOM     12  C   UNL     1       5.099   5.375  19.070  0.00  0.00    +0.000 C 
ATOM     13  C   UNL     1       3.622   5.283  19.388  0.00  0.00    +0.000 C 
BRANCH   7  15
ATOM     14  C   UNL     1       3.254   2.511  20.615  0.00  0.00    +0.000 C 
ATOM     15  C   UNL     1       3.217   2.674  19.280  0.00  0.00    +0.000 C 
ATOM     16  C   UNL     1       3.421   1.464  18.398  0.00  0.00    +0.000 C 
ENDBRANCH   7  15
ENDBRANCH   1  13
BRANCH   2  17
ATOM     17  O   UNL     1       3.948   7.193  17.019  0.00  0.00    +0.000 OA
ATOM     18  H   UNL     1       4.333   6.318  17.176  0.00  0.00    +0.000 HD
ENDBRANCH   2  17
BRANCH   5  19
ATOM     19  C   UNL     1       0.614   8.901  21.232  0.00  0.00    +0.000 C 
ATOM     20  O   UNL     1      -0.466   8.410  21.517  0.00  0.00    +0.000 OA
BRANCH  19  21
ATOM     21  O   UNL     1       1.113   9.934  21.929  0.00  0.00    +0.000 OA
ATOM     22  H   UNL     1       2.026   9.857  22.236  0.00  0.00    +0.000 HD
ENDBRANCH  19  21
ENDBRANCH   5  19
BRANCH   6  23
ATOM     23  O   UNL     1       1.941   6.433  21.333  0.00  0.00    +0.000 OA
ATOM     24  H   UNL     1       1.398   5.633  21.149  0.00  0.00    +0.000 HD
ENDBRANCH   6  23
BRANCH   4  25
ATOM     25  C   UNL     1       0.887  10.478  18.459  0.00  0.00    +0.000 C 
BRANCH  25  26
ATOM     26  C   UNL     1      -0.620  10.469  18.224  0.00  0.00    +0.000 C 
BRANCH  26  27
ATOM     27  C   UNL     1      -1.244  11.863  18.289  0.00  0.00    +0.000 C 
BRANCH  27  28
ATOM     28  C   UNL     1      -2.245  11.937  19.437  0.00  0.00    +0.000 C 
ATOM     29  C   UNL     1      -1.535  12.046  20.773  0.00  0.00    +0.000 C 
ENDBRANCH  27  28
ENDBRANCH  26  27
ENDBRANCH  25  26
ENDBRANCH   4  25
TORSDOF 10
ENDMDL
MODEL 9
REMARK VINA RESULT:      -7.1      2.078      3.997
REMARK  Name = 
REMARK  13 active torsions:
REMARK  status: ('A' for Active; 'I' for Inactive)
REMARK    1  A    between atoms: C_2  and  C_3
REMARK    2  A    between atoms: C_2  and  C_4
REMARK    3  A    between atoms: C_7  and  C_8
REMARK    4  A    between atoms: C_10  and  C_11
REMARK    5  A    between atoms: C_12  and  O_13
REMARK    6  A    between atoms: C_15  and  C_16
REMARK    7  A    between atoms: C_16  and  C_17
REMARK    8  A    between atoms: C_17  and  C_18
REMARK    9  A    between atoms: C_18  and  C_19
REMARK   10  A    between atoms: C_19  and  C_20
REMARK   11  A    between atoms: C_21  and  C_22
REMARK   12  A    between atoms: C_22  and  O_24
REMARK   13  A    between atoms: C_25  and  O_26
REMARK                            x       y       z     vdW  Elec       q    Type
REMARK                         _______ _______ _______ _____ _____    ______ ____
ROOT
ATOM      1  C   UNL     1       2.337   7.212  19.432  0.00  0.00    +0.000 A 
ATOM      2  C   UNL     1       2.636   7.869  18.233  0.00  0.00    +0.000 A 
ATOM      3  C   UNL     1       2.148   9.141  17.936  0.00  0.00    +0.000 A 
ATOM      4  C   UNL     1       1.410   9.895  18.857  0.00  0.00    +0.000 A 
ATOM      5  C   UNL     1       1.135   9.307  20.109  0.00  0.00    +0.000 A 
ATOM      6  C   UNL     1       1.592   7.972  20.368  0.00  0.00    +0.000 A 
ENDROOT
BRANCH   1  13
ATOM      7  C   UNL     1       1.796   4.641  19.267  0.00  0.00    +0.000 C 
ATOM      8  C   UNL     1       1.979   4.352  17.765  0.00  0.00    +0.000 C 
ATOM      9  C   UNL     1       3.437   4.102  17.348  0.00  0.00    +0.000 C 
ATOM     10  C   UNL     1       4.500   4.750  18.214  0.00  0.00    +0.000 C 
ATOM     11  C   UNL     1       5.928   4.512  17.835  0.00  0.00    +0.000 C 
ATOM     12  C   UNL     1       4.194   5.508  19.288  0.00  0.00    +0.000 C 
ATOM     13  C   UNL     1       2.779   5.769  19.759  0.00  0.00    +0.000 C 
BRANCH   7  15
ATOM     14  C   UNL     1       2.113   3.296  21.378  0.00  0.00    +0.000 C 
ATOM     15  C   UNL     1       1.856   3.311  20.057  0.00  0.00    +0.000 C 
ATOM     16  C   UNL     1       1.607   1.997  19.354  0.00  0.00    +0.000 C 
ENDBRANCH   7  15
ENDBRANCH   1  13
BRANCH   2  17
ATOM     17  O   UNL     1       3.466   7.395  17.259  0.00  0.00    +0.000 OA
ATOM     18  H   UNL     1       2.914   7.197  16.487  0.00  0.00    +0.000 HD
ENDBRANCH   2  17
BRANCH   5  19
ATOM     19  C   UNL     1       0.471  10.008  21.256  0.00  0.00    +0.000 C 
ATOM     20  O   UNL     1      -0.670  10.429  21.145  0.00  0.00    +0.000 OA
BRANCH  19  21
ATOM     21  O   UNL     1       1.188  10.233  22.367  0.00  0.00    +0.000 OA
ATOM     22  H   UNL     1       1.715   9.497  22.707  0.00  0.00    +0.000 HD
ENDBRANCH  19  21
ENDBRANCH   5  19
BRANCH   6  23
ATOM     23  O   UNL     1       1.323   7.355  21.573  0.00  0.00    +0.000 OA
ATOM     24  H   UNL     1       0.406   6.998  21.561  0.00  0.00    +0.000 HD
ENDBRANCH   6  23
BRANCH   4  25
ATOM     25  C   UNL     1       1.047  11.285  18.378  0.00  0.00    +0.000 C 
BRANCH  25  26
ATOM     26  C   UNL     1       2.184  12.300  18.356  0.00  0.00    +0.000 C 
BRANCH  26  27
ATOM     27  C   UNL     1       2.156  13.256  19.549  0.00  0.00    +0.000 C 
BRANCH  27  28
ATOM     28  C   UNL     1       0.716  13.520  19.976  0.00  0.00    +0.000 C 
ATOM     29  C   UNL     1       0.628  13.770  21.470  0.00  0.00    +0.000 C 
ENDBRANCH  27  28
ENDBRANCH  26  27
ENDBRANCH  25  26
ENDBRANCH   4  25
TORSDOF 10
ENDMDL
