MODEL 1
REMARK VINA RESULT:      -7.1      0.000      0.000
REMARK  Name = 
REMARK  10 active torsions:
REMARK  status: ('A' for Active; 'I' for Inactive)
REMARK    1  A    between atoms: C_1  and  O_2
REMARK    2  A    between atoms: O_2  and  C_3
REMARK    3  A    between atoms: C_12  and  C_14
REMARK    4  A    between atoms: C_14  and  N_15
REMARK    5  A    between atoms: N_15  and  C_16
REMARK    6  A    between atoms: C_16  and  C_17
REMARK    7  A    between atoms: C_17  and  O_18
REMARK    8  A    between atoms: C_24  and  C_25
REMARK    9  A    between atoms: C_25  and  C_26
REMARK   10  A    between atoms: C_25  and  C_27
REMARK                            x       y       z     vdW  Elec       q    Type
REMARK                         _______ _______ _______ _____ _____    ______ ____
ROOT
ATOM      1  C   UNL     1       6.402   5.545  17.313  0.00  0.00    +0.000 A 
ATOM      2  C   UNL     1       6.285   4.987  18.586  0.00  0.00    +0.000 A 
ATOM      3  C   UNL     1       5.104   5.137  19.312  0.00  0.00    +0.000 A 
ATOM      4  C   UNL     1       4.035   5.859  18.777  0.00  0.00    +0.000 A 
ATOM      5  C   UNL     1       4.188   6.504  17.538  0.00  0.00    +0.000 A 
ATOM      6  C   UNL     1       5.365   6.329  16.802  0.00  0.00    +0.000 A 
ATOM      7  C   UNL     1       3.051   7.357  17.053  0.00  0.00    +0.000 C 
ATOM      8  C   UNL     1       2.433   8.114  18.238  0.00  0.00    +0.000 C 
ATOM      9  N   UNL     1       2.177   7.306  19.449  0.00  0.00    +0.000 N 
ATOM     10  C   UNL     1       1.617   7.839  20.617  0.00  0.00    +0.000 C 
ATOM     11  O   UNL     1       1.541   7.201  21.669  0.00  0.00    +0.000 OA
ATOM     12  C   UNL     1       2.698   5.930  19.500  0.00  0.00    +0.000 C 
ENDROOT
BRANCH  12  13
ATOM     13  C   UNL     1       1.664   4.903  18.931  0.00  0.00    +0.000 C 
ATOM     14  C   UNL     1       2.303   3.947  17.914  0.00  0.00    +0.000 C 
ATOM     15  C   UNL     1       1.008   4.069  20.039  0.00  0.00    +0.000 C 
ENDBRANCH  12  13
BRANCH   1  17
ATOM     16  C   UNL     1       7.227   4.943  15.188  0.00  0.00    +0.000 C 
ATOM     17  O   UNL     1       7.502   5.413  16.506  0.00  0.00    +0.000 OA
ENDBRANCH   1  17
BRANCH  10  18
ATOM     18  C   UNL     1       1.134   9.285  20.515  0.00  0.00    +0.000 C 
BRANCH  18  19
ATOM     19  N   UNL     1      -0.334   9.389  20.350  0.00  0.00    +0.000 NA
ATOM     20  H   UNL     1      -0.776   9.080  21.218  0.00  0.00    +0.000 HD
BRANCH  19  21
ATOM     21  C   UNL     1      -0.636  10.799  20.063  0.00  0.00    +0.000 C 
BRANCH  21  22
ATOM     22  C   UNL     1      -0.668  11.205  18.567  0.00  0.00    +0.000 C 
ATOM     23  C   UNL     1      -1.136  10.089  17.622  0.00  0.00    +0.000 C 
ATOM     24  C   UNL     1      -2.581   9.671  17.887  0.00  0.00    +0.000 C 
ATOM     25  C   UNL     1      -3.547  10.859  17.904  0.00  0.00    +0.000 C 
ATOM     26  C   UNL     1      -3.060  12.058  18.717  0.00  0.00    +0.000 C 
ATOM     27  C   UNL     1      -1.606  12.415  18.402  0.00  0.00    +0.000 C 
BRANCH  22  28
ATOM     28  O   UNL     1       0.650  11.598  18.173  0.00  0.00    +0.000 OA
ATOM     29  H   UNL     1       1.009  12.108  18.926  0.00  0.00    +0.000 HD
ENDBRANCH  22  28
ENDBRANCH  21  22
ENDBRANCH  19  21
ENDBRANCH  18  19
ENDBRANCH  10  18
TORSDOF 7
ENDMDL
MODEL 2
REMARK VINA RESULT:      -7.0      4.797      8.139
REMARK  Name = 
REMARK  10 active torsions:
REMARK  status: ('A' for Active; 'I' for Inactive)
REMARK    1  A    between atoms: C_1  and  O_2
REMARK    2  A    between atoms: O_2  and  C_3
REMARK    3  A    between atoms: C_12  and  C_14
REMARK    4  A    between atoms: C_14  and  N_15
REMARK    5  A    between atoms: N_15  and  C_16
REMARK    6  A    between atoms: C_16  and  C_17
REMARK    7  A    between atoms: C_17  and  O_18
REMARK    8  A    between atoms: C_24  and  C_25
REMARK    9  A    between atoms: C_25  and  C_26
REMARK   10  A    between atoms: C_25  and  C_27
REMARK                            x       y       z     vdW  Elec       q    Type
REMARK                         _______ _______ _______ _____ _____    ______ ____
ROOT
ATOM      1  C   UNL     1       2.132   3.973  19.604  0.00  0.00    +0.000 A 
ATOM      2  C   UNL     1       1.809   4.688  18.449  0.00  0.00    +0.000 A 
ATOM      3  C   UNL     1       2.819   5.212  17.643  0.00  0.00    +0.000 A 
ATOM      4  C   UNL     1       4.160   5.038  17.992  0.00  0.00    +0.000 A 
ATOM      5  C   UNL     1       4.482   4.405  19.204  0.00  0.00    +0.000 A 
ATOM      6  C   UNL     1       3.467   3.859  19.997  0.00  0.00    +0.000 A 
ATOM      7  C   UNL     1       5.933   4.338  19.589  0.00  0.00    +0.000 C 
ATOM      8  C   UNL     1       6.630   5.650  19.203  0.00  0.00    +0.000 C 
ATOM      9  N   UNL     1       6.334   6.156  17.846  0.00  0.00    +0.000 N 
ATOM     10  C   UNL     1       6.887   7.338  17.335  0.00  0.00    +0.000 C 
ATOM     11  O   UNL     1       6.527   7.831  16.264  0.00  0.00    +0.000 OA
ATOM     12  C   UNL     1       5.276   5.496  17.064  0.00  0.00    +0.000 C 
ENDROOT
BRANCH  12  13
ATOM     13  C   UNL     1       5.846   4.321  16.203  0.00  0.00    +0.000 C 
ATOM     14  C   UNL     1       4.852   3.158  16.086  0.00  0.00    +0.000 C 
ATOM     15  C   UNL     1       6.234   4.775  14.790  0.00  0.00    +0.000 C 
ENDBRANCH  12  13
BRANCH   1  17
ATOM     16  C   UNL     1       1.758   2.799  21.613  0.00  0.00    +0.000 C 
ATOM     17  O   UNL     1       1.214   3.382  20.431  0.00  0.00    +0.000 OA
ENDBRANCH   1  17
BRANCH  10  18
ATOM     18  C   UNL     1       7.949   8.001  18.211  0.00  0.00    +0.000 C 
BRANCH  18  19
ATOM     19  N   UNL     1       8.420   9.293  17.664  0.00  0.00    +0.000 NA
ATOM     20  H   UNL     1       7.606   9.813  17.327  0.00  0.00    +0.000 HD
BRANCH  19  21
ATOM     21  C   UNL     1       9.098  10.004  18.757  0.00  0.00    +0.000 C 
BRANCH  21  22
ATOM     22  C   UNL     1       9.292  11.531  18.568  0.00  0.00    +0.000 C 
ATOM     23  C   UNL     1       9.230  12.339  19.872  0.00  0.00    +0.000 C 
ATOM     24  C   UNL     1      10.357  11.975  20.836  0.00  0.00    +0.000 C 
ATOM     25  C   UNL     1      11.740  12.038  20.181  0.00  0.00    +0.000 C 
ATOM     26  C   UNL     1      11.820  11.369  18.809  0.00  0.00    +0.000 C 
ATOM     27  C   UNL     1      10.658  11.777  17.901  0.00  0.00    +0.000 C 
BRANCH  22  28
ATOM     28  O   UNL     1       8.269  12.016  17.695  0.00  0.00    +0.000 OA
ATOM     29  H   UNL     1       7.421  11.784  18.127  0.00  0.00    +0.000 HD
ENDBRANCH  22  28
ENDBRANCH  21  22
ENDBRANCH  19  21
ENDBRANCH  18  19
ENDBRANCH  10  18
TORSDOF 7
ENDMDL
MODEL 3
REMARK VINA RESULT:      -6.9      1.584      2.031
REMARK  Name = 
REMARK  10 active torsions:
REMARK  status: ('A' for Active; 'I' for Inactive)
REMARK    1  A    between atoms: C_1  and  O_2
REMARK    2  A    between atoms: O_2  and  C_3
REMARK    3  A    between atoms: C_12  and  C_14
REMARK    4  A    between atoms: C_14  and  N_15
REMARK    5  A    between atoms: N_15  and  C_16
REMARK    6  A    between atoms: C_16  and  C_17
REMARK    7  A    between atoms: C_17  and  O_18
REMARK    8  A    between atoms: C_24  and  C_25
REMARK    9  A    between atoms: C_25  and  C_26
REMARK   10  A    between atoms: C_25  and  C_27
REMARK                            x       y       z     vdW  Elec       q    Type
REMARK                         _______ _______ _______ _____ _____    ______ ____
ROOT
ATOM      1  C   UNL     1       6.363   5.610  17.288  0.00  0.00    +0.000 A 
ATOM      2  C   UNL     1       6.255   5.066  18.569  0.00  0.00    +0.000 A 
ATOM      3  C   UNL     1       5.081   5.229  19.304  0.00  0.00    +0.000 A 
ATOM      4  C   UNL     1       4.010   5.949  18.770  0.00  0.00    +0.000 A 
ATOM      5  C   UNL     1       4.155   6.580  17.522  0.00  0.00    +0.000 A 
ATOM      6  C   UNL     1       5.324   6.392  16.778  0.00  0.00    +0.000 A 
ATOM      7  C   UNL     1       3.017   7.433  17.038  0.00  0.00    +0.000 C 
ATOM      8  C   UNL     1       2.413   8.205  18.220  0.00  0.00    +0.000 C 
ATOM      9  N   UNL     1       2.165   7.412  19.442  0.00  0.00    +0.000 N 
ATOM     10  C   UNL     1       1.618   7.960  20.610  0.00  0.00    +0.000 C 
ATOM     11  O   UNL     1       1.548   7.334  21.669  0.00  0.00    +0.000 OA
ATOM     12  C   UNL     1       2.681   6.034  19.504  0.00  0.00    +0.000 C 
ENDROOT
BRANCH  12  13
ATOM     13  C   UNL     1       1.637   5.005  18.957  0.00  0.00    +0.000 C 
ATOM     14  C   UNL     1       2.238   4.098  17.874  0.00  0.00    +0.000 C 
ATOM     15  C   UNL     1       1.059   4.121  20.068  0.00  0.00    +0.000 C 
ENDBRANCH  12  13
BRANCH   1  17
ATOM     16  C   UNL     1       7.203   4.777  15.248  0.00  0.00    +0.000 C 
ATOM     17  O   UNL     1       7.455   5.463  16.473  0.00  0.00    +0.000 OA
ENDBRANCH   1  17
BRANCH  10  18
ATOM     18  C   UNL     1       1.139   9.408  20.496  0.00  0.00    +0.000 C 
BRANCH  18  19
ATOM     19  N   UNL     1       1.050  10.087  21.808  0.00  0.00    +0.000 NA
ATOM     20  H   UNL     1       1.807  10.773  21.865  0.00  0.00    +0.000 HD
BRANCH  19  21
ATOM     21  C   UNL     1      -0.268  10.735  21.869  0.00  0.00    +0.000 C 
BRANCH  21  22
ATOM     22  C   UNL     1      -0.297  12.261  21.597  0.00  0.00    +0.000 C 
ATOM     23  C   UNL     1      -0.981  12.653  20.280  0.00  0.00    +0.000 C 
ATOM     24  C   UNL     1      -2.462  12.282  20.261  0.00  0.00    +0.000 C 
ATOM     25  C   UNL     1      -3.220  12.805  21.484  0.00  0.00    +0.000 C 
ATOM     26  C   UNL     1      -2.509  12.567  22.817  0.00  0.00    +0.000 C 
ATOM     27  C   UNL     1      -1.031  12.957  22.759  0.00  0.00    +0.000 C 
BRANCH  22  28
ATOM     28  O   UNL     1       1.049  12.743  21.560  0.00  0.00    +0.000 OA
ATOM     29  H   UNL     1       1.532  12.131  20.969  0.00  0.00    +0.000 HD
ENDBRANCH  22  28
ENDBRANCH  21  22
ENDBRANCH  19  21
ENDBRANCH  18  19
ENDBRANCH  10  18
TORSDOF 7
ENDMDL
MODEL 4
REMARK VINA RESULT:      -6.8      3.115      5.802
REMARK  Name = 
REMARK  10 active torsions:
REMARK  status: ('A' for Active; 'I' for Inactive)
REMARK    1  A    between atoms: C_1  and  O_2
REMARK    2  A    between atoms: O_2  and  C_3
REMARK    3  A    between atoms: C_12  and  C_14
REMARK    4  A    between atoms: C_14  and  N_15
REMARK    5  A    between atoms: N_15  and  C_16
REMARK    6  A    between atoms: C_16  and  C_17
REMARK    7  A    between atoms: C_17  and  O_18
REMARK    8  A    between atoms: C_24  and  C_25
REMARK    9  A    between atoms: C_25  and  C_26
REMARK   10  A    between atoms: C_25  and  C_27
REMARK                            x       y       z     vdW  Elec       q    Type
REMARK                         _______ _______ _______ _____ _____    ______ ____
ROOT
ATOM      1  C   UNL     1       2.503   7.164  19.084  0.00  0.00    +0.000 A 
ATOM      2  C   UNL     1       2.487   7.813  17.848  0.00  0.00    +0.000 A 
ATOM      3  C   UNL     1       1.928   9.085  17.730  0.00  0.00    +0.000 A 
ATOM      4  C   UNL     1       1.368   9.714  18.844  0.00  0.00    +0.000 A 
ATOM      5  C   UNL     1       1.295   9.022  20.065  0.00  0.00    +0.000 A 
ATOM      6  C   UNL     1       1.879   7.757  20.184  0.00  0.00    +0.000 A 
ATOM      7  C   UNL     1       0.587   9.696  21.205  0.00  0.00    +0.000 C 
ATOM      8  C   UNL     1      -0.645  10.445  20.676  0.00  0.00    +0.000 C 
ATOM      9  N   UNL     1      -0.424  11.263  19.465  0.00  0.00    +0.000 N 
ATOM     10  C   UNL     1      -1.440  12.010  18.853  0.00  0.00    +0.000 C 
ATOM     11  O   UNL     1      -1.289  12.572  17.767  0.00  0.00    +0.000 OA
ATOM     12  C   UNL     1       0.864  11.147  18.762  0.00  0.00    +0.000 C 
ENDROOT
BRANCH  12  13
ATOM     13  C   UNL     1       1.911  12.172  19.311  0.00  0.00    +0.000 C 
ATOM     14  C   UNL     1       2.649  12.901  18.180  0.00  0.00    +0.000 C 
ATOM     15  C   UNL     1       1.270  13.220  20.229  0.00  0.00    +0.000 C 
ENDBRANCH  12  13
BRANCH   1  17
ATOM     16  C   UNL     1       2.784   4.953  18.316  0.00  0.00    +0.000 C 
ATOM     17  O   UNL     1       3.069   5.937  19.308  0.00  0.00    +0.000 OA
ENDBRANCH   1  17
BRANCH  10  18
ATOM     18  C   UNL     1      -2.768  12.058  19.608  0.00  0.00    +0.000 C 
BRANCH  18  19
ATOM     19  N   UNL     1      -3.908  12.433  18.741  0.00  0.00    +0.000 NA
ATOM     20  H   UNL     1      -4.016  11.710  18.026  0.00  0.00    +0.000 HD
BRANCH  19  21
ATOM     21  C   UNL     1      -5.095  12.521  19.603  0.00  0.00    +0.000 C 
BRANCH  21  22
ATOM     22  C   UNL     1      -6.468  12.357  18.901  0.00  0.00    +0.000 C 
ATOM     23  C   UNL     1      -6.806  10.912  18.509  0.00  0.00    +0.000 C 
ATOM     24  C   UNL     1      -6.940   9.997  19.723  0.00  0.00    +0.000 C 
ATOM     25  C   UNL     1      -7.902  10.550  20.779  0.00  0.00    +0.000 C 
ATOM     26  C   UNL     1      -7.700  12.030  21.103  0.00  0.00    +0.000 C 
ATOM     27  C   UNL     1      -7.569  12.884  19.840  0.00  0.00    +0.000 C 
BRANCH  22  28
ATOM     28  O   UNL     1      -6.469  13.153  17.712  0.00  0.00    +0.000 OA
ATOM     29  H   UNL     1      -7.159  12.766  17.136  0.00  0.00    +0.000 HD
ENDBRANCH  22  28
ENDBRANCH  21  22
ENDBRANCH  19  21
ENDBRANCH  18  19
ENDBRANCH  10  18
TORSDOF 7
ENDMDL
MODEL 5
REMARK VINA RESULT:      -6.8      2.465      8.421
REMARK  Name = 
REMARK  10 active torsions:
REMARK  status: ('A' for Active; 'I' for Inactive)
REMARK    1  A    between atoms: C_1  and  O_2
REMARK    2  A    between atoms: O_2  and  C_3
REMARK    3  A    between atoms: C_12  and  C_14
REMARK    4  A    between atoms: C_14  and  N_15
REMARK    5  A    between atoms: N_15  and  C_16
REMARK    6  A    between atoms: C_16  and  C_17
REMARK    7  A    between atoms: C_17  and  O_18
REMARK    8  A    between atoms: C_24  and  C_25
REMARK    9  A    between atoms: C_25  and  C_26
REMARK   10  A    between atoms: C_25  and  C_27
REMARK                            x       y       z     vdW  Elec       q    Type
REMARK                         _______ _______ _______ _____ _____    ______ ____
ROOT
ATOM      1  C   UNL     1      -0.604  13.071  22.605  0.00  0.00    +0.000 A 
ATOM      2  C   UNL     1      -0.264  13.643  21.378  0.00  0.00    +0.000 A 
ATOM      3  C   UNL     1      -0.041  12.834  20.265  0.00  0.00    +0.000 A 
ATOM      4  C   UNL     1      -0.143  11.445  20.372  0.00  0.00    +0.000 A 
ATOM      5  C   UNL     1      -0.387  10.865  21.628  0.00  0.00    +0.000 A 
ATOM      6  C   UNL     1      -0.635  11.681  22.736  0.00  0.00    +0.000 A 
ATOM      7  C   UNL     1      -0.380   9.365  21.714  0.00  0.00    +0.000 C 
ATOM      8  C   UNL     1       0.731   8.803  20.815  0.00  0.00    +0.000 C 
ATOM      9  N   UNL     1       0.810   9.382  19.457  0.00  0.00    +0.000 N 
ATOM     10  C   UNL     1       1.763   8.983  18.511  0.00  0.00    +0.000 C 
ATOM     11  O   UNL     1       1.919   9.567  17.437  0.00  0.00    +0.000 OA
ATOM     12  C   UNL     1      -0.023  10.555  19.144  0.00  0.00    +0.000 C 
ENDROOT
BRANCH  12  13
ATOM     13  C   UNL     1      -1.421  10.132  18.583  0.00  0.00    +0.000 C 
ATOM     14  C   UNL     1      -2.478  11.226  18.790  0.00  0.00    +0.000 C 
ATOM     15  C   UNL     1      -1.365   9.785  17.090  0.00  0.00    +0.000 C 
ENDBRANCH  12  13
BRANCH   1  17
ATOM     16  C   UNL     1      -2.257  14.145  23.898  0.00  0.00    +0.000 C 
ATOM     17  O   UNL     1      -0.887  13.784  23.741  0.00  0.00    +0.000 OA
ENDBRANCH   1  17
BRANCH  10  18
ATOM     18  C   UNL     1       2.627   7.787  18.912  0.00  0.00    +0.000 C 
BRANCH  18  19
ATOM     19  N   UNL     1       1.994   6.488  18.590  0.00  0.00    +0.000 NA
ATOM     20  H   UNL     1       2.431   6.121  17.742  0.00  0.00    +0.000 HD
BRANCH  19  21
ATOM     21  C   UNL     1       2.221   5.602  19.741  0.00  0.00    +0.000 C 
BRANCH  21  22
ATOM     22  C   UNL     1       1.743   4.135  19.583  0.00  0.00    +0.000 C 
ATOM     23  C   UNL     1       1.467   3.716  18.132  0.00  0.00    +0.000 C 
ATOM     24  C   UNL     1       2.725   3.754  17.266  0.00  0.00    +0.000 C 
ATOM     25  C   UNL     1       3.891   2.975  17.881  0.00  0.00    +0.000 C 
ATOM     26  C   UNL     1       4.119   3.250  19.368  0.00  0.00    +0.000 C 
ATOM     27  C   UNL     1       2.817   3.199  20.169  0.00  0.00    +0.000 C 
BRANCH  22  28
ATOM     28  O   UNL     1       0.537   3.965  20.332  0.00  0.00    +0.000 OA
ATOM     29  H   UNL     1       0.345   3.006  20.310  0.00  0.00    +0.000 HD
ENDBRANCH  22  28
ENDBRANCH  21  22
ENDBRANCH  19  21
ENDBRANCH  18  19
ENDBRANCH  10  18
TORSDOF 7
ENDMDL
MODEL 6
REMARK VINA RESULT:      -6.8      2.441      8.732
REMARK  Name = 
REMARK  10 active torsions:
REMARK  status: ('A' for Active; 'I' for Inactive)
REMARK    1  A    between atoms: C_1  and  O_2
REMARK    2  A    between atoms: O_2  and  C_3
REMARK    3  A    between atoms: C_12  and  C_14
REMARK    4  A    between atoms: C_14  and  N_15
REMARK    5  A    between atoms: N_15  and  C_16
REMARK    6  A    between atoms: C_16  and  C_17
REMARK    7  A    between atoms: C_17  and  O_18
REMARK    8  A    between atoms: C_24  and  C_25
REMARK    9  A    between atoms: C_25  and  C_26
REMARK   10  A    between atoms: C_25  and  C_27
REMARK                            x       y       z     vdW  Elec       q    Type
REMARK                         _______ _______ _______ _____ _____    ______ ____
ROOT
ATOM      1  C   UNL     1      -0.637  13.062  22.603  0.00  0.00    +0.000 A 
ATOM      2  C   UNL     1      -0.269  13.643  21.388  0.00  0.00    +0.000 A 
ATOM      3  C   UNL     1      -0.052  12.846  20.266  0.00  0.00    +0.000 A 
ATOM      4  C   UNL     1      -0.187  11.458  20.351  0.00  0.00    +0.000 A 
ATOM      5  C   UNL     1      -0.460  10.866  21.596  0.00  0.00    +0.000 A 
ATOM      6  C   UNL     1      -0.702  11.671  22.713  0.00  0.00    +0.000 A 
ATOM      7  C   UNL     1      -0.489   9.365  21.660  0.00  0.00    +0.000 C 
ATOM      8  C   UNL     1       0.619   8.790  20.765  0.00  0.00    +0.000 C 
ATOM      9  N   UNL     1       0.728   9.387  19.418  0.00  0.00    +0.000 N 
ATOM     10  C   UNL     1       1.682   8.979  18.477  0.00  0.00    +0.000 C 
ATOM     11  O   UNL     1       1.865   9.574  17.413  0.00  0.00    +0.000 OA
ATOM     12  C   UNL     1      -0.074  10.583  19.111  0.00  0.00    +0.000 C 
ENDROOT
BRANCH  12  13
ATOM     13  C   UNL     1      -1.475  10.202  18.529  0.00  0.00    +0.000 C 
ATOM     14  C   UNL     1      -2.498  11.332  18.705  0.00  0.00    +0.000 C 
ATOM     15  C   UNL     1      -1.402   9.837  17.041  0.00  0.00    +0.000 C 
ENDBRANCH  12  13
BRANCH   1  17
ATOM     16  C   UNL     1      -1.028  15.176  23.571  0.00  0.00    +0.000 C 
ATOM     17  O   UNL     1      -0.916  13.765  23.746  0.00  0.00    +0.000 OA
ENDBRANCH   1  17
BRANCH  10  18
ATOM     18  C   UNL     1       2.514   7.758  18.869  0.00  0.00    +0.000 C 
BRANCH  18  19
ATOM     19  N   UNL     1       2.836   6.888  17.715  0.00  0.00    +0.000 NA
ATOM     20  H   UNL     1       2.714   7.435  16.860  0.00  0.00    +0.000 HD
BRANCH  19  21
ATOM     21  C   UNL     1       4.230   6.451  17.881  0.00  0.00    +0.000 C 
BRANCH  21  22
ATOM     22  C   UNL     1       4.460   4.923  18.013  0.00  0.00    +0.000 C 
ATOM     23  C   UNL     1       4.584   4.187  16.672  0.00  0.00    +0.000 C 
ATOM     24  C   UNL     1       5.803   4.641  15.871  0.00  0.00    +0.000 C 
ATOM     25  C   UNL     1       7.099   4.587  16.683  0.00  0.00    +0.000 C 
ATOM     26  C   UNL     1       6.990   5.180  18.088  0.00  0.00    +0.000 C 
ATOM     27  C   UNL     1       5.745   4.685  18.827  0.00  0.00    +0.000 C 
BRANCH  22  28
ATOM     28  O   UNL     1       3.359   4.357  18.731  0.00  0.00    +0.000 OA
ATOM     29  H   UNL     1       2.558   4.782  18.364  0.00  0.00    +0.000 HD
ENDBRANCH  22  28
ENDBRANCH  21  22
ENDBRANCH  19  21
ENDBRANCH  18  19
ENDBRANCH  10  18
TORSDOF 7
ENDMDL
MODEL 7
REMARK VINA RESULT:      -6.7      5.053      8.281
REMARK  Name = 
REMARK  10 active torsions:
REMARK  status: ('A' for Active; 'I' for Inactive)
REMARK    1  A    between atoms: C_1  and  O_2
REMARK    2  A    between atoms: O_2  and  C_3
REMARK    3  A    between atoms: C_12  and  C_14
REMARK    4  A    between atoms: C_14  and  N_15
REMARK    5  A    between atoms: N_15  and  C_16
REMARK    6  A    between atoms: C_16  and  C_17
REMARK    7  A    between atoms: C_17  and  O_18
REMARK    8  A    between atoms: C_24  and  C_25
REMARK    9  A    between atoms: C_25  and  C_26
REMARK   10  A    between atoms: C_25  and  C_27
REMARK                            x       y       z     vdW  Elec       q    Type
REMARK                         _______ _______ _______ _____ _____    ______ ____
ROOT
ATOM      1  C   UNL     1       2.802   3.785  19.157  0.00  0.00    +0.000 A 
ATOM      2  C   UNL     1       2.492   4.659  18.113  0.00  0.00    +0.000 A 
ATOM      3  C   UNL     1       3.507   5.342  17.445  0.00  0.00    +0.000 A 
ATOM      4  C   UNL     1       4.840   5.167  17.823  0.00  0.00    +0.000 A 
ATOM      5  C   UNL     1       5.144   4.365  18.936  0.00  0.00    +0.000 A 
ATOM      6  C   UNL     1       4.125   3.662  19.587  0.00  0.00    +0.000 A 
ATOM      7  C   UNL     1       6.580   4.294  19.372  0.00  0.00    +0.000 C 
ATOM      8  C   UNL     1       7.231   5.677  19.226  0.00  0.00    +0.000 C 
ATOM      9  N   UNL     1       6.966   6.378  17.952  0.00  0.00    +0.000 N 
ATOM     10  C   UNL     1       7.483   7.646  17.656  0.00  0.00    +0.000 C 
ATOM     11  O   UNL     1       7.143   8.287  16.660  0.00  0.00    +0.000 OA
ATOM     12  C   UNL     1       5.969   5.808  17.030  0.00  0.00    +0.000 C 
ENDROOT
BRANCH  12  13
ATOM     13  C   UNL     1       6.625   4.806  16.023  0.00  0.00    +0.000 C 
ATOM     14  C   UNL     1       5.736   3.581  15.769  0.00  0.00    +0.000 C 
ATOM     15  C   UNL     1       6.945   5.465  14.676  0.00  0.00    +0.000 C 
ENDBRANCH  12  13
BRANCH   1  17
ATOM     16  C   UNL     1       1.463   3.587  21.087  0.00  0.00    +0.000 C 
ATOM     17  O   UNL     1       1.880   3.036  19.840  0.00  0.00    +0.000 OA
ENDBRANCH   1  17
BRANCH  10  18
ATOM     18  C   UNL     1       8.480   8.204  18.672  0.00  0.00    +0.000 C 
BRANCH  18  19
ATOM     19  N   UNL     1       8.655   9.669  18.558  0.00  0.00    +0.000 NA
ATOM     20  H   UNL     1       7.728  10.101  18.539  0.00  0.00    +0.000 HD
BRANCH  19  21
ATOM     21  C   UNL     1       9.428  10.103  19.731  0.00  0.00    +0.000 C 
BRANCH  21  22
ATOM     22  C   UNL     1       9.631  11.632  19.892  0.00  0.00    +0.000 C 
ATOM     23  C   UNL     1      11.022  12.031  20.405  0.00  0.00    +0.000 C 
ATOM     24  C   UNL     1      12.134  11.646  19.432  0.00  0.00    +0.000 C 
ATOM     25  C   UNL     1      11.875  12.149  18.009  0.00  0.00    +0.000 C 
ATOM     26  C   UNL     1      10.455  11.904  17.500  0.00  0.00    +0.000 C 
ATOM     27  C   UNL     1       9.397  12.309  18.528  0.00  0.00    +0.000 C 
BRANCH  22  28
ATOM     28  O   UNL     1       8.657  12.127  20.815  0.00  0.00    +0.000 OA
ATOM     29  H   UNL     1       7.836  11.630  20.624  0.00  0.00    +0.000 HD
ENDBRANCH  22  28
ENDBRANCH  21  22
ENDBRANCH  19  21
ENDBRANCH  18  19
ENDBRANCH  10  18
TORSDOF 7
ENDMDL
MODEL 8
REMARK VINA RESULT:      -6.7      2.672      8.070
REMARK  Name = 
REMARK  10 active torsions:
REMARK  status: ('A' for Active; 'I' for Inactive)
REMARK    1  A    between atoms: C_1  and  O_2
REMARK    2  A    between atoms: O_2  and  C_3
REMARK    3  A    between atoms: C_12  and  C_14
REMARK    4  A    between atoms: C_14  and  N_15
REMARK    5  A    between atoms: N_15  and  C_16
REMARK    6  A    between atoms: C_16  and  C_17
REMARK    7  A    between atoms: C_17  and  O_18
REMARK    8  A    between atoms: C_24  and  C_25
REMARK    9  A    between atoms: C_25  and  C_26
REMARK   10  A    between atoms: C_25  and  C_27
REMARK                            x       y       z     vdW  Elec       q    Type
REMARK                         _______ _______ _______ _____ _____    ______ ____
ROOT
ATOM      1  C   UNL     1       1.499  14.614  20.390  0.00  0.00    +0.000 A 
ATOM      2  C   UNL     1       1.680  14.405  19.022  0.00  0.00    +0.000 A 
ATOM      3  C   UNL     1       1.390  13.164  18.458  0.00  0.00    +0.000 A 
ATOM      4  C   UNL     1       0.931  12.115  19.258  0.00  0.00    +0.000 A 
ATOM      5  C   UNL     1       0.844  12.295  20.649  0.00  0.00    +0.000 A 
ATOM      6  C   UNL     1       1.111  13.550  21.208  0.00  0.00    +0.000 A 
ATOM      7  C   UNL     1       0.450  11.108  21.481  0.00  0.00    +0.000 C 
ATOM      8  C   UNL     1       1.106   9.841  20.913  0.00  0.00    +0.000 C 
ATOM      9  N   UNL     1       1.015   9.675  19.447  0.00  0.00    +0.000 N 
ATOM     10  C   UNL     1       1.559   8.577  18.768  0.00  0.00    +0.000 C 
ATOM     11  O   UNL     1       1.609   8.514  17.538  0.00  0.00    +0.000 OA
ATOM     12  C   UNL     1       0.495  10.794  18.644  0.00  0.00    +0.000 C 
ENDROOT
BRANCH  12  13
ATOM     13  C   UNL     1      -1.058  10.706  18.474  0.00  0.00    +0.000 C 
ATOM     14  C   UNL     1      -1.706  12.094  18.384  0.00  0.00    +0.000 C 
ATOM     15  C   UNL     1      -1.459   9.900  17.232  0.00  0.00    +0.000 C 
ENDBRANCH  12  13
BRANCH   1  17
ATOM     16  C   UNL     1       2.904  15.871  21.806  0.00  0.00    +0.000 C 
ATOM     17  O   UNL     1       1.711  15.809  21.027  0.00  0.00    +0.000 OA
ENDBRANCH   1  17
BRANCH  10  18
ATOM     18  C   UNL     1       2.122   7.467  19.655  0.00  0.00    +0.000 C 
BRANCH  18  19
ATOM     19  N   UNL     1       3.157   6.657  18.974  0.00  0.00    +0.000 NA
ATOM     20  H   UNL     1       3.999   7.229  18.878  0.00  0.00    +0.000 HD
BRANCH  19  21
ATOM     21  C   UNL     1       3.401   5.475  19.813  0.00  0.00    +0.000 C 
BRANCH  21  22
ATOM     22  C   UNL     1       3.092   4.099  19.167  0.00  0.00    +0.000 C 
ATOM     23  C   UNL     1       3.552   2.895  20.001  0.00  0.00    +0.000 C 
ATOM     24  C   UNL     1       2.826   2.806  21.342  0.00  0.00    +0.000 C 
ATOM     25  C   UNL     1       1.303   2.861  21.196  0.00  0.00    +0.000 C 
ATOM     26  C   UNL     1       0.798   3.957  20.257  0.00  0.00    +0.000 C 
ATOM     27  C   UNL     1       1.573   3.989  18.938  0.00  0.00    +0.000 C 
BRANCH  22  28
ATOM     28  O   UNL     1       3.746   4.035  17.896  0.00  0.00    +0.000 OA
ATOM     29  H   UNL     1       4.679   3.810  18.090  0.00  0.00    +0.000 HD
ENDBRANCH  22  28
ENDBRANCH  21  22
ENDBRANCH  19  21
ENDBRANCH  18  19
ENDBRANCH  10  18
TORSDOF 7
ENDMDL
MODEL 9
REMARK VINA RESULT:      -6.7      2.564      7.932
REMARK  Name = 
REMARK  10 active torsions:
REMARK  status: ('A' for Active; 'I' for Inactive)
REMARK    1  A    between atoms: C_1  and  O_2
REMARK    2  A    between atoms: O_2  and  C_3
REMARK    3  A    between atoms: C_12  and  C_14
REMARK    4  A    between atoms: C_14  and  N_15
REMARK    5  A    between atoms: N_15  and  C_16
REMARK    6  A    between atoms: C_16  and  C_17
REMARK    7  A    between atoms: C_17  and  O_18
REMARK    8  A    between atoms: C_24  and  C_25
REMARK    9  A    between atoms: C_25  and  C_26
REMARK   10  A    between atoms: C_25  and  C_27
REMARK                            x       y       z     vdW  Elec       q    Type
REMARK                         _______ _______ _______ _____ _____    ______ ____
ROOT
ATOM      1  C   UNL     1       1.667  14.486  20.165  0.00  0.00    +0.000 A 
ATOM      2  C   UNL     1       1.955  14.137  18.845  0.00  0.00    +0.000 A 
ATOM      3  C   UNL     1       1.655  12.859  18.375  0.00  0.00    +0.000 A 
ATOM      4  C   UNL     1       1.076  11.914  19.225  0.00  0.00    +0.000 A 
ATOM      5  C   UNL     1       0.878  12.233  20.579  0.00  0.00    +0.000 A 
ATOM      6  C   UNL     1       1.157  13.524  21.040  0.00  0.00    +0.000 A 
ATOM      7  C   UNL     1       0.354  11.150  21.479  0.00  0.00    +0.000 C 
ATOM      8  C   UNL     1       0.994   9.808  21.096  0.00  0.00    +0.000 C 
ATOM      9  N   UNL     1       1.022   9.503  19.650  0.00  0.00    +0.000 N 
ATOM     10  C   UNL     1       1.568   8.322  19.129  0.00  0.00    +0.000 C 
ATOM     11  O   UNL     1       1.722   8.137  17.921  0.00  0.00    +0.000 OA
ATOM     12  C   UNL     1       0.631  10.558  18.700  0.00  0.00    +0.000 C 
ENDROOT
BRANCH  12  13
ATOM     13  C   UNL     1      -0.904  10.517  18.398  0.00  0.00    +0.000 C 
ATOM     14  C   UNL     1      -1.501  11.925  18.262  0.00  0.00    +0.000 C 
ATOM     15  C   UNL     1      -1.222   9.728  17.122  0.00  0.00    +0.000 C 
ENDBRANCH  12  13
BRANCH   1  17
ATOM     16  C   UNL     1       1.556  16.819  19.845  0.00  0.00    +0.000 C 
ATOM     17  O   UNL     1       1.882  15.728  20.703  0.00  0.00    +0.000 OA
ENDBRANCH   1  17
BRANCH  10  18
ATOM     18  C   UNL     1       1.996   7.282  20.165  0.00  0.00    +0.000 C 
BRANCH  18  19
ATOM     19  N   UNL     1       3.309   6.671  19.856  0.00  0.00    +0.000 NA
ATOM     20  H   UNL     1       3.933   6.835  20.650  0.00  0.00    +0.000 HD
BRANCH  19  21
ATOM     21  C   UNL     1       3.076   5.236  19.641  0.00  0.00    +0.000 C 
BRANCH  21  22
ATOM     22  C   UNL     1       3.132   4.744  18.171  0.00  0.00    +0.000 C 
ATOM     23  C   UNL     1       3.993   3.491  17.959  0.00  0.00    +0.000 C 
ATOM     24  C   UNL     1       3.442   2.274  18.699  0.00  0.00    +0.000 C 
ATOM     25  C   UNL     1       1.963   2.017  18.397  0.00  0.00    +0.000 C 
ATOM     26  C   UNL     1       1.081   3.265  18.454  0.00  0.00    +0.000 C 
ATOM     27  C   UNL     1       1.698   4.442  17.696  0.00  0.00    +0.000 C 
BRANCH  22  28
ATOM     28  O   UNL     1       3.665   5.793  17.359  0.00  0.00    +0.000 OA
ATOM     29  H   UNL     1       2.899   6.346  17.104  0.00  0.00    +0.000 HD
ENDBRANCH  22  28
ENDBRANCH  21  22
ENDBRANCH  19  21
ENDBRANCH  18  19
ENDBRANCH  10  18
TORSDOF 7
ENDMDL
