MODEL 1
REMARK VINA RESULT:      -7.7      0.000      0.000
REMARK  Name = 
REMARK  6 active torsions:
REMARK  status: ('A' for Active; 'I' for Inactive)
REMARK    1  A    between atoms: C_1  and  O_2
REMARK    2  A    between atoms: O_2  and  C_3
REMARK    3  A    between atoms: N_6  and  C_7
REMARK    4  A    between atoms: C_7  and  C_8
REMARK    5  A    between atoms: C_14  and  C_15
REMARK    6  A    between atoms: C_15  and  C_16
REMARK                            x       y       z     vdW  Elec       q    Type
REMARK                         _______ _______ _______ _____ _____    ______ ____
ROOT
ATOM      1  C   UNL     1       5.176   6.100  16.661  0.00  0.00    +0.000 C 
ATOM      2  C   UNL     1       5.782   4.693  16.698  0.00  0.00    +0.000 C 
ATOM      3  C   UNL     1       4.711   3.623  16.816  0.00  0.00    +0.000 C 
ATOM      4  N   UNL     1       3.902   3.855  18.023  0.00  0.00    +0.000 NA
ATOM      5  C   UNL     1       3.173   5.136  17.907  0.00  0.00    +0.000 C 
ATOM      6  C   UNL     1       4.096   6.367  17.754  0.00  0.00    +0.000 C 
ENDROOT
BRANCH   1   8
ATOM      7  C   UNL     1       7.259   7.026  17.493  0.00  0.00    +0.000 C 
ATOM      8  O   UNL     1       6.178   7.122  16.573  0.00  0.00    +0.000 OA
ENDBRANCH   1   8
BRANCH   4   9
ATOM      9  C   UNL     1       2.939   2.743  18.237  0.00  0.00    +0.000 C 
BRANCH   9  10
ATOM     10  C   UNL     1       2.534   2.684  19.688  0.00  0.00    +0.000 A 
ATOM     11  C   UNL     1       1.235   2.845  20.262  0.00  0.00    +0.000 A 
ATOM     12  C   UNL     1       1.395   2.794  21.628  0.00  0.00    +0.000 A 
ATOM     13  O   UNL     1       2.695   2.568  21.941  0.00  0.00    +0.000 OA
ATOM     14  C   UNL     1       3.375   2.492  20.769  0.00  0.00    +0.000 A 
ENDBRANCH   9  10
ENDBRANCH   4   9
BRANCH   6  15
ATOM     15  C   UNL     1       3.235   7.639  17.437  0.00  0.00    +0.000 C 
BRANCH  15  16
ATOM     16  C   UNL     1       2.246   8.147  18.478  0.00  0.00    +0.000 A 
ATOM     17  C   UNL     1       2.204   7.558  19.749  0.00  0.00    +0.000 A 
ATOM     18  C   UNL     1       1.410   8.105  20.764  0.00  0.00    +0.000 A 
ATOM     19  C   UNL     1       0.648   9.249  20.531  0.00  0.00    +0.000 A 
ATOM     20  C   UNL     1       0.660   9.832  19.269  0.00  0.00    +0.000 A 
ATOM     21  C   UNL     1       1.456   9.288  18.250  0.00  0.00    +0.000 A 
ENDBRANCH  15  16
ENDBRANCH   6  15
TORSDOF 5
ENDMDL
MODEL 2
REMARK VINA RESULT:      -7.7      0.095      1.054
REMARK  Name = 
REMARK  6 active torsions:
REMARK  status: ('A' for Active; 'I' for Inactive)
REMARK    1  A    between atoms: C_1  and  O_2
REMARK    2  A    between atoms: O_2  and  C_3
REMARK    3  A    between atoms: N_6  and  C_7
REMARK    4  A    between atoms: C_7  and  C_8
REMARK    5  A    between atoms: C_14  and  C_15
REMARK    6  A    between atoms: C_15  and  C_16
REMARK                            x       y       z     vdW  Elec       q    Type
REMARK                         _______ _______ _______ _____ _____    ______ ____
ROOT
ATOM      1  C   UNL     1       5.085   6.132  16.679  0.00  0.00    +0.000 C 
ATOM      2  C   UNL     1       5.744   4.749  16.726  0.00  0.00    +0.000 C 
ATOM      3  C   UNL     1       4.714   3.641  16.850  0.00  0.00    +0.000 C 
ATOM      4  N   UNL     1       3.895   3.851  18.055  0.00  0.00    +0.000 NA
ATOM      5  C   UNL     1       3.118   5.102  17.929  0.00  0.00    +0.000 C 
ATOM      6  C   UNL     1       3.995   6.366  17.768  0.00  0.00    +0.000 C 
ENDROOT
BRANCH   1   8
ATOM      7  C   UNL     1       7.182   7.090  17.439  0.00  0.00    +0.000 C 
ATOM      8  O   UNL     1       6.049   7.191  16.584  0.00  0.00    +0.000 OA
ENDBRANCH   1   8
BRANCH   4   9
ATOM      9  C   UNL     1       2.974   2.704  18.275  0.00  0.00    +0.000 C 
BRANCH   9  10
ATOM     10  C   UNL     1       2.539   2.663  19.718  0.00  0.00    +0.000 A 
ATOM     11  C   UNL     1       1.226   2.813  20.262  0.00  0.00    +0.000 A 
ATOM     12  C   UNL     1       1.358   2.787  21.631  0.00  0.00    +0.000 A 
ATOM     13  O   UNL     1       2.654   2.587  21.976  0.00  0.00    +0.000 OA
ATOM     14  C   UNL     1       3.360   2.502  20.819  0.00  0.00    +0.000 A 
ENDBRANCH   9  10
ENDBRANCH   4   9
BRANCH   6  15
ATOM     15  C   UNL     1       3.087   7.603  17.442  0.00  0.00    +0.000 C 
BRANCH  15  16
ATOM     16  C   UNL     1       2.271   8.243  18.558  0.00  0.00    +0.000 A 
ATOM     17  C   UNL     1       1.494   9.379  18.295  0.00  0.00    +0.000 A 
ATOM     18  C   UNL     1       0.626   9.892  19.265  0.00  0.00    +0.000 A 
ATOM     19  C   UNL     1       0.516   9.280  20.513  0.00  0.00    +0.000 A 
ATOM     20  C   UNL     1       1.296   8.166  20.799  0.00  0.00    +0.000 A 
ATOM     21  C   UNL     1       2.166   7.648  19.828  0.00  0.00    +0.000 A 
ENDBRANCH  15  16
ENDBRANCH   6  15
TORSDOF 5
ENDMDL
MODEL 3
REMARK VINA RESULT:      -7.4      2.285      5.467
REMARK  Name = 
REMARK  6 active torsions:
REMARK  status: ('A' for Active; 'I' for Inactive)
REMARK    1  A    between atoms: C_1  and  O_2
REMARK    2  A    between atoms: O_2  and  C_3
REMARK    3  A    between atoms: N_6  and  C_7
REMARK    4  A    between atoms: C_7  and  C_8
REMARK    5  A    between atoms: C_14  and  C_15
REMARK    6  A    between atoms: C_15  and  C_16
REMARK                            x       y       z     vdW  Elec       q    Type
REMARK                         _______ _______ _______ _____ _____    ______ ____
ROOT
ATOM      1  C   UNL     1       4.929   5.982  17.396  0.00  0.00    +0.000 C 
ATOM      2  C   UNL     1       3.727   6.470  18.210  0.00  0.00    +0.000 C 
ATOM      3  C   UNL     1       2.937   5.312  18.795  0.00  0.00    +0.000 C 
ATOM      4  N   UNL     1       2.486   4.419  17.716  0.00  0.00    +0.000 NA
ATOM      5  C   UNL     1       3.651   3.805  17.043  0.00  0.00    +0.000 C 
ATOM      6  C   UNL     1       4.606   4.832  16.393  0.00  0.00    +0.000 C 
ENDROOT
BRANCH   1   8
ATOM      7  C   UNL     1       6.977   7.283  17.341  0.00  0.00    +0.000 C 
ATOM      8  O   UNL     1       5.672   7.065  16.818  0.00  0.00    +0.000 OA
ENDBRANCH   1   8
BRANCH   4   9
ATOM      9  C   UNL     1       1.592   3.355  18.248  0.00  0.00    +0.000 C 
BRANCH   9  10
ATOM     10  C   UNL     1       1.933   3.069  19.688  0.00  0.00    +0.000 A 
ATOM     11  C   UNL     1       1.164   3.346  20.861  0.00  0.00    +0.000 A 
ATOM     12  C   UNL     1       1.938   2.980  21.938  0.00  0.00    +0.000 A 
ATOM     13  O   UNL     1       3.115   2.455  21.515  0.00  0.00    +0.000 OA
ATOM     14  C   UNL     1       3.102   2.501  20.159  0.00  0.00    +0.000 A 
ENDBRANCH   9  10
ENDBRANCH   4   9
BRANCH   6  15
ATOM     15  C   UNL     1       5.902   4.105  15.888  0.00  0.00    +0.000 C 
BRANCH  15  16
ATOM     16  C   UNL     1       6.322   4.258  14.432  0.00  0.00    +0.000 A 
ATOM     17  C   UNL     1       7.360   5.134  14.090  0.00  0.00    +0.000 A 
ATOM     18  C   UNL     1       7.858   5.178  12.783  0.00  0.00    +0.000 A 
ATOM     19  C   UNL     1       7.332   4.347  11.795  0.00  0.00    +0.000 A 
ATOM     20  C   UNL     1       6.286   3.488  12.111  0.00  0.00    +0.000 A 
ATOM     21  C   UNL     1       5.785   3.440  13.421  0.00  0.00    +0.000 A 
ENDBRANCH  15  16
ENDBRANCH   6  15
TORSDOF 5
ENDMDL
MODEL 4
REMARK VINA RESULT:      -7.3      2.291      5.492
REMARK  Name = 
REMARK  6 active torsions:
REMARK  status: ('A' for Active; 'I' for Inactive)
REMARK    1  A    between atoms: C_1  and  O_2
REMARK    2  A    between atoms: O_2  and  C_3
REMARK    3  A    between atoms: N_6  and  C_7
REMARK    4  A    between atoms: C_7  and  C_8
REMARK    5  A    between atoms: C_14  and  C_15
REMARK    6  A    between atoms: C_15  and  C_16
REMARK                            x       y       z     vdW  Elec       q    Type
REMARK                         _______ _______ _______ _____ _____    ______ ____
ROOT
ATOM      1  C   UNL     1       5.095   6.012  17.304  0.00  0.00    +0.000 C 
ATOM      2  C   UNL     1       3.941   6.679  18.061  0.00  0.00    +0.000 C 
ATOM      3  C   UNL     1       3.024   5.652  18.702  0.00  0.00    +0.000 C 
ATOM      4  N   UNL     1       2.494   4.742  17.674  0.00  0.00    +0.000 NA
ATOM      5  C   UNL     1       3.596   3.966  17.067  0.00  0.00    +0.000 C 
ATOM      6  C   UNL     1       4.664   4.840  16.371  0.00  0.00    +0.000 C 
ENDROOT
BRANCH   1   8
ATOM      7  C   UNL     1       7.160   7.286  17.365  0.00  0.00    +0.000 C 
ATOM      8  O   UNL     1       5.957   6.970  16.673  0.00  0.00    +0.000 OA
ENDBRANCH   1   8
BRANCH   4   9
ATOM      9  C   UNL     1       1.484   3.818  18.255  0.00  0.00    +0.000 C 
BRANCH   9  10
ATOM     10  C   UNL     1       1.874   3.449  19.663  0.00  0.00    +0.000 A 
ATOM     11  C   UNL     1       2.917   2.576  20.104  0.00  0.00    +0.000 A 
ATOM     12  C   UNL     1       2.814   2.495  21.474  0.00  0.00    +0.000 A 
ATOM     13  O   UNL     1       1.809   3.289  21.919  0.00  0.00    +0.000 OA
ATOM     14  C   UNL     1       1.252   3.870  20.826  0.00  0.00    +0.000 A 
ENDBRANCH   9  10
ENDBRANCH   4   9
BRANCH   6  15
ATOM     15  C   UNL     1       5.881   3.947  15.941  0.00  0.00    +0.000 C 
BRANCH  15  16
ATOM     16  C   UNL     1       6.434   4.074  14.528  0.00  0.00    +0.000 A 
ATOM     17  C   UNL     1       5.858   3.341  13.481  0.00  0.00    +0.000 A 
ATOM     18  C   UNL     1       6.254   3.555  12.156  0.00  0.00    +0.000 A 
ATOM     19  C   UNL     1       7.228   4.504  11.851  0.00  0.00    +0.000 A 
ATOM     20  C   UNL     1       7.826   5.224  12.878  0.00  0.00    +0.000 A 
ATOM     21  C   UNL     1       7.431   5.014  14.208  0.00  0.00    +0.000 A 
ENDBRANCH  15  16
ENDBRANCH   6  15
TORSDOF 5
ENDMDL
MODEL 5
REMARK VINA RESULT:      -7.2      0.888      1.109
REMARK  Name = 
REMARK  6 active torsions:
REMARK  status: ('A' for Active; 'I' for Inactive)
REMARK    1  A    between atoms: C_1  and  O_2
REMARK    2  A    between atoms: O_2  and  C_3
REMARK    3  A    between atoms: N_6  and  C_7
REMARK    4  A    between atoms: C_7  and  C_8
REMARK    5  A    between atoms: C_14  and  C_15
REMARK    6  A    between atoms: C_15  and  C_16
REMARK                            x       y       z     vdW  Elec       q    Type
REMARK                         _______ _______ _______ _____ _____    ______ ____
ROOT
ATOM      1  C   UNL     1       5.535   6.424  16.803  0.00  0.00    +0.000 C 
ATOM      2  C   UNL     1       6.318   5.108  16.860  0.00  0.00    +0.000 C 
ATOM      3  C   UNL     1       5.404   3.904  16.716  0.00  0.00    +0.000 C 
ATOM      4  N   UNL     1       4.378   3.926  17.771  0.00  0.00    +0.000 NA
ATOM      5  C   UNL     1       3.506   5.109  17.607  0.00  0.00    +0.000 C 
ATOM      6  C   UNL     1       4.259   6.456  17.699  0.00  0.00    +0.000 C 
ENDROOT
BRANCH   1   8
ATOM      7  C   UNL     1       7.644   7.341  17.579  0.00  0.00    +0.000 C 
ATOM      8  O   UNL     1       6.383   7.570  16.960  0.00  0.00    +0.000 OA
ENDBRANCH   1   8
BRANCH   4   9
ATOM      9  C   UNL     1       3.559   2.686  17.739  0.00  0.00    +0.000 C 
BRANCH   9  10
ATOM     10  C   UNL     1       2.507   2.735  18.818  0.00  0.00    +0.000 A 
ATOM     11  C   UNL     1       2.681   2.817  20.234  0.00  0.00    +0.000 A 
ATOM     12  C   UNL     1       1.426   2.743  20.794  0.00  0.00    +0.000 A 
ATOM     13  O   UNL     1       0.482   2.664  19.823  0.00  0.00    +0.000 OA
ATOM     14  C   UNL     1       1.138   2.670  18.635  0.00  0.00    +0.000 A 
ENDBRANCH   9  10
ENDBRANCH   4   9
BRANCH   6  15
ATOM     15  C   UNL     1       3.293   7.630  17.312  0.00  0.00    +0.000 C 
BRANCH  15  16
ATOM     16  C   UNL     1       2.303   8.150  18.346  0.00  0.00    +0.000 A 
ATOM     17  C   UNL     1       2.251   7.570  19.621  0.00  0.00    +0.000 A 
ATOM     18  C   UNL     1       1.456   8.127  20.629  0.00  0.00    +0.000 A 
ATOM     19  C   UNL     1       0.701   9.273  20.385  0.00  0.00    +0.000 A 
ATOM     20  C   UNL     1       0.722   9.849  19.120  0.00  0.00    +0.000 A 
ATOM     21  C   UNL     1       1.519   9.294  18.107  0.00  0.00    +0.000 A 
ENDBRANCH  15  16
ENDBRANCH   6  15
TORSDOF 5
ENDMDL
MODEL 6
REMARK VINA RESULT:      -7.2      2.732      5.609
REMARK  Name = 
REMARK  6 active torsions:
REMARK  status: ('A' for Active; 'I' for Inactive)
REMARK    1  A    between atoms: C_1  and  O_2
REMARK    2  A    between atoms: O_2  and  C_3
REMARK    3  A    between atoms: N_6  and  C_7
REMARK    4  A    between atoms: C_7  and  C_8
REMARK    5  A    between atoms: C_14  and  C_15
REMARK    6  A    between atoms: C_15  and  C_16
REMARK                            x       y       z     vdW  Elec       q    Type
REMARK                         _______ _______ _______ _____ _____    ______ ____
ROOT
ATOM      1  C   UNL     1       6.104   4.817  18.064  0.00  0.00    +0.000 C 
ATOM      2  C   UNL     1       5.338   5.541  19.176  0.00  0.00    +0.000 C 
ATOM      3  C   UNL     1       3.911   5.035  19.296  0.00  0.00    +0.000 C 
ATOM      4  N   UNL     1       3.212   5.201  18.011  0.00  0.00    +0.000 NA
ATOM      5  C   UNL     1       3.846   4.359  16.975  0.00  0.00    +0.000 C 
ATOM      6  C   UNL     1       5.331   4.703  16.715  0.00  0.00    +0.000 C 
ENDROOT
BRANCH   1   8
ATOM      7  C   UNL     1       8.003   5.954  19.059  0.00  0.00    +0.000 C 
ATOM      8  O   UNL     1       7.448   5.300  17.924  0.00  0.00    +0.000 OA
ENDBRANCH   1   8
BRANCH   4   9
ATOM      9  C   UNL     1       1.774   4.846  18.141  0.00  0.00    +0.000 C 
BRANCH   9  10
ATOM     10  C   UNL     1       1.586   3.862  19.268  0.00  0.00    +0.000 A 
ATOM     11  C   UNL     1       1.209   4.116  20.623  0.00  0.00    +0.000 A 
ATOM     12  C   UNL     1       1.260   2.909  21.282  0.00  0.00    +0.000 A 
ATOM     13  O   UNL     1       1.601   1.917  20.422  0.00  0.00    +0.000 OA
ATOM     14  C   UNL     1       1.785   2.495  19.208  0.00  0.00    +0.000 A 
ENDBRANCH   9  10
ENDBRANCH   4   9
BRANCH   6  15
ATOM     15  C   UNL     1       5.963   3.633  15.757  0.00  0.00    +0.000 C 
BRANCH  15  16
ATOM     16  C   UNL     1       6.372   4.044  14.349  0.00  0.00    +0.000 A 
ATOM     17  C   UNL     1       7.356   5.024  14.163  0.00  0.00    +0.000 A 
ATOM     18  C   UNL     1       7.850   5.308  12.885  0.00  0.00    +0.000 A 
ATOM     19  C   UNL     1       7.374   4.618  11.771  0.00  0.00    +0.000 A 
ATOM     20  C   UNL     1       6.382   3.659  11.933  0.00  0.00    +0.000 A 
ATOM     21  C   UNL     1       5.885   3.370  13.214  0.00  0.00    +0.000 A 
ENDBRANCH  15  16
ENDBRANCH   6  15
TORSDOF 5
ENDMDL
MODEL 7
REMARK VINA RESULT:      -7.1      1.473      4.911
REMARK  Name = 
REMARK  6 active torsions:
REMARK  status: ('A' for Active; 'I' for Inactive)
REMARK    1  A    between atoms: C_1  and  O_2
REMARK    2  A    between atoms: O_2  and  C_3
REMARK    3  A    between atoms: N_6  and  C_7
REMARK    4  A    between atoms: C_7  and  C_8
REMARK    5  A    between atoms: C_14  and  C_15
REMARK    6  A    between atoms: C_15  and  C_16
REMARK                            x       y       z     vdW  Elec       q    Type
REMARK                         _______ _______ _______ _____ _____    ______ ____
ROOT
ATOM      1  C   UNL     1       2.268   3.731  20.159  0.00  0.00    +0.000 C 
ATOM      2  C   UNL     1       3.105   2.590  19.571  0.00  0.00    +0.000 C 
ATOM      3  C   UNL     1       4.575   2.959  19.485  0.00  0.00    +0.000 C 
ATOM      4  N   UNL     1       4.740   4.176  18.673  0.00  0.00    +0.000 NA
ATOM      5  C   UNL     1       4.080   5.321  19.335  0.00  0.00    +0.000 C 
ATOM      6  C   UNL     1       2.560   5.132  19.540  0.00  0.00    +0.000 C 
ENDROOT
BRANCH   1   8
ATOM      7  C   UNL     1       0.367   2.584  19.177  0.00  0.00    +0.000 C 
ATOM      8  O   UNL     1       0.872   3.404  20.225  0.00  0.00    +0.000 OA
ENDBRANCH   1   8
BRANCH   4   9
ATOM      9  C   UNL     1       6.180   4.478  18.457  0.00  0.00    +0.000 C 
BRANCH   9  10
ATOM     10  C   UNL     1       6.454   4.652  16.985  0.00  0.00    +0.000 A 
ATOM     11  C   UNL     1       5.835   3.997  15.876  0.00  0.00    +0.000 A 
ATOM     12  C   UNL     1       6.489   4.428  14.744  0.00  0.00    +0.000 A 
ATOM     13  O   UNL     1       7.442   5.336  15.069  0.00  0.00    +0.000 OA
ATOM     14  C   UNL     1       7.410   5.476  16.419  0.00  0.00    +0.000 A 
ENDBRANCH   9  10
ENDBRANCH   4   9
BRANCH   6  15
ATOM     15  C   UNL     1       1.994   6.299  20.423  0.00  0.00    +0.000 C 
BRANCH  15  16
ATOM     16  C   UNL     1       1.812   7.679  19.805  0.00  0.00    +0.000 A 
ATOM     17  C   UNL     1       2.226   7.917  18.487  0.00  0.00    +0.000 A 
ATOM     18  C   UNL     1       1.933   9.130  17.853  0.00  0.00    +0.000 A 
ATOM     19  C   UNL     1       1.221  10.125  18.521  0.00  0.00    +0.000 A 
ATOM     20  C   UNL     1       0.822   9.915  19.835  0.00  0.00    +0.000 A 
ATOM     21  C   UNL     1       1.112   8.699  20.473  0.00  0.00    +0.000 A 
ENDBRANCH  15  16
ENDBRANCH   6  15
TORSDOF 5
ENDMDL
MODEL 8
REMARK VINA RESULT:      -7.1      1.669      4.566
REMARK  Name = 
REMARK  6 active torsions:
REMARK  status: ('A' for Active; 'I' for Inactive)
REMARK    1  A    between atoms: C_1  and  O_2
REMARK    2  A    between atoms: O_2  and  C_3
REMARK    3  A    between atoms: N_6  and  C_7
REMARK    4  A    between atoms: C_7  and  C_8
REMARK    5  A    between atoms: C_14  and  C_15
REMARK    6  A    between atoms: C_15  and  C_16
REMARK                            x       y       z     vdW  Elec       q    Type
REMARK                         _______ _______ _______ _____ _____    ______ ____
ROOT
ATOM      1  C   UNL     1       2.627   4.186  18.486  0.00  0.00    +0.000 C 
ATOM      2  C   UNL     1       3.178   3.290  17.372  0.00  0.00    +0.000 C 
ATOM      3  C   UNL     1       4.587   3.692  16.974  0.00  0.00    +0.000 C 
ATOM      4  N   UNL     1       4.604   5.099  16.543  0.00  0.00    +0.000 NA
ATOM      5  C   UNL     1       4.244   5.981  17.674  0.00  0.00    +0.000 C 
ATOM      6  C   UNL     1       2.833   5.713  18.248  0.00  0.00    +0.000 C 
ENDROOT
BRANCH   1   8
ATOM      7  C   UNL     1       0.925   2.467  18.682  0.00  0.00    +0.000 C 
ATOM      8  O   UNL     1       1.287   3.832  18.857  0.00  0.00    +0.000 OA
ENDBRANCH   1   8
BRANCH   4   9
ATOM      9  C   UNL     1       5.942   5.476  16.015  0.00  0.00    +0.000 C 
BRANCH   9  10
ATOM     10  C   UNL     1       6.858   5.848  17.152  0.00  0.00    +0.000 A 
ATOM     11  C   UNL     1       7.376   5.017  18.194  0.00  0.00    +0.000 A 
ATOM     12  C   UNL     1       8.091   5.837  19.037  0.00  0.00    +0.000 A 
ATOM     13  O   UNL     1       8.090   7.110  18.569  0.00  0.00    +0.000 OA
ATOM     14  C   UNL     1       7.355   7.109  17.428  0.00  0.00    +0.000 A 
ENDBRANCH   9  10
ENDBRANCH   4   9
BRANCH   6  15
ATOM     15  C   UNL     1       2.627   6.550  19.559  0.00  0.00    +0.000 C 
BRANCH  15  16
ATOM     16  C   UNL     1       1.944   7.909  19.475  0.00  0.00    +0.000 A 
ATOM     17  C   UNL     1       1.849   8.570  18.243  0.00  0.00    +0.000 A 
ATOM     18  C   UNL     1       1.099   9.745  18.118  0.00  0.00    +0.000 A 
ATOM     19  C   UNL     1       0.429  10.279  19.217  0.00  0.00    +0.000 A 
ATOM     20  C   UNL     1       0.530   9.649  20.452  0.00  0.00    +0.000 A 
ATOM     21  C   UNL     1       1.280   8.470  20.580  0.00  0.00    +0.000 A 
ENDBRANCH  15  16
ENDBRANCH   6  15
TORSDOF 5
ENDMDL
MODEL 9
REMARK VINA RESULT:      -7.0      1.515      4.470
REMARK  Name = 
REMARK  6 active torsions:
REMARK  status: ('A' for Active; 'I' for Inactive)
REMARK    1  A    between atoms: C_1  and  O_2
REMARK    2  A    between atoms: O_2  and  C_3
REMARK    3  A    between atoms: N_6  and  C_7
REMARK    4  A    between atoms: C_7  and  C_8
REMARK    5  A    between atoms: C_14  and  C_15
REMARK    6  A    between atoms: C_15  and  C_16
REMARK                            x       y       z     vdW  Elec       q    Type
REMARK                         _______ _______ _______ _____ _____    ______ ____
ROOT
ATOM      1  C   UNL     1       2.602   4.211  18.440  0.00  0.00    +0.000 C 
ATOM      2  C   UNL     1       3.154   3.317  17.324  0.00  0.00    +0.000 C 
ATOM      3  C   UNL     1       4.578   3.694  16.955  0.00  0.00    +0.000 C 
ATOM      4  N   UNL     1       4.631   5.106  16.543  0.00  0.00    +0.000 NA
ATOM      5  C   UNL     1       4.269   5.981  17.678  0.00  0.00    +0.000 C 
ATOM      6  C   UNL     1       2.844   5.736  18.224  0.00  0.00    +0.000 C 
ENDROOT
BRANCH   1   8
ATOM      7  C   UNL     1       1.077   2.984  19.875  0.00  0.00    +0.000 C 
ATOM      8  O   UNL     1       1.249   3.880  18.783  0.00  0.00    +0.000 OA
ENDBRANCH   1   8
BRANCH   4   9
ATOM      9  C   UNL     1       5.985   5.461  16.042  0.00  0.00    +0.000 C 
BRANCH   9  10
ATOM     10  C   UNL     1       6.880   5.834  17.197  0.00  0.00    +0.000 A 
ATOM     11  C   UNL     1       7.340   5.014  18.273  0.00  0.00    +0.000 A 
ATOM     12  C   UNL     1       8.056   5.832  19.117  0.00  0.00    +0.000 A 
ATOM     13  O   UNL     1       8.108   7.093  18.619  0.00  0.00    +0.000 OA
ATOM     14  C   UNL     1       7.407   7.086  17.457  0.00  0.00    +0.000 A 
ENDBRANCH   9  10
ENDBRANCH   4   9
BRANCH   6  15
ATOM     15  C   UNL     1       2.632   6.561  19.542  0.00  0.00    +0.000 C 
BRANCH  15  16
ATOM     16  C   UNL     1       1.889   7.889  19.478  0.00  0.00    +0.000 A 
ATOM     17  C   UNL     1       1.318   8.430  20.638  0.00  0.00    +0.000 A 
ATOM     18  C   UNL     1       0.763   9.714  20.630  0.00  0.00    +0.000 A 
ATOM     19  C   UNL     1       0.768  10.482  19.467  0.00  0.00    +0.000 A 
ATOM     20  C   UNL     1       1.309   9.953  18.301  0.00  0.00    +0.000 A 
ATOM     21  C   UNL     1       1.869   8.666  18.306  0.00  0.00    +0.000 A 
ENDBRANCH  15  16
ENDBRANCH   6  15
TORSDOF 5
ENDMDL
