MODEL 1
REMARK VINA RESULT:      -7.4      0.000      0.000
REMARK  Name = 
REMARK  12 active torsions:
REMARK  status: ('A' for Active; 'I' for Inactive)
REMARK    1  A    between atoms: C_4  and  C_5
REMARK    2  A    between atoms: C_5  and  N_6
REMARK    3  A    between atoms: N_6  and  C_7
REMARK    4  A    between atoms: C_7  and  C_8
REMARK    5  A    between atoms: C_8  and  C_9
REMARK    6  A    between atoms: C_9  and  C_10
REMARK    7  A    between atoms: C_10  and  C_11
REMARK    8  A    between atoms: C_11  and  C_12
REMARK    9  A    between atoms: C_12  and  N_13
REMARK   10  A    between atoms: N_13  and  C_14
REMARK   11  A    between atoms: N_25  and  C_26
REMARK   12  A    between atoms: C_30  and  O_31
REMARK                            x       y       z     vdW  Elec       q    Type
REMARK                         _______ _______ _______ _____ _____    ______ ____
ROOT
ATOM      1  C   UNL     1       1.346   3.125  18.071  0.00  0.00    +0.000 C 
ENDROOT
BRANCH   1   2
ATOM      2  C   UNL     1       2.476   3.246  17.035  0.00  0.00    +0.000 C 
BRANCH   2   3
ATOM      3  N   UNL     1       3.832   2.900  17.478  0.00  0.00    +0.000 NA
ATOM      4  H   UNL     1       3.744   2.494  18.413  0.00  0.00    +0.000 HD
BRANCH   3   5
ATOM      5  C   UNL     1       4.744   4.051  17.589  0.00  0.00    +0.000 C 
BRANCH   5   9
ATOM      6  O   UNL     1       5.933   3.363  12.920  0.00  0.00    +0.000 OA
ATOM      7  C   UNL     1       6.160   3.965  13.965  0.00  0.00    +0.000 A 
ATOM      8  C   UNL     1       5.345   3.705  15.173  0.00  0.00    +0.000 A 
ATOM      9  C   UNL     1       5.604   4.310  16.344  0.00  0.00    +0.000 A 
ATOM     10  N   UNL     1       6.687   5.208  16.432  0.00  0.00    +0.000 N 
ATOM     11  C   UNL     1       7.402   5.554  15.292  0.00  0.00    +0.000 A 
ATOM     12  C   UNL     1       7.227   5.010  14.085  0.00  0.00    +0.000 A 
BRANCH  10  13
ATOM     13  C   UNL     1       6.920   6.053  17.615  0.00  0.00    +0.000 C 
ATOM     14  C   UNL     1       7.714   7.332  17.596  0.00  0.00    +0.000 C 
ATOM     15  C   UNL     1       6.229   7.395  17.760  0.00  0.00    +0.000 C 
ENDBRANCH  10  13
BRANCH  12  16
ATOM     16  O   UNL     1       7.925   5.377  12.953  0.00  0.00    +0.000 OA
ATOM     17  H   UNL     1       8.484   6.145  13.156  0.00  0.00    +0.000 HD
ENDBRANCH  12  16
ENDBRANCH   5   9
ENDBRANCH   3   5
ENDBRANCH   2   3
ENDBRANCH   1   2
BRANCH   1  18
ATOM     18  C   UNL     1       1.613   2.237  19.294  0.00  0.00    +0.000 C 
BRANCH  18  19
ATOM     19  C   UNL     1       1.193   2.791  20.661  0.00  0.00    +0.000 C 
BRANCH  19  20
ATOM     20  C   UNL     1       2.192   3.713  21.387  0.00  0.00    +0.000 C 
BRANCH  20  21
ATOM     21  C   UNL     1       2.882   4.800  20.525  0.00  0.00    +0.000 C 
BRANCH  21  22
ATOM     22  N   UNL     1       2.304   6.107  20.855  0.00  0.00    +0.000 N 
ATOM     23  H   UNL     1       2.932   6.585  21.505  0.00  0.00    +0.000 HD
BRANCH  22  24
ATOM     24  C   UNL     1       1.958   7.067  19.879  0.00  0.00    +0.000 A 
ATOM     25  C   UNL     1       2.421   6.954  18.572  0.00  0.00    +0.000 A 
ATOM     26  C   UNL     1       2.631   8.144  17.906  0.00  0.00    +0.000 A 
ATOM     27  N   UNL     1       1.865   9.231  18.102  0.00  0.00    +0.000 NA
ATOM     28  C   UNL     1       1.254   9.313  19.277  0.00  0.00    +0.000 A 
ATOM     29  C   UNL     1       0.580  10.481  19.559  0.00  0.00    +0.000 A 
ATOM     30  C   UNL     1       0.179  10.762  20.856  0.00  0.00    +0.000 A 
ATOM     31 CL   UNL     1      -0.590  12.257  21.203  0.00  0.00    +0.000 Cl
ATOM     32  C   UNL     1       0.432   9.850  21.879  0.00  0.00    +0.000 A 
ATOM     33  C   UNL     1       1.015   8.617  21.587  0.00  0.00    +0.000 A 
ATOM     34  C   UNL     1       1.421   8.321  20.277  0.00  0.00    +0.000 A 
ENDBRANCH  22  24
ENDBRANCH  21  22
ENDBRANCH  20  21
ENDBRANCH  19  20
ENDBRANCH  18  19
ENDBRANCH   1  18
TORSDOF 12
ENDMDL
MODEL 2
REMARK VINA RESULT:      -7.4      5.243      7.970
REMARK  Name = 
REMARK  12 active torsions:
REMARK  status: ('A' for Active; 'I' for Inactive)
REMARK    1  A    between atoms: C_4  and  C_5
REMARK    2  A    between atoms: C_5  and  N_6
REMARK    3  A    between atoms: N_6  and  C_7
REMARK    4  A    between atoms: C_7  and  C_8
REMARK    5  A    between atoms: C_8  and  C_9
REMARK    6  A    between atoms: C_9  and  C_10
REMARK    7  A    between atoms: C_10  and  C_11
REMARK    8  A    between atoms: C_11  and  C_12
REMARK    9  A    between atoms: C_12  and  N_13
REMARK   10  A    between atoms: N_13  and  C_14
REMARK   11  A    between atoms: N_25  and  C_26
REMARK   12  A    between atoms: C_30  and  O_31
REMARK                            x       y       z     vdW  Elec       q    Type
REMARK                         _______ _______ _______ _____ _____    ______ ____
ROOT
ATOM      1  C   UNL     1       7.338   4.749  17.359  0.00  0.00    +0.000 C 
ENDROOT
BRANCH   1   2
ATOM      2  C   UNL     1       6.588   4.616  18.696  0.00  0.00    +0.000 C 
BRANCH   2   3
ATOM      3  N   UNL     1       5.519   3.614  18.768  0.00  0.00    +0.000 NA
ATOM      4  H   UNL     1       5.896   2.749  18.376  0.00  0.00    +0.000 HD
BRANCH   3   5
ATOM      5  C   UNL     1       4.316   3.956  17.987  0.00  0.00    +0.000 C 
BRANCH   5   9
ATOM      6  O   UNL     1       2.831   8.558  17.433  0.00  0.00    +0.000 OA
ATOM      7  C   UNL     1       2.821   7.547  18.128  0.00  0.00    +0.000 A 
ATOM      8  C   UNL     1       3.538   6.328  17.689  0.00  0.00    +0.000 A 
ATOM      9  C   UNL     1       3.589   5.224  18.454  0.00  0.00    +0.000 A 
ATOM     10  N   UNL     1       2.954   5.227  19.713  0.00  0.00    +0.000 N 
ATOM     11  C   UNL     1       2.185   6.316  20.104  0.00  0.00    +0.000 A 
ATOM     12  C   UNL     1       2.072   7.459  19.422  0.00  0.00    +0.000 A 
BRANCH  10  13
ATOM     13  C   UNL     1       2.797   4.008  20.523  0.00  0.00    +0.000 C 
ATOM     14  C   UNL     1       1.521   3.614  21.218  0.00  0.00    +0.000 C 
ATOM     15  C   UNL     1       1.970   2.841  20.020  0.00  0.00    +0.000 C 
ENDBRANCH  10  13
BRANCH  12  16
ATOM     16  O   UNL     1       1.286   8.525  19.807  0.00  0.00    +0.000 OA
ATOM     17  H   UNL     1       0.842   8.895  19.026  0.00  0.00    +0.000 HD
ENDBRANCH  12  16
ENDBRANCH   5   9
ENDBRANCH   3   5
ENDBRANCH   2   3
ENDBRANCH   1   2
BRANCH   1  18
ATOM     18  C   UNL     1       7.228   6.094  16.628  0.00  0.00    +0.000 C 
BRANCH  18  19
ATOM     19  C   UNL     1       6.967   7.335  17.490  0.00  0.00    +0.000 C 
BRANCH  19  20
ATOM     20  C   UNL     1       8.192   8.038  18.108  0.00  0.00    +0.000 C 
BRANCH  20  21
ATOM     21  C   UNL     1       8.308   9.563  17.866  0.00  0.00    +0.000 C 
BRANCH  21  22
ATOM     22  N   UNL     1       9.109  10.156  18.943  0.00  0.00    +0.000 N 
ATOM     23  H   UNL     1       9.817   9.478  19.233  0.00  0.00    +0.000 HD
BRANCH  22  24
ATOM     24  C   UNL     1       9.786  11.388  18.813  0.00  0.00    +0.000 A 
ATOM     25  C   UNL     1      10.669  11.609  17.761  0.00  0.00    +0.000 A 
ATOM     26  C   UNL     1      11.727  12.452  18.034  0.00  0.00    +0.000 A 
ATOM     27  N   UNL     1      11.622  13.504  18.864  0.00  0.00    +0.000 NA
ATOM     28  C   UNL     1      10.676  13.426  19.791  0.00  0.00    +0.000 A 
ATOM     29  C   UNL     1      10.640  14.422  20.741  0.00  0.00    +0.000 A 
ATOM     30  C   UNL     1       9.892  14.260  21.897  0.00  0.00    +0.000 A 
ATOM     31 CL   UNL     1       9.920  15.478  23.107  0.00  0.00    +0.000 Cl
ATOM     32  C   UNL     1       9.148  13.097  22.092  0.00  0.00    +0.000 A 
ATOM     33  C   UNL     1       9.090  12.131  21.088  0.00  0.00    +0.000 A 
ATOM     34  C   UNL     1       9.840  12.287  19.913  0.00  0.00    +0.000 A 
ENDBRANCH  22  24
ENDBRANCH  21  22
ENDBRANCH  20  21
ENDBRANCH  19  20
ENDBRANCH  18  19
ENDBRANCH   1  18
TORSDOF 12
ENDMDL
MODEL 3
REMARK VINA RESULT:      -7.4      4.178      8.097
REMARK  Name = 
REMARK  12 active torsions:
REMARK  status: ('A' for Active; 'I' for Inactive)
REMARK    1  A    between atoms: C_4  and  C_5
REMARK    2  A    between atoms: C_5  and  N_6
REMARK    3  A    between atoms: N_6  and  C_7
REMARK    4  A    between atoms: C_7  and  C_8
REMARK    5  A    between atoms: C_8  and  C_9
REMARK    6  A    between atoms: C_9  and  C_10
REMARK    7  A    between atoms: C_10  and  C_11
REMARK    8  A    between atoms: C_11  and  C_12
REMARK    9  A    between atoms: C_12  and  N_13
REMARK   10  A    between atoms: N_13  and  C_14
REMARK   11  A    between atoms: N_25  and  C_26
REMARK   12  A    between atoms: C_30  and  O_31
REMARK                            x       y       z     vdW  Elec       q    Type
REMARK                         _______ _______ _______ _____ _____    ______ ____
ROOT
ATOM      1  C   UNL     1       3.030   6.796  18.519  0.00  0.00    +0.000 C 
ENDROOT
BRANCH   1   2
ATOM      2  C   UNL     1       3.035   8.084  17.679  0.00  0.00    +0.000 C 
BRANCH   2   3
ATOM      3  N   UNL     1       1.795   8.870  17.650  0.00  0.00    +0.000 NA
ATOM      4  H   UNL     1       2.002   9.732  17.140  0.00  0.00    +0.000 HD
BRANCH   3   5
ATOM      5  C   UNL     1       1.298   9.264  18.980  0.00  0.00    +0.000 C 
BRANCH   5   9
ATOM      6  O   UNL     1      -2.445  11.433  16.752  0.00  0.00    +0.000 OA
ATOM      7  C   UNL     1      -1.857  11.218  17.806  0.00  0.00    +0.000 A 
ATOM      8  C   UNL     1      -0.643  10.369  17.828  0.00  0.00    +0.000 A 
ATOM      9  C   UNL     1       0.052  10.160  18.959  0.00  0.00    +0.000 A 
ATOM     10  N   UNL     1      -0.375  10.771  20.155  0.00  0.00    +0.000 N 
ATOM     11  C   UNL     1      -1.568  11.483  20.188  0.00  0.00    +0.000 A 
ATOM     12  C   UNL     1      -2.329  11.751  19.124  0.00  0.00    +0.000 A 
BRANCH  10  13
ATOM     13  C   UNL     1       0.210  10.441  21.465  0.00  0.00    +0.000 C 
ATOM     14  C   UNL     1      -0.528  10.552  22.772  0.00  0.00    +0.000 C 
ATOM     15  C   UNL     1      -0.220   9.197  22.219  0.00  0.00    +0.000 C 
ENDBRANCH  10  13
BRANCH  12  16
ATOM     16  O   UNL     1      -3.524  12.439  19.171  0.00  0.00    +0.000 OA
ATOM     17  H   UNL     1      -3.539  13.104  18.464  0.00  0.00    +0.000 HD
ENDBRANCH  12  16
ENDBRANCH   5   9
ENDBRANCH   3   5
ENDBRANCH   2   3
ENDBRANCH   1   2
BRANCH   1  18
ATOM     18  C   UNL     1       1.853   5.833  18.313  0.00  0.00    +0.000 C 
BRANCH  18  19
ATOM     19  C   UNL     1       2.080   4.366  18.694  0.00  0.00    +0.000 C 
BRANCH  19  20
ATOM     20  C   UNL     1       3.276   4.050  19.613  0.00  0.00    +0.000 C 
BRANCH  20  21
ATOM     21  C   UNL     1       4.101   2.786  19.264  0.00  0.00    +0.000 C 
BRANCH  21  22
ATOM     22  N   UNL     1       5.329   3.195  18.572  0.00  0.00    +0.000 N 
ATOM     23  H   UNL     1       5.702   2.387  18.068  0.00  0.00    +0.000 HD
BRANCH  22  24
ATOM     24  C   UNL     1       5.378   4.273  17.661  0.00  0.00    +0.000 A 
ATOM     25  C   UNL     1       4.790   4.174  16.405  0.00  0.00    +0.000 A 
ATOM     26  C   UNL     1       5.403   4.889  15.397  0.00  0.00    +0.000 A 
ATOM     27  N   UNL     1       5.998   6.076  15.608  0.00  0.00    +0.000 NA
ATOM     28  C   UNL     1       6.433   6.302  16.841  0.00  0.00    +0.000 A 
ATOM     29  C   UNL     1       7.171   7.446  17.050  0.00  0.00    +0.000 A 
ATOM     30  C   UNL     1       7.904   7.602  18.216  0.00  0.00    +0.000 A 
ATOM     31 CL   UNL     1       8.880   8.999  18.427  0.00  0.00    +0.000 Cl
ATOM     32  C   UNL     1       7.877   6.613  19.197  0.00  0.00    +0.000 A 
ATOM     33  C   UNL     1       7.048   5.502  19.045  0.00  0.00    +0.000 A 
ATOM     34  C   UNL     1       6.299   5.336  17.870  0.00  0.00    +0.000 A 
ENDBRANCH  22  24
ENDBRANCH  21  22
ENDBRANCH  20  21
ENDBRANCH  19  20
ENDBRANCH  18  19
ENDBRANCH   1  18
TORSDOF 12
ENDMDL
MODEL 4
REMARK VINA RESULT:      -7.3      3.470      7.086
REMARK  Name = 
REMARK  12 active torsions:
REMARK  status: ('A' for Active; 'I' for Inactive)
REMARK    1  A    between atoms: C_4  and  C_5
REMARK    2  A    between atoms: C_5  and  N_6
REMARK    3  A    between atoms: N_6  and  C_7
REMARK    4  A    between atoms: C_7  and  C_8
REMARK    5  A    between atoms: C_8  and  C_9
REMARK    6  A    between atoms: C_9  and  C_10
REMARK    7  A    between atoms: C_10  and  C_11
REMARK    8  A    between atoms: C_11  and  C_12
REMARK    9  A    between atoms: C_12  and  N_13
REMARK   10  A    between atoms: N_13  and  C_14
REMARK   11  A    between atoms: N_25  and  C_26
REMARK   12  A    between atoms: C_30  and  O_31
REMARK                            x       y       z     vdW  Elec       q    Type
REMARK                         _______ _______ _______ _____ _____    ______ ____
ROOT
ATOM      1  C   UNL     1       1.075   2.301  19.564  0.00  0.00    +0.000 C 
ENDROOT
BRANCH   1   2
ATOM      2  C   UNL     1       1.057   3.276  20.754  0.00  0.00    +0.000 C 
BRANCH   2   3
ATOM      3  N   UNL     1       0.842   4.696  20.454  0.00  0.00    +0.000 NA
ATOM      4  H   UNL     1       0.643   4.761  19.453  0.00  0.00    +0.000 HD
BRANCH   3   5
ATOM      5  C   UNL     1       2.010   5.554  20.720  0.00  0.00    +0.000 C 
BRANCH   5   9
ATOM      6  O   UNL     1       3.216   7.975  16.674  0.00  0.00    +0.000 OA
ATOM      7  C   UNL     1       2.679   8.011  17.776  0.00  0.00    +0.000 A 
ATOM      8  C   UNL     1       2.621   6.797  18.622  0.00  0.00    +0.000 A 
ATOM      9  C   UNL     1       2.086   6.819  19.855  0.00  0.00    +0.000 A 
ATOM     10  N   UNL     1       1.577   8.031  20.364  0.00  0.00    +0.000 N 
ATOM     11  C   UNL     1       1.520   9.159  19.555  0.00  0.00    +0.000 A 
ATOM     12  C   UNL     1       2.024   9.243  18.321  0.00  0.00    +0.000 A 
BRANCH  10  13
ATOM     13  C   UNL     1       0.806   8.101  21.616  0.00  0.00    +0.000 C 
ATOM     14  C   UNL     1       0.586   9.365  22.403  0.00  0.00    +0.000 C 
ATOM     15  C   UNL     1      -0.558   8.762  21.654  0.00  0.00    +0.000 C 
ENDBRANCH  10  13
BRANCH  12  16
ATOM     16  O   UNL     1       1.941  10.360  17.516  0.00  0.00    +0.000 OA
ATOM     17  H   UNL     1       1.540  11.088  18.019  0.00  0.00    +0.000 HD
ENDBRANCH  12  16
ENDBRANCH   5   9
ENDBRANCH   3   5
ENDBRANCH   2   3
ENDBRANCH   1   2
BRANCH   1  18
ATOM     18  C   UNL     1       2.036   2.625  18.412  0.00  0.00    +0.000 C 
BRANCH  18  19
ATOM     19  C   UNL     1       3.190   1.645  18.171  0.00  0.00    +0.000 C 
BRANCH  19  20
ATOM     20  C   UNL     1       4.554   1.991  18.798  0.00  0.00    +0.000 C 
BRANCH  20  21
ATOM     21  C   UNL     1       4.642   3.332  19.568  0.00  0.00    +0.000 C 
BRANCH  21  22
ATOM     22  N   UNL     1       4.609   4.437  18.602  0.00  0.00    +0.000 N 
ATOM     23  H   UNL     1       4.202   5.256  19.060  0.00  0.00    +0.000 HD
BRANCH  22  24
ATOM     24  C   UNL     1       5.756   4.904  17.925  0.00  0.00    +0.000 A 
ATOM     25  C   UNL     1       6.593   5.850  18.508  0.00  0.00    +0.000 A 
ATOM     26  C   UNL     1       7.225   6.710  17.634  0.00  0.00    +0.000 A 
ATOM     27  N   UNL     1       7.628   6.333  16.408  0.00  0.00    +0.000 NA
ATOM     28  C   UNL     1       6.974   5.316  15.863  0.00  0.00    +0.000 A 
ATOM     29  C   UNL     1       7.269   5.002  14.555  0.00  0.00    +0.000 A 
ATOM     30  C   UNL     1       6.434   4.166  13.830  0.00  0.00    +0.000 A 
ATOM     31 CL   UNL     1       6.775   3.848  12.178  0.00  0.00    +0.000 Cl
ATOM     32  C   UNL     1       5.304   3.615  14.430  0.00  0.00    +0.000 A 
ATOM     33  C   UNL     1       5.055   3.837  15.785  0.00  0.00    +0.000 A 
ATOM     34  C   UNL     1       5.895   4.678  16.528  0.00  0.00    +0.000 A 
ENDBRANCH  22  24
ENDBRANCH  21  22
ENDBRANCH  20  21
ENDBRANCH  19  20
ENDBRANCH  18  19
ENDBRANCH   1  18
TORSDOF 12
ENDMDL
MODEL 5
REMARK VINA RESULT:      -7.3      4.919      7.539
REMARK  Name = 
REMARK  12 active torsions:
REMARK  status: ('A' for Active; 'I' for Inactive)
REMARK    1  A    between atoms: C_4  and  C_5
REMARK    2  A    between atoms: C_5  and  N_6
REMARK    3  A    between atoms: N_6  and  C_7
REMARK    4  A    between atoms: C_7  and  C_8
REMARK    5  A    between atoms: C_8  and  C_9
REMARK    6  A    between atoms: C_9  and  C_10
REMARK    7  A    between atoms: C_10  and  C_11
REMARK    8  A    between atoms: C_11  and  C_12
REMARK    9  A    between atoms: C_12  and  N_13
REMARK   10  A    between atoms: N_13  and  C_14
REMARK   11  A    between atoms: N_25  and  C_26
REMARK   12  A    between atoms: C_30  and  O_31
REMARK                            x       y       z     vdW  Elec       q    Type
REMARK                         _______ _______ _______ _____ _____    ______ ____
ROOT
ATOM      1  C   UNL     1       6.955   7.540  17.595  0.00  0.00    +0.000 C 
ENDROOT
BRANCH   1   2
ATOM      2  C   UNL     1       8.278   8.229  17.969  0.00  0.00    +0.000 C 
BRANCH   2   3
ATOM      3  N   UNL     1       8.257   9.689  18.112  0.00  0.00    +0.000 NA
ATOM      4  H   UNL     1       8.620  10.078  17.238  0.00  0.00    +0.000 HD
BRANCH   3   5
ATOM      5  C   UNL     1       9.108  10.203  19.200  0.00  0.00    +0.000 C 
BRANCH   5   9
ATOM      6  O   UNL     1      11.623  13.197  16.303  0.00  0.00    +0.000 OA
ATOM      7  C   UNL     1      11.062  13.036  17.382  0.00  0.00    +0.000 A 
ATOM      8  C   UNL     1      10.393  11.752  17.695  0.00  0.00    +0.000 A 
ATOM      9  C   UNL     1       9.817  11.528  18.887  0.00  0.00    +0.000 A 
ATOM     10  N   UNL     1       9.858  12.534  19.874  0.00  0.00    +0.000 N 
ATOM     11  C   UNL     1      10.383  13.785  19.574  0.00  0.00    +0.000 A 
ATOM     12  C   UNL     1      10.980  14.109  18.424  0.00  0.00    +0.000 A 
BRANCH  10  13
ATOM     13  C   UNL     1       9.091  12.445  21.127  0.00  0.00    +0.000 C 
ATOM     14  C   UNL     1       9.354  13.296  22.341  0.00  0.00    +0.000 C 
ATOM     15  C   UNL     1       8.124  13.543  21.527  0.00  0.00    +0.000 C 
ENDBRANCH  10  13
BRANCH  12  16
ATOM     16  O   UNL     1      11.476  15.361  18.126  0.00  0.00    +0.000 OA
ATOM     17  H   UNL     1      12.093  15.636  18.824  0.00  0.00    +0.000 HD
ENDBRANCH  12  16
ENDBRANCH   5   9
ENDBRANCH   3   5
ENDBRANCH   2   3
ENDBRANCH   1   2
BRANCH   1  18
ATOM     18  C   UNL     1       6.797   6.067  17.997  0.00  0.00    +0.000 C 
BRANCH  18  19
ATOM     19  C   UNL     1       7.475   5.025  17.101  0.00  0.00    +0.000 C 
BRANCH  19  20
ATOM     20  C   UNL     1       6.844   4.763  15.719  0.00  0.00    +0.000 C 
BRANCH  20  21
ATOM     21  C   UNL     1       5.750   3.669  15.654  0.00  0.00    +0.000 C 
BRANCH  21  22
ATOM     22  N   UNL     1       4.482   4.235  16.129  0.00  0.00    +0.000 N 
ATOM     23  H   UNL     1       3.758   4.039  15.434  0.00  0.00    +0.000 HD
BRANCH  22  24
ATOM     24  C   UNL     1       3.913   3.910  17.380  0.00  0.00    +0.000 A 
ATOM     25  C   UNL     1       3.688   2.586  17.739  0.00  0.00    +0.000 A 
ATOM     26  C   UNL     1       2.604   2.364  18.563  0.00  0.00    +0.000 A 
ATOM     27  N   UNL     1       2.218   3.239  19.507  0.00  0.00    +0.000 NA
ATOM     28  C   UNL     1       2.554   4.506  19.303  0.00  0.00    +0.000 A 
ATOM     29  C   UNL     1       2.050   5.442  20.180  0.00  0.00    +0.000 A 
ATOM     30  C   UNL     1       2.104   6.792  19.869  0.00  0.00    +0.000 A 
ATOM     31 CL   UNL     1       1.401   7.939  20.935  0.00  0.00    +0.000 Cl
ATOM     32  C   UNL     1       2.694   7.213  18.678  0.00  0.00    +0.000 A 
ATOM     33  C   UNL     1       3.305   6.284  17.836  0.00  0.00    +0.000 A 
ATOM     34  C   UNL     1       3.259   4.916  18.143  0.00  0.00    +0.000 A 
ENDBRANCH  22  24
ENDBRANCH  21  22
ENDBRANCH  20  21
ENDBRANCH  19  20
ENDBRANCH  18  19
ENDBRANCH   1  18
TORSDOF 12
ENDMDL
MODEL 6
REMARK VINA RESULT:      -7.2      4.375      8.650
REMARK  Name = 
REMARK  12 active torsions:
REMARK  status: ('A' for Active; 'I' for Inactive)
REMARK    1  A    between atoms: C_4  and  C_5
REMARK    2  A    between atoms: C_5  and  N_6
REMARK    3  A    between atoms: N_6  and  C_7
REMARK    4  A    between atoms: C_7  and  C_8
REMARK    5  A    between atoms: C_8  and  C_9
REMARK    6  A    between atoms: C_9  and  C_10
REMARK    7  A    between atoms: C_10  and  C_11
REMARK    8  A    between atoms: C_11  and  C_12
REMARK    9  A    between atoms: C_12  and  N_13
REMARK   10  A    between atoms: N_13  and  C_14
REMARK   11  A    between atoms: N_25  and  C_26
REMARK   12  A    between atoms: C_30  and  O_31
REMARK                            x       y       z     vdW  Elec       q    Type
REMARK                         _______ _______ _______ _____ _____    ______ ____
ROOT
ATOM      1  C   UNL     1       2.509   7.780  18.621  0.00  0.00    +0.000 C 
ENDROOT
BRANCH   1   2
ATOM      2  C   UNL     1       2.034   8.800  17.573  0.00  0.00    +0.000 C 
BRANCH   2   3
ATOM      3  N   UNL     1       1.404  10.029  18.070  0.00  0.00    +0.000 NA
ATOM      4  H   UNL     1       2.112  10.525  18.617  0.00  0.00    +0.000 HD
BRANCH   3   5
ATOM      5  C   UNL     1       0.252   9.801  18.959  0.00  0.00    +0.000 C 
BRANCH   5   9
ATOM      6  O   UNL     1      -3.401  10.331  15.787  0.00  0.00    +0.000 OA
ATOM      7  C   UNL     1      -2.919  10.653  16.868  0.00  0.00    +0.000 A 
ATOM      8  C   UNL     1      -1.641  10.059  17.326  0.00  0.00    +0.000 A 
ATOM      9  C   UNL     1      -1.062  10.433  18.479  0.00  0.00    +0.000 A 
ATOM     10  N   UNL     1      -1.678  11.423  19.272  0.00  0.00    +0.000 N 
ATOM     11  C   UNL     1      -2.928  11.918  18.924  0.00  0.00    +0.000 A 
ATOM     12  C   UNL     1      -3.585  11.617  17.800  0.00  0.00    +0.000 A 
BRANCH  10  13
ATOM     13  C   UNL     1      -1.217  11.747  20.632  0.00  0.00    +0.000 C 
ATOM     14  C   UNL     1      -0.111  12.721  20.938  0.00  0.00    +0.000 C 
ATOM     15  C   UNL     1      -1.523  13.095  21.256  0.00  0.00    +0.000 C 
ENDBRANCH  10  13
BRANCH  12  16
ATOM     16  O   UNL     1      -4.838  12.096  17.474  0.00  0.00    +0.000 OA
ATOM     17  H   UNL     1      -5.496  11.705  18.071  0.00  0.00    +0.000 HD
ENDBRANCH  12  16
ENDBRANCH   5   9
ENDBRANCH   3   5
ENDBRANCH   2   3
ENDBRANCH   1   2
BRANCH   1  18
ATOM     18  C   UNL     1       3.027   6.433  18.098  0.00  0.00    +0.000 C 
BRANCH  18  19
ATOM     19  C   UNL     1       2.118   5.215  18.293  0.00  0.00    +0.000 C 
BRANCH  19  20
ATOM     20  C   UNL     1       2.499   3.921  17.547  0.00  0.00    +0.000 C 
BRANCH  20  21
ATOM     21  C   UNL     1       3.518   2.992  18.251  0.00  0.00    +0.000 C 
BRANCH  21  22
ATOM     22  N   UNL     1       4.703   2.852  17.397  0.00  0.00    +0.000 N 
ATOM     23  H   UNL     1       4.544   2.080  16.744  0.00  0.00    +0.000 HD
BRANCH  22  24
ATOM     24  C   UNL     1       5.225   3.910  16.621  0.00  0.00    +0.000 A 
ATOM     25  C   UNL     1       5.154   3.879  15.233  0.00  0.00    +0.000 A 
ATOM     26  C   UNL     1       6.187   4.506  14.566  0.00  0.00    +0.000 A 
ATOM     27  N   UNL     1       6.792   5.609  15.039  0.00  0.00    +0.000 NA
ATOM     28  C   UNL     1       6.746   5.785  16.353  0.00  0.00    +0.000 A 
ATOM     29  C   UNL     1       7.479   6.828  16.877  0.00  0.00    +0.000 A 
ATOM     30  C   UNL     1       7.723   6.895  18.240  0.00  0.00    +0.000 A 
ATOM     31 CL   UNL     1       8.703   8.158  18.867  0.00  0.00    +0.000 Cl
ATOM     32  C   UNL     1       7.205   5.922  19.093  0.00  0.00    +0.000 A 
ATOM     33  C   UNL     1       6.371   4.925  18.588  0.00  0.00    +0.000 A 
ATOM     34  C   UNL     1       6.115   4.849  17.211  0.00  0.00    +0.000 A 
ENDBRANCH  22  24
ENDBRANCH  21  22
ENDBRANCH  20  21
ENDBRANCH  19  20
ENDBRANCH  18  19
ENDBRANCH   1  18
TORSDOF 12
ENDMDL
MODEL 7
REMARK VINA RESULT:      -7.1      4.302      7.945
REMARK  Name = 
REMARK  12 active torsions:
REMARK  status: ('A' for Active; 'I' for Inactive)
REMARK    1  A    between atoms: C_4  and  C_5
REMARK    2  A    between atoms: C_5  and  N_6
REMARK    3  A    between atoms: N_6  and  C_7
REMARK    4  A    between atoms: C_7  and  C_8
REMARK    5  A    between atoms: C_8  and  C_9
REMARK    6  A    between atoms: C_9  and  C_10
REMARK    7  A    between atoms: C_10  and  C_11
REMARK    8  A    between atoms: C_11  and  C_12
REMARK    9  A    between atoms: C_12  and  N_13
REMARK   10  A    between atoms: N_13  and  C_14
REMARK   11  A    between atoms: N_25  and  C_26
REMARK   12  A    between atoms: C_30  and  O_31
REMARK                            x       y       z     vdW  Elec       q    Type
REMARK                         _______ _______ _______ _____ _____    ______ ____
ROOT
ATOM      1  C   UNL     1       2.418   5.165  20.278  0.00  0.00    +0.000 C 
ENDROOT
BRANCH   1   2
ATOM      2  C   UNL     1       2.177   6.265  19.231  0.00  0.00    +0.000 C 
BRANCH   2   3
ATOM      3  N   UNL     1       2.582   7.630  19.586  0.00  0.00    +0.000 NA
ATOM      4  H   UNL     1       2.586   7.682  20.607  0.00  0.00    +0.000 HD
BRANCH   3   5
ATOM      5  C   UNL     1       1.665   8.678  19.103  0.00  0.00    +0.000 C 
BRANCH   5   9
ATOM      6  O   UNL     1      -0.112   9.187  23.605  0.00  0.00    +0.000 OA
ATOM      7  C   UNL     1       0.092   9.705  22.511  0.00  0.00    +0.000 A 
ATOM      8  C   UNL     1       0.763   8.943  21.434  0.00  0.00    +0.000 A 
ATOM      9  C   UNL     1       0.952   9.465  20.211  0.00  0.00    +0.000 A 
ATOM     10  N   UNL     1       0.491  10.769  19.938  0.00  0.00    +0.000 N 
ATOM     11  C   UNL     1      -0.044  11.547  20.957  0.00  0.00    +0.000 A 
ATOM     12  C   UNL     1      -0.277  11.123  22.203  0.00  0.00    +0.000 A 
BRANCH  10  13
ATOM     13  C   UNL     1       0.826  11.484  18.696  0.00  0.00    +0.000 C 
ATOM     14  C   UNL     1       0.761  12.979  18.538  0.00  0.00    +0.000 C 
ATOM     15  C   UNL     1       2.096  12.306  18.589  0.00  0.00    +0.000 C 
ENDBRANCH  10  13
BRANCH  12  16
ATOM     16  O   UNL     1      -0.787  11.911  23.214  0.00  0.00    +0.000 OA
ATOM     17  H   UNL     1      -1.359  11.371  23.784  0.00  0.00    +0.000 HD
ENDBRANCH  12  16
ENDBRANCH   5   9
ENDBRANCH   3   5
ENDBRANCH   2   3
ENDBRANCH   1   2
BRANCH   1  18
ATOM     18  C   UNL     1       1.291   4.143  20.489  0.00  0.00    +0.000 C 
BRANCH  18  19
ATOM     19  C   UNL     1       1.577   2.697  20.069  0.00  0.00    +0.000 C 
BRANCH  19  20
ATOM     20  C   UNL     1       3.024   2.350  19.667  0.00  0.00    +0.000 C 
BRANCH  20  21
ATOM     21  C   UNL     1       3.330   2.316  18.148  0.00  0.00    +0.000 C 
BRANCH  21  22
ATOM     22  N   UNL     1       4.686   2.830  17.924  0.00  0.00    +0.000 N 
ATOM     23  H   UNL     1       5.264   2.071  17.556  0.00  0.00    +0.000 HD
BRANCH  22  24
ATOM     24  C   UNL     1       4.962   3.952  17.113  0.00  0.00    +0.000 A 
ATOM     25  C   UNL     1       4.560   3.987  15.782  0.00  0.00    +0.000 A 
ATOM     26  C   UNL     1       5.375   4.701  14.928  0.00  0.00    +0.000 A 
ATOM     27  N   UNL     1       6.031   5.810  15.310  0.00  0.00    +0.000 NA
ATOM     28  C   UNL     1       6.297   5.918  16.605  0.00  0.00    +0.000 A 
ATOM     29  C   UNL     1       7.090   6.971  17.002  0.00  0.00    +0.000 A 
ATOM     30  C   UNL     1       7.653   6.984  18.269  0.00  0.00    +0.000 A 
ATOM     31 CL   UNL     1       8.703   8.265  18.720  0.00  0.00    +0.000 Cl
ATOM     32  C   UNL     1       7.396   5.943  19.159  0.00  0.00    +0.000 A 
ATOM     33  C   UNL     1       6.507   4.928  18.808  0.00  0.00    +0.000 A 
ATOM     34  C   UNL     1       5.929   4.907  17.530  0.00  0.00    +0.000 A 
ENDBRANCH  22  24
ENDBRANCH  21  22
ENDBRANCH  20  21
ENDBRANCH  19  20
ENDBRANCH  18  19
ENDBRANCH   1  18
TORSDOF 12
ENDMDL
MODEL 8
REMARK VINA RESULT:      -7.1      4.432      8.733
REMARK  Name = 
REMARK  12 active torsions:
REMARK  status: ('A' for Active; 'I' for Inactive)
REMARK    1  A    between atoms: C_4  and  C_5
REMARK    2  A    between atoms: C_5  and  N_6
REMARK    3  A    between atoms: N_6  and  C_7
REMARK    4  A    between atoms: C_7  and  C_8
REMARK    5  A    between atoms: C_8  and  C_9
REMARK    6  A    between atoms: C_9  and  C_10
REMARK    7  A    between atoms: C_10  and  C_11
REMARK    8  A    between atoms: C_11  and  C_12
REMARK    9  A    between atoms: C_12  and  N_13
REMARK   10  A    between atoms: N_13  and  C_14
REMARK   11  A    between atoms: N_25  and  C_26
REMARK   12  A    between atoms: C_30  and  O_31
REMARK                            x       y       z     vdW  Elec       q    Type
REMARK                         _______ _______ _______ _____ _____    ______ ____
ROOT
ATOM      1  C   UNL     1       1.631   6.759  20.203  0.00  0.00    +0.000 C 
ENDROOT
BRANCH   1   2
ATOM      2  C   UNL     1       2.146   7.572  19.004  0.00  0.00    +0.000 C 
BRANCH   2   3
ATOM      3  N   UNL     1       1.952   9.026  19.045  0.00  0.00    +0.000 NA
ATOM      4  H   UNL     1       2.866   9.442  19.239  0.00  0.00    +0.000 HD
BRANCH   3   5
ATOM      5  C   UNL     1       1.035   9.483  20.105  0.00  0.00    +0.000 C 
BRANCH   5   9
ATOM      6  O   UNL     1      -2.304  10.657  16.765  0.00  0.00    +0.000 OA
ATOM      7  C   UNL     1      -1.877  10.831  17.901  0.00  0.00    +0.000 A 
ATOM      8  C   UNL     1      -0.698  10.075  18.383  0.00  0.00    +0.000 A 
ATOM      9  C   UNL     1      -0.175  10.283  19.603  0.00  0.00    +0.000 A 
ATOM     10  N   UNL     1      -0.754  11.253  20.446  0.00  0.00    +0.000 N 
ATOM     11  C   UNL     1      -1.923  11.900  20.065  0.00  0.00    +0.000 A 
ATOM     12  C   UNL     1      -2.520  11.768  18.877  0.00  0.00    +0.000 A 
BRANCH  10  13
ATOM     13  C   UNL     1      -0.368  11.407  21.858  0.00  0.00    +0.000 C 
ATOM     14  C   UNL     1      -1.300  11.878  22.942  0.00  0.00    +0.000 C 
ATOM     15  C   UNL     1      -0.879  10.444  22.913  0.00  0.00    +0.000 C 
ENDBRANCH  10  13
BRANCH  12  16
ATOM     16  O   UNL     1      -3.694  12.397  18.517  0.00  0.00    +0.000 OA
ATOM     17  H   UNL     1      -4.300  12.402  19.276  0.00  0.00    +0.000 HD
ENDBRANCH  12  16
ENDBRANCH   5   9
ENDBRANCH   3   5
ENDBRANCH   2   3
ENDBRANCH   1   2
BRANCH   1  18
ATOM     18  C   UNL     1       2.450   5.528  20.615  0.00  0.00    +0.000 C 
BRANCH  18  19
ATOM     19  C   UNL     1       1.835   4.154  20.323  0.00  0.00    +0.000 C 
BRANCH  19  20
ATOM     20  C   UNL     1       1.307   3.905  18.896  0.00  0.00    +0.000 C 
BRANCH  20  21
ATOM     21  C   UNL     1       2.283   4.216  17.734  0.00  0.00    +0.000 C 
BRANCH  21  22
ATOM     22  N   UNL     1       3.461   3.350  17.858  0.00  0.00    +0.000 N 
ATOM     23  H   UNL     1       3.438   2.659  17.104  0.00  0.00    +0.000 HD
BRANCH  22  24
ATOM     24  C   UNL     1       4.784   3.845  17.885  0.00  0.00    +0.000 A 
ATOM     25  C   UNL     1       5.359   4.278  19.075  0.00  0.00    +0.000 A 
ATOM     26  C   UNL     1       6.280   5.299  18.958  0.00  0.00    +0.000 A 
ATOM     27  N   UNL     1       7.101   5.419  17.900  0.00  0.00    +0.000 NA
ATOM     28  C   UNL     1       6.681   4.872  16.767  0.00  0.00    +0.000 A 
ATOM     29  C   UNL     1       7.434   5.102  15.637  0.00  0.00    +0.000 A 
ATOM     30  C   UNL     1       6.914   4.826  14.382  0.00  0.00    +0.000 A 
ATOM     31 CL   UNL     1       7.835   5.192  12.980  0.00  0.00    +0.000 Cl
ATOM     32  C   UNL     1       5.634   4.287  14.257  0.00  0.00    +0.000 A 
ATOM     33  C   UNL     1       4.907   3.947  15.398  0.00  0.00    +0.000 A 
ATOM     34  C   UNL     1       5.425   4.219  16.672  0.00  0.00    +0.000 A 
ENDBRANCH  22  24
ENDBRANCH  21  22
ENDBRANCH  20  21
ENDBRANCH  19  20
ENDBRANCH  18  19
ENDBRANCH   1  18
TORSDOF 12
ENDMDL
MODEL 9
REMARK VINA RESULT:      -7.1      3.260      5.927
REMARK  Name = 
REMARK  12 active torsions:
REMARK  status: ('A' for Active; 'I' for Inactive)
REMARK    1  A    between atoms: C_4  and  C_5
REMARK    2  A    between atoms: C_5  and  N_6
REMARK    3  A    between atoms: N_6  and  C_7
REMARK    4  A    between atoms: C_7  and  C_8
REMARK    5  A    between atoms: C_8  and  C_9
REMARK    6  A    between atoms: C_9  and  C_10
REMARK    7  A    between atoms: C_10  and  C_11
REMARK    8  A    between atoms: C_11  and  C_12
REMARK    9  A    between atoms: C_12  and  N_13
REMARK   10  A    between atoms: N_13  and  C_14
REMARK   11  A    between atoms: N_25  and  C_26
REMARK   12  A    between atoms: C_30  and  O_31
REMARK                            x       y       z     vdW  Elec       q    Type
REMARK                         _______ _______ _______ _____ _____    ______ ____
ROOT
ATOM      1  C   UNL     1       0.448   8.710  20.947  0.00  0.00    +0.000 C 
ENDROOT
BRANCH   1   2
ATOM      2  C   UNL     1       1.544   8.680  19.869  0.00  0.00    +0.000 C 
BRANCH   2   3
ATOM      3  N   UNL     1       2.301   7.432  19.716  0.00  0.00    +0.000 NA
ATOM      4  H   UNL     1       3.268   7.638  19.978  0.00  0.00    +0.000 HD
BRANCH   3   5
ATOM      5  C   UNL     1       2.328   6.905  18.340  0.00  0.00    +0.000 C 
BRANCH   5   9
ATOM      6  O   UNL     1       6.860   6.917  16.567  0.00  0.00    +0.000 OA
ATOM      7  C   UNL     1       5.951   6.265  17.071  0.00  0.00    +0.000 A 
ATOM      8  C   UNL     1       4.674   6.918  17.439  0.00  0.00    +0.000 A 
ATOM      9  C   UNL     1       3.643   6.220  17.943  0.00  0.00    +0.000 A 
ATOM     10  N   UNL     1       3.771   4.827  18.117  0.00  0.00    +0.000 N 
ATOM     11  C   UNL     1       4.990   4.204  17.883  0.00  0.00    +0.000 A 
ATOM     12  C   UNL     1       6.073   4.804  17.380  0.00  0.00    +0.000 A 
BRANCH  10  13
ATOM     13  C   UNL     1       2.770   4.024  18.836  0.00  0.00    +0.000 C 
ATOM     14  C   UNL     1       3.060   2.700  19.490  0.00  0.00    +0.000 C 
ATOM     15  C   UNL     1       2.811   3.899  20.347  0.00  0.00    +0.000 C 
ENDBRANCH  10  13
BRANCH  12  16
ATOM     16  O   UNL     1       7.287   4.182  17.173  0.00  0.00    +0.000 OA
ATOM     17  H   UNL     1       7.763   4.120  18.018  0.00  0.00    +0.000 HD
ENDBRANCH  12  16
ENDBRANCH   5   9
ENDBRANCH   3   5
ENDBRANCH   2   3
ENDBRANCH   1   2
BRANCH   1  18
ATOM     18  C   UNL     1       0.881   9.080  22.372  0.00  0.00    +0.000 C 
BRANCH  18  19
ATOM     19  C   UNL     1      -0.181   9.711  23.280  0.00  0.00    +0.000 C 
BRANCH  19  20
ATOM     20  C   UNL     1      -1.186  10.680  22.627  0.00  0.00    +0.000 C 
BRANCH  20  21
ATOM     21  C   UNL     1      -0.788  12.177  22.605  0.00  0.00    +0.000 C 
BRANCH  21  22
ATOM     22  N   UNL     1      -0.839  12.662  21.221  0.00  0.00    +0.000 N 
ATOM     23  H   UNL     1      -0.180  12.116  20.661  0.00  0.00    +0.000 HD
BRANCH  22  24
ATOM     24  C   UNL     1      -2.031  12.720  20.466  0.00  0.00    +0.000 A 
ATOM     25  C   UNL     1      -3.161  13.358  20.965  0.00  0.00    +0.000 A 
ATOM     26  C   UNL     1      -4.372  12.835  20.560  0.00  0.00    +0.000 A 
ATOM     27  N   UNL     1      -4.562  12.305  19.339  0.00  0.00    +0.000 NA
ATOM     28  C   UNL     1      -3.482  11.829  18.733  0.00  0.00    +0.000 A 
ATOM     29  C   UNL     1      -3.669  11.153  17.548  0.00  0.00    +0.000 A 
ATOM     30  C   UNL     1      -2.650  10.379  17.015  0.00  0.00    +0.000 A 
ATOM     31 CL   UNL     1      -2.925   9.481  15.578  0.00  0.00    +0.000 Cl
ATOM     32  C   UNL     1      -1.418  10.301  17.664  0.00  0.00    +0.000 A 
ATOM     33  C   UNL     1      -1.181  11.067  18.805  0.00  0.00    +0.000 A 
ATOM     34  C   UNL     1      -2.205  11.857  19.350  0.00  0.00    +0.000 A 
ENDBRANCH  22  24
ENDBRANCH  21  22
ENDBRANCH  20  21
ENDBRANCH  19  20
ENDBRANCH  18  19
ENDBRANCH   1  18
TORSDOF 12
ENDMDL
