MODEL 1
REMARK VINA RESULT:      -7.9      0.000      0.000
REMARK  Name = 
REMARK  6 active torsions:
REMARK  status: ('A' for Active; 'I' for Inactive)
REMARK    1  A    between atoms: C_1  and  C_2
REMARK    2  A    between atoms: C_2  and  C_3
REMARK    3  A    between atoms: C_3  and  N_4
REMARK    4  A    between atoms: C_3  and  C_14
REMARK    5  A    between atoms: C_5  and  C_7
REMARK    6  A    between atoms: C_17  and  N_18
REMARK                            x       y       z     vdW  Elec       q    Type
REMARK                         _______ _______ _______ _____ _____    ______ ____
ROOT
ATOM      1  C   UNL     1       2.027  10.122  18.832  0.00  0.00    +0.000 C 
ATOM      2  C   UNL     1       1.629   8.952  17.959  0.00  0.00    +0.000 C 
ATOM      3  C   UNL     1       2.606   7.849  17.704  0.00  0.00    +0.000 C 
ATOM      4  C   UNL     1       2.655   7.025  19.007  0.00  0.00    +0.000 C 
ATOM      5  C   UNL     1       1.840   7.789  20.077  0.00  0.00    +0.000 C 
ATOM      6  C   UNL     1       1.212   8.961  19.385  0.00  0.00    +0.000 C 
ENDROOT
BRANCH   4   7
ATOM      7  N   UNL     1       2.224   5.652  18.822  0.00  0.00    +0.000 N 
ATOM      8  C   UNL     1       1.808   5.108  17.634  0.00  0.00    +0.000 A 
ATOM      9  N   UNL     1       1.451   3.848  17.762  0.00  0.00    +0.000 NA
ATOM     10  C   UNL     1       1.637   3.565  19.092  0.00  0.00    +0.000 A 
ATOM     11  C   UNL     1       1.419   2.391  19.821  0.00  0.00    +0.000 A 
ATOM     12  C   UNL     1       1.701   2.428  21.189  0.00  0.00    +0.000 A 
ATOM     13  C   UNL     1       2.180   3.608  21.751  0.00  0.00    +0.000 A 
ATOM     14  N   UNL     1       2.413   4.769  21.089  0.00  0.00    +0.000 NA
ATOM     15  C   UNL     1       2.121   4.675  19.777  0.00  0.00    +0.000 A 
ENDBRANCH   4   7
BRANCH   1  16
ATOM     16  C   UNL     1       1.397  11.477  18.630  0.00  0.00    +0.000 C 
BRANCH  16  17
ATOM     17  N   UNL     1       0.435  11.742  19.704  0.00  0.00    +0.000 N 
ATOM     18  C   UNL     1      -0.936  11.809  19.550  0.00  0.00    +0.000 C 
ATOM     19  O   UNL     1      -1.524  11.657  18.485  0.00  0.00    +0.000 OA
ATOM     20  H   UNL     1       0.818  11.753  20.638  0.00  0.00    +0.000 HD
BRANCH  18  21
ATOM     21  C   UNL     1      -1.727  12.050  20.793  0.00  0.00    +0.000 A 
ATOM     22  C   UNL     1      -2.933  12.765  20.769  0.00  0.00    +0.000 A 
ATOM     23  C   UNL     1      -3.662  12.960  21.946  0.00  0.00    +0.000 A 
ATOM     24  C   UNL     1      -3.190  12.435  23.149  0.00  0.00    +0.000 A 
ATOM     25 CL   UNL     1      -4.098  12.676  24.593  0.00  0.00    +0.000 Cl
ATOM     26  C   UNL     1      -2.002  11.715  23.187  0.00  0.00    +0.000 A 
ATOM     27  C   UNL     1      -1.270  11.516  22.010  0.00  0.00    +0.000 A 
ENDBRANCH  18  21
ENDBRANCH  16  17
BRANCH  16  29
ATOM     28  C   UNL     1       2.309  13.727  19.497  0.00  0.00    +0.000 C 
ATOM     29  C   UNL     1       2.394  12.633  18.440  0.00  0.00    +0.000 C 
ENDBRANCH  16  29
ENDBRANCH   1  16
TORSDOF 5
ENDMDL
MODEL 2
REMARK VINA RESULT:      -7.8      3.160      4.371
REMARK  Name = 
REMARK  6 active torsions:
REMARK  status: ('A' for Active; 'I' for Inactive)
REMARK    1  A    between atoms: C_1  and  C_2
REMARK    2  A    between atoms: C_2  and  C_3
REMARK    3  A    between atoms: C_3  and  N_4
REMARK    4  A    between atoms: C_3  and  C_14
REMARK    5  A    between atoms: C_5  and  C_7
REMARK    6  A    between atoms: C_17  and  N_18
REMARK                            x       y       z     vdW  Elec       q    Type
REMARK                         _______ _______ _______ _____ _____    ______ ____
ROOT
ATOM      1  C   UNL     1       1.058   8.763  19.471  0.00  0.00    +0.000 C 
ATOM      2  C   UNL     1       2.072   7.841  20.111  0.00  0.00    +0.000 C 
ATOM      3  C   UNL     1       2.095   6.392  19.742  0.00  0.00    +0.000 C 
ATOM      4  C   UNL     1       2.731   6.327  18.339  0.00  0.00    +0.000 C 
ATOM      5  C   UNL     1       2.890   7.779  17.828  0.00  0.00    +0.000 C 
ATOM      6  C   UNL     1       2.488   8.679  18.957  0.00  0.00    +0.000 C 
ENDROOT
BRANCH   4   7
ATOM      7  N   UNL     1       3.966   5.565  18.314  0.00  0.00    +0.000 N 
ATOM      8  C   UNL     1       4.486   4.871  19.376  0.00  0.00    +0.000 A 
ATOM      9  N   UNL     1       5.629   4.292  19.078  0.00  0.00    +0.000 NA
ATOM     10  C   UNL     1       5.864   4.633  17.770  0.00  0.00    +0.000 A 
ATOM     11  C   UNL     1       6.926   4.320  16.914  0.00  0.00    +0.000 A 
ATOM     12  C   UNL     1       6.875   4.838  15.618  0.00  0.00    +0.000 A 
ATOM     13  C   UNL     1       5.789   5.624  15.243  0.00  0.00    +0.000 A 
ATOM     14  N   UNL     1       4.734   5.951  16.030  0.00  0.00    +0.000 NA
ATOM     15  C   UNL     1       4.839   5.427  17.268  0.00  0.00    +0.000 A 
ENDBRANCH   4   7
BRANCH   1  16
ATOM     16  C   UNL     1       0.573   9.991  20.201  0.00  0.00    +0.000 C 
BRANCH  16  17
ATOM     17  N   UNL     1      -0.774  10.342  19.739  0.00  0.00    +0.000 N 
ATOM     18  C   UNL     1      -1.088  11.425  18.943  0.00  0.00    +0.000 C 
ATOM     19  O   UNL     1      -0.273  12.238  18.522  0.00  0.00    +0.000 OA
ATOM     20  H   UNL     1      -1.491   9.658  19.931  0.00  0.00    +0.000 HD
BRANCH  18  21
ATOM     21  C   UNL     1      -2.524  11.566  18.560  0.00  0.00    +0.000 A 
ATOM     22  C   UNL     1      -2.996  11.138  17.310  0.00  0.00    +0.000 A 
ATOM     23  C   UNL     1      -4.351  11.267  16.985  0.00  0.00    +0.000 A 
ATOM     24  C   UNL     1      -5.236  11.819  17.910  0.00  0.00    +0.000 A 
ATOM     25 CL   UNL     1      -6.903  11.969  17.504  0.00  0.00    +0.000 Cl
ATOM     26  C   UNL     1      -4.785  12.239  19.157  0.00  0.00    +0.000 A 
ATOM     27  C   UNL     1      -3.430  12.109  19.486  0.00  0.00    +0.000 A 
ENDBRANCH  18  21
ENDBRANCH  16  17
BRANCH  16  29
ATOM     28  C   UNL     1      -0.493   9.174  22.402  0.00  0.00    +0.000 C 
ATOM     29  C   UNL     1       0.663   9.910  21.735  0.00  0.00    +0.000 C 
ENDBRANCH  16  29
ENDBRANCH   1  16
TORSDOF 5
ENDMDL
MODEL 3
REMARK VINA RESULT:      -7.8      3.175      4.479
REMARK  Name = 
REMARK  6 active torsions:
REMARK  status: ('A' for Active; 'I' for Inactive)
REMARK    1  A    between atoms: C_1  and  C_2
REMARK    2  A    between atoms: C_2  and  C_3
REMARK    3  A    between atoms: C_3  and  N_4
REMARK    4  A    between atoms: C_3  and  C_14
REMARK    5  A    between atoms: C_5  and  C_7
REMARK    6  A    between atoms: C_17  and  N_18
REMARK                            x       y       z     vdW  Elec       q    Type
REMARK                         _______ _______ _______ _____ _____    ______ ____
ROOT
ATOM      1  C   UNL     1       0.973   8.329  19.891  0.00  0.00    +0.000 C 
ATOM      2  C   UNL     1       2.062   7.429  20.432  0.00  0.00    +0.000 C 
ATOM      3  C   UNL     1       2.161   6.015  19.956  0.00  0.00    +0.000 C 
ATOM      4  C   UNL     1       2.754   6.093  18.534  0.00  0.00    +0.000 C 
ATOM      5  C   UNL     1       2.807   7.585  18.129  0.00  0.00    +0.000 C 
ATOM      6  C   UNL     1       2.388   8.374  19.332  0.00  0.00    +0.000 C 
ENDROOT
BRANCH   4   7
ATOM      7  N   UNL     1       4.032   5.415  18.418  0.00  0.00    +0.000 N 
ATOM      8  C   UNL     1       4.639   4.698  19.417  0.00  0.00    +0.000 A 
ATOM      9  N   UNL     1       5.802   4.212  19.042  0.00  0.00    +0.000 NA
ATOM     10  C   UNL     1       5.960   4.639  17.748  0.00  0.00    +0.000 A 
ATOM     11  C   UNL     1       7.003   4.442  16.836  0.00  0.00    +0.000 A 
ATOM     12  C   UNL     1       6.866   5.027  15.575  0.00  0.00    +0.000 A 
ATOM     13  C   UNL     1       5.718   5.761  15.288  0.00  0.00    +0.000 A 
ATOM     14  N   UNL     1       4.678   5.975  16.132  0.00  0.00    +0.000 NA
ATOM     15  C   UNL     1       4.867   5.392  17.333  0.00  0.00    +0.000 A 
ENDBRANCH   4   7
BRANCH   1  16
ATOM     16  C   UNL     1       0.437   9.467  20.723  0.00  0.00    +0.000 C 
BRANCH  16  17
ATOM     17  N   UNL     1      -0.812   9.964  20.139  0.00  0.00    +0.000 N 
ATOM     18  C   UNL     1      -0.906  10.922  19.149  0.00  0.00    +0.000 C 
ATOM     19  O   UNL     1       0.054  11.484  18.633  0.00  0.00    +0.000 OA
ATOM     20  H   UNL     1      -1.648   9.467  20.411  0.00  0.00    +0.000 HD
BRANCH  18  21
ATOM     21  C   UNL     1      -2.283  11.246  18.673  0.00  0.00    +0.000 A 
ATOM     22  C   UNL     1      -3.166  12.013  19.447  0.00  0.00    +0.000 A 
ATOM     23  C   UNL     1      -4.445  12.316  18.969  0.00  0.00    +0.000 A 
ATOM     24  C   UNL     1      -4.841  11.858  17.713  0.00  0.00    +0.000 A 
ATOM     25 CL   UNL     1      -6.416  12.240  17.128  0.00  0.00    +0.000 Cl
ATOM     26  C   UNL     1      -3.974  11.105  16.929  0.00  0.00    +0.000 A 
ATOM     27  C   UNL     1      -2.692  10.801  17.405  0.00  0.00    +0.000 A 
ENDBRANCH  18  21
ENDBRANCH  16  17
BRANCH  16  29
ATOM     28  C   UNL     1      -0.589  10.132  22.993  0.00  0.00    +0.000 C 
ATOM     29  C   UNL     1       0.299   9.162  22.225  0.00  0.00    +0.000 C 
ENDBRANCH  16  29
ENDBRANCH   1  16
TORSDOF 5
ENDMDL
MODEL 4
REMARK VINA RESULT:      -7.6      2.706      3.958
REMARK  Name = 
REMARK  6 active torsions:
REMARK  status: ('A' for Active; 'I' for Inactive)
REMARK    1  A    between atoms: C_1  and  C_2
REMARK    2  A    between atoms: C_2  and  C_3
REMARK    3  A    between atoms: C_3  and  N_4
REMARK    4  A    between atoms: C_3  and  C_14
REMARK    5  A    between atoms: C_5  and  C_7
REMARK    6  A    between atoms: C_17  and  N_18
REMARK                            x       y       z     vdW  Elec       q    Type
REMARK                         _______ _______ _______ _____ _____    ______ ____
ROOT
ATOM      1  C   UNL     1       1.126   8.229  19.955  0.00  0.00    +0.000 C 
ATOM      2  C   UNL     1       2.355   7.358  20.099  0.00  0.00    +0.000 C 
ATOM      3  C   UNL     1       2.270   5.898  19.786  0.00  0.00    +0.000 C 
ATOM      4  C   UNL     1       2.224   5.802  18.247  0.00  0.00    +0.000 C 
ATOM      5  C   UNL     1       2.084   7.239  17.691  0.00  0.00    +0.000 C 
ATOM      6  C   UNL     1       2.185   8.167  18.863  0.00  0.00    +0.000 C 
ENDROOT
BRANCH   4   7
ATOM      7  N   UNL     1       3.351   5.074  17.694  0.00  0.00    +0.000 N 
ATOM      8  C   UNL     1       3.345   3.743  17.362  0.00  0.00    +0.000 A 
ATOM      9  N   UNL     1       4.511   3.340  16.905  0.00  0.00    +0.000 NA
ATOM     10  C   UNL     1       5.309   4.455  16.948  0.00  0.00    +0.000 A 
ATOM     11  C   UNL     1       6.650   4.640  16.598  0.00  0.00    +0.000 A 
ATOM     12  C   UNL     1       7.185   5.919  16.772  0.00  0.00    +0.000 A 
ATOM     13  C   UNL     1       6.372   6.932  17.274  0.00  0.00    +0.000 A 
ATOM     14  N   UNL     1       5.068   6.807  17.622  0.00  0.00    +0.000 NA
ATOM     15  C   UNL     1       4.608   5.554  17.437  0.00  0.00    +0.000 A 
ENDBRANCH   4   7
BRANCH   1  16
ATOM     16  C   UNL     1       0.964   9.468  20.800  0.00  0.00    +0.000 C 
BRANCH  16  17
ATOM     17  N   UNL     1      -0.325  10.103  20.507  0.00  0.00    +0.000 N 
ATOM     18  C   UNL     1      -0.563  10.984  19.471  0.00  0.00    +0.000 C 
ATOM     19  O   UNL     1       0.282  11.352  18.663  0.00  0.00    +0.000 OA
ATOM     20  H   UNL     1      -1.110   9.761  21.042  0.00  0.00    +0.000 HD
BRANCH  18  21
ATOM     21  C   UNL     1      -1.966  11.478  19.336  0.00  0.00    +0.000 A 
ATOM     22  C   UNL     1      -2.777  11.097  18.257  0.00  0.00    +0.000 A 
ATOM     23  C   UNL     1      -4.094  11.561  18.165  0.00  0.00    +0.000 A 
ATOM     24  C   UNL     1      -4.603  12.401  19.154  0.00  0.00    +0.000 A 
ATOM     25 CL   UNL     1      -6.227  12.963  19.036  0.00  0.00    +0.000 Cl
ATOM     26  C   UNL     1      -3.814  12.779  20.235  0.00  0.00    +0.000 A 
ATOM     27  C   UNL     1      -2.497  12.315  20.331  0.00  0.00    +0.000 A 
ENDBRANCH  18  21
ENDBRANCH  16  17
BRANCH  16  29
ATOM     28  C   UNL     1      -0.058   9.481  23.167  0.00  0.00    +0.000 C 
ATOM     29  C   UNL     1       1.180   9.255  22.309  0.00  0.00    +0.000 C 
ENDBRANCH  16  29
ENDBRANCH   1  16
TORSDOF 5
ENDMDL
MODEL 5
REMARK VINA RESULT:      -7.6      1.042      1.570
REMARK  Name = 
REMARK  6 active torsions:
REMARK  status: ('A' for Active; 'I' for Inactive)
REMARK    1  A    between atoms: C_1  and  C_2
REMARK    2  A    between atoms: C_2  and  C_3
REMARK    3  A    between atoms: C_3  and  N_4
REMARK    4  A    between atoms: C_3  and  C_14
REMARK    5  A    between atoms: C_5  and  C_7
REMARK    6  A    between atoms: C_17  and  N_18
REMARK                            x       y       z     vdW  Elec       q    Type
REMARK                         _______ _______ _______ _____ _____    ______ ____
ROOT
ATOM      1  C   UNL     1       1.822  10.010  19.004  0.00  0.00    +0.000 C 
ATOM      2  C   UNL     1       1.359   8.730  18.343  0.00  0.00    +0.000 C 
ATOM      3  C   UNL     1       2.332   7.616  18.121  0.00  0.00    +0.000 C 
ATOM      4  C   UNL     1       2.553   6.972  19.505  0.00  0.00    +0.000 C 
ATOM      5  C   UNL     1       1.846   7.861  20.555  0.00  0.00    +0.000 C 
ATOM      6  C   UNL     1       1.109   8.922  19.795  0.00  0.00    +0.000 C 
ENDROOT
BRANCH   4   7
ATOM      7  N   UNL     1       2.144   5.581  19.552  0.00  0.00    +0.000 N 
ATOM      8  C   UNL     1       1.164   5.074  20.368  0.00  0.00    +0.000 A 
ATOM      9  N   UNL     1       1.018   3.775  20.220  0.00  0.00    +0.000 NA
ATOM     10  C   UNL     1       1.949   3.423  19.275  0.00  0.00    +0.000 A 
ATOM     11  C   UNL     1       2.269   2.181  18.717  0.00  0.00    +0.000 A 
ATOM     12  C   UNL     1       3.292   2.152  17.766  0.00  0.00    +0.000 A 
ATOM     13  C   UNL     1       3.931   3.340  17.422  0.00  0.00    +0.000 A 
ATOM     14  N   UNL     1       3.656   4.568  17.927  0.00  0.00    +0.000 NA
ATOM     15  C   UNL     1       2.665   4.534  18.840  0.00  0.00    +0.000 A 
ENDBRANCH   4   7
BRANCH   1  16
ATOM     16  C   UNL     1       1.134  11.318  18.702  0.00  0.00    +0.000 C 
BRANCH  16  17
ATOM     17  N   UNL     1       0.152  11.615  19.749  0.00  0.00    +0.000 N 
ATOM     18  C   UNL     1      -1.149  12.023  19.532  0.00  0.00    +0.000 C 
ATOM     19  O   UNL     1      -1.648  12.195  18.425  0.00  0.00    +0.000 OA
ATOM     20  H   UNL     1       0.434  11.379  20.690  0.00  0.00    +0.000 HD
BRANCH  18  21
ATOM     21  C   UNL     1      -1.987  12.229  20.750  0.00  0.00    +0.000 A 
ATOM     22  C   UNL     1      -3.277  12.775  20.670  0.00  0.00    +0.000 A 
ATOM     23  C   UNL     1      -4.046  12.941  21.827  0.00  0.00    +0.000 A 
ATOM     24  C   UNL     1      -3.531  12.553  23.063  0.00  0.00    +0.000 A 
ATOM     25 CL   UNL     1      -4.488  12.755  24.481  0.00  0.00    +0.000 Cl
ATOM     26  C   UNL     1      -2.258  12.000  23.157  0.00  0.00    +0.000 A 
ATOM     27  C   UNL     1      -1.486  11.832  22.001  0.00  0.00    +0.000 A 
ENDBRANCH  18  21
ENDBRANCH  16  17
BRANCH  16  29
ATOM     28  C   UNL     1       2.411  13.341  19.664  0.00  0.00    +0.000 C 
ATOM     29  C   UNL     1       2.081  12.501  18.436  0.00  0.00    +0.000 C 
ENDBRANCH  16  29
ENDBRANCH   1  16
TORSDOF 5
ENDMDL
MODEL 6
REMARK VINA RESULT:      -7.5      4.088      6.401
REMARK  Name = 
REMARK  6 active torsions:
REMARK  status: ('A' for Active; 'I' for Inactive)
REMARK    1  A    between atoms: C_1  and  C_2
REMARK    2  A    between atoms: C_2  and  C_3
REMARK    3  A    between atoms: C_3  and  N_4
REMARK    4  A    between atoms: C_3  and  C_14
REMARK    5  A    between atoms: C_5  and  C_7
REMARK    6  A    between atoms: C_17  and  N_18
REMARK                            x       y       z     vdW  Elec       q    Type
REMARK                         _______ _______ _______ _____ _____    ______ ____
ROOT
ATOM      1  C   UNL     1       3.125   5.298  19.002  0.00  0.00    +0.000 C 
ATOM      2  C   UNL     1       4.124   4.372  18.341  0.00  0.00    +0.000 C 
ATOM      3  C   UNL     1       4.005   4.073  16.880  0.00  0.00    +0.000 C 
ATOM      4  C   UNL     1       4.502   5.339  16.153  0.00  0.00    +0.000 C 
ATOM      5  C   UNL     1       4.720   6.439  17.218  0.00  0.00    +0.000 C 
ATOM      6  C   UNL     1       4.492   5.797  18.553  0.00  0.00    +0.000 C 
ENDROOT
BRANCH   4   7
ATOM      7  N   UNL     1       5.670   5.093  15.327  0.00  0.00    +0.000 N 
ATOM      8  C   UNL     1       6.944   5.508  15.618  0.00  0.00    +0.000 A 
ATOM      9  N   UNL     1       7.803   5.168  14.681  0.00  0.00    +0.000 NA
ATOM     10  C   UNL     1       7.052   4.512  13.739  0.00  0.00    +0.000 A 
ATOM     11  C   UNL     1       7.412   3.931  12.518  0.00  0.00    +0.000 A 
ATOM     12  C   UNL     1       6.393   3.337  11.769  0.00  0.00    +0.000 A 
ATOM     13  C   UNL     1       5.092   3.347  12.265  0.00  0.00    +0.000 A 
ATOM     14  N   UNL     1       4.693   3.889  13.442  0.00  0.00    +0.000 NA
ATOM     15  C   UNL     1       5.715   4.450  14.119  0.00  0.00    +0.000 A 
ENDBRANCH   4   7
BRANCH   1  16
ATOM     16  C   UNL     1       2.802   5.152  20.467  0.00  0.00    +0.000 C 
BRANCH  16  17
ATOM     17  N   UNL     1       2.102   6.350  20.943  0.00  0.00    +0.000 N 
ATOM     18  C   UNL     1       1.798   7.455  20.174  0.00  0.00    +0.000 C 
ATOM     19  O   UNL     1       2.082   7.576  18.987  0.00  0.00    +0.000 OA
ATOM     20  H   UNL     1       1.717   6.287  21.874  0.00  0.00    +0.000 HD
BRANCH  18  21
ATOM     21  C   UNL     1       1.042   8.546  20.857  0.00  0.00    +0.000 A 
ATOM     22  C   UNL     1       0.336   8.316  22.047  0.00  0.00    +0.000 A 
ATOM     23  C   UNL     1      -0.350   9.361  22.675  0.00  0.00    +0.000 A 
ATOM     24  C   UNL     1      -0.325  10.639  22.118  0.00  0.00    +0.000 A 
ATOM     25 CL   UNL     1      -1.168  11.922  22.900  0.00  0.00    +0.000 Cl
ATOM     26  C   UNL     1       0.378  10.885  20.944  0.00  0.00    +0.000 A 
ATOM     27  C   UNL     1       1.067   9.841  20.314  0.00  0.00    +0.000 A 
ENDBRANCH  18  21
ENDBRANCH  16  17
BRANCH  16  29
ATOM     28  C   UNL     1       0.828   3.561  19.998  0.00  0.00    +0.000 C 
ATOM     29  C   UNL     1       2.062   3.856  20.842  0.00  0.00    +0.000 C 
ENDBRANCH  16  29
ENDBRANCH   1  16
TORSDOF 5
ENDMDL
MODEL 7
REMARK VINA RESULT:      -7.5      5.256      9.744
REMARK  Name = 
REMARK  6 active torsions:
REMARK  status: ('A' for Active; 'I' for Inactive)
REMARK    1  A    between atoms: C_1  and  C_2
REMARK    2  A    between atoms: C_2  and  C_3
REMARK    3  A    between atoms: C_3  and  N_4
REMARK    4  A    between atoms: C_3  and  C_14
REMARK    5  A    between atoms: C_5  and  C_7
REMARK    6  A    between atoms: C_17  and  N_18
REMARK                            x       y       z     vdW  Elec       q    Type
REMARK                         _______ _______ _______ _____ _____    ______ ____
ROOT
ATOM      1  C   UNL     1       3.061   4.895  18.995  0.00  0.00    +0.000 C 
ATOM      2  C   UNL     1       1.707   5.453  19.376  0.00  0.00    +0.000 C 
ATOM      3  C   UNL     1       1.586   6.372  20.550  0.00  0.00    +0.000 C 
ATOM      4  C   UNL     1       2.155   7.727  20.080  0.00  0.00    +0.000 C 
ATOM      5  C   UNL     1       2.785   7.513  18.683  0.00  0.00    +0.000 C 
ATOM      6  C   UNL     1       2.472   6.103  18.281  0.00  0.00    +0.000 C 
ENDROOT
BRANCH   4   7
ATOM      7  N   UNL     1       1.172   8.794  20.115  0.00  0.00    +0.000 N 
ATOM      8  C   UNL     1       0.731   9.498  19.024  0.00  0.00    +0.000 A 
ATOM      9  N   UNL     1      -0.143  10.424  19.351  0.00  0.00    +0.000 NA
ATOM     10  C   UNL     1      -0.269  10.322  20.713  0.00  0.00    +0.000 A 
ATOM     11  C   UNL     1      -1.046  11.049  21.621  0.00  0.00    +0.000 A 
ATOM     12  C   UNL     1      -0.942  10.702  22.971  0.00  0.00    +0.000 A 
ATOM     13  C   UNL     1      -0.088   9.666  23.341  0.00  0.00    +0.000 A 
ATOM     14  N   UNL     1       0.680   8.929  22.502  0.00  0.00    +0.000 NA
ATOM     15  C   UNL     1       0.541   9.310  21.216  0.00  0.00    +0.000 A 
ENDBRANCH   4   7
BRANCH   1  16
ATOM     16  C   UNL     1       3.171   3.564  18.295  0.00  0.00    +0.000 C 
BRANCH  16  17
ATOM     17  N   UNL     1       3.912   3.724  17.040  0.00  0.00    +0.000 N 
ATOM     18  C   UNL     1       5.208   4.185  16.930  0.00  0.00    +0.000 C 
ATOM     19  O   UNL     1       5.907   4.526  17.879  0.00  0.00    +0.000 OA
ATOM     20  H   UNL     1       3.462   3.346  16.218  0.00  0.00    +0.000 HD
BRANCH  18  21
ATOM     21  C   UNL     1       5.780   4.226  15.552  0.00  0.00    +0.000 A 
ATOM     22  C   UNL     1       5.157   3.572  14.479  0.00  0.00    +0.000 A 
ATOM     23  C   UNL     1       5.706   3.642  13.194  0.00  0.00    +0.000 A 
ATOM     24  C   UNL     1       6.874   4.371  12.978  0.00  0.00    +0.000 A 
ATOM     25 CL   UNL     1       7.540   4.457  11.392  0.00  0.00    +0.000 Cl
ATOM     26  C   UNL     1       7.498   5.034  14.030  0.00  0.00    +0.000 A 
ATOM     27  C   UNL     1       6.950   4.967  15.317  0.00  0.00    +0.000 A 
ENDBRANCH  18  21
ENDBRANCH  16  17
BRANCH  16  29
ATOM     28  C   UNL     1       3.572   2.625  20.662  0.00  0.00    +0.000 C 
ATOM     29  C   UNL     1       3.727   2.420  19.161  0.00  0.00    +0.000 C 
ENDBRANCH  16  29
ENDBRANCH   1  16
TORSDOF 5
ENDMDL
MODEL 8
REMARK VINA RESULT:      -7.5      4.437      9.624
REMARK  Name = 
REMARK  6 active torsions:
REMARK  status: ('A' for Active; 'I' for Inactive)
REMARK    1  A    between atoms: C_1  and  C_2
REMARK    2  A    between atoms: C_2  and  C_3
REMARK    3  A    between atoms: C_3  and  N_4
REMARK    4  A    between atoms: C_3  and  C_14
REMARK    5  A    between atoms: C_5  and  C_7
REMARK    6  A    between atoms: C_17  and  N_18
REMARK                            x       y       z     vdW  Elec       q    Type
REMARK                         _______ _______ _______ _____ _____    ______ ____
ROOT
ATOM      1  C   UNL     1       1.869   7.497  20.296  0.00  0.00    +0.000 C 
ATOM      2  C   UNL     1       1.036   7.910  21.490  0.00  0.00    +0.000 C 
ATOM      3  C   UNL     1       1.402   9.137  22.263  0.00  0.00    +0.000 C 
ATOM      4  C   UNL     1       0.967  10.328  21.385  0.00  0.00    +0.000 C 
ATOM      5  C   UNL     1       0.528   9.765  20.013  0.00  0.00    +0.000 C 
ATOM      6  C   UNL     1       0.570   8.272  20.126  0.00  0.00    +0.000 C 
ENDROOT
BRANCH   4   7
ATOM      7  N   UNL     1      -0.039  11.159  22.020  0.00  0.00    +0.000 N 
ATOM      8  C   UNL     1      -1.033  10.701  22.848  0.00  0.00    +0.000 A 
ATOM      9  N   UNL     1      -1.819  11.671  23.262  0.00  0.00    +0.000 NA
ATOM     10  C   UNL     1      -1.320  12.804  22.671  0.00  0.00    +0.000 A 
ATOM     11  C   UNL     1      -1.744  14.136  22.731  0.00  0.00    +0.000 A 
ATOM     12  C   UNL     1      -1.015  15.072  21.994  0.00  0.00    +0.000 A 
ATOM     13  C   UNL     1       0.082  14.644  21.250  0.00  0.00    +0.000 A 
ATOM     14  N   UNL     1       0.537  13.370  21.163  0.00  0.00    +0.000 NA
ATOM     15  C   UNL     1      -0.206  12.512  21.891  0.00  0.00    +0.000 A 
ENDBRANCH   4   7
BRANCH   1  16
ATOM     16  C   UNL     1       1.960   6.047  19.892  0.00  0.00    +0.000 C 
BRANCH  16  17
ATOM     17  N   UNL     1       3.011   5.878  18.884  0.00  0.00    +0.000 N 
ATOM     18  C   UNL     1       3.006   4.938  17.873  0.00  0.00    +0.000 C 
ATOM     19  O   UNL     1       2.114   4.116  17.694  0.00  0.00    +0.000 OA
ATOM     20  H   UNL     1       3.724   6.594  18.875  0.00  0.00    +0.000 HD
BRANCH  18  21
ATOM     21  C   UNL     1       4.165   4.975  16.933  0.00  0.00    +0.000 A 
ATOM     22  C   UNL     1       4.654   3.810  16.324  0.00  0.00    +0.000 A 
ATOM     23  C   UNL     1       5.731   3.877  15.433  0.00  0.00    +0.000 A 
ATOM     24  C   UNL     1       6.315   5.110  15.144  0.00  0.00    +0.000 A 
ATOM     25 CL   UNL     1       7.636   5.184  14.041  0.00  0.00    +0.000 Cl
ATOM     26  C   UNL     1       5.834   6.275  15.731  0.00  0.00    +0.000 A 
ATOM     27  C   UNL     1       4.756   6.211  16.622  0.00  0.00    +0.000 A 
ENDBRANCH  18  21
ENDBRANCH  16  17
BRANCH  16  29
ATOM     28  C   UNL     1       1.297   3.774  20.911  0.00  0.00    +0.000 C 
ATOM     29  C   UNL     1       2.105   5.056  21.060  0.00  0.00    +0.000 C 
ENDBRANCH  16  29
ENDBRANCH   1  16
TORSDOF 5
ENDMDL
MODEL 9
REMARK VINA RESULT:      -7.5      1.124      1.459
REMARK  Name = 
REMARK  6 active torsions:
REMARK  status: ('A' for Active; 'I' for Inactive)
REMARK    1  A    between atoms: C_1  and  C_2
REMARK    2  A    between atoms: C_2  and  C_3
REMARK    3  A    between atoms: C_3  and  N_4
REMARK    4  A    between atoms: C_3  and  C_14
REMARK    5  A    between atoms: C_5  and  C_7
REMARK    6  A    between atoms: C_17  and  N_18
REMARK                            x       y       z     vdW  Elec       q    Type
REMARK                         _______ _______ _______ _____ _____    ______ ____
ROOT
ATOM      1  C   UNL     1       2.046  10.001  18.761  0.00  0.00    +0.000 C 
ATOM      2  C   UNL     1       1.778   8.892  17.767  0.00  0.00    +0.000 C 
ATOM      3  C   UNL     1       2.830   7.863  17.502  0.00  0.00    +0.000 C 
ATOM      4  C   UNL     1       2.827   6.935  18.734  0.00  0.00    +0.000 C 
ATOM      5  C   UNL     1       1.896   7.566  19.795  0.00  0.00    +0.000 C 
ATOM      6  C   UNL     1       1.257   8.760  19.153  0.00  0.00    +0.000 C 
ENDROOT
BRANCH   4   7
ATOM      7  N   UNL     1       2.487   5.563  18.406  0.00  0.00    +0.000 N 
ATOM      8  C   UNL     1       1.389   5.173  17.681  0.00  0.00    +0.000 A 
ATOM      9  N   UNL     1       1.315   3.866  17.557  0.00  0.00    +0.000 NA
ATOM     10  C   UNL     1       2.406   3.387  18.236  0.00  0.00    +0.000 A 
ATOM     11  C   UNL     1       2.850   2.079  18.458  0.00  0.00    +0.000 A 
ATOM     12  C   UNL     1       4.015   1.919  19.213  0.00  0.00    +0.000 A 
ATOM     13  C   UNL     1       4.669   3.048  19.698  0.00  0.00    +0.000 A 
ATOM     14  N   UNL     1       4.285   4.334  19.506  0.00  0.00    +0.000 NA
ATOM     15  C   UNL     1       3.156   4.427  18.776  0.00  0.00    +0.000 A 
ENDBRANCH   4   7
BRANCH   1  16
ATOM     16  C   UNL     1       1.360  11.337  18.619  0.00  0.00    +0.000 C 
BRANCH  16  17
ATOM     17  N   UNL     1       0.410  11.525  19.720  0.00  0.00    +0.000 N 
ATOM     18  C   UNL     1      -0.847  12.085  19.603  0.00  0.00    +0.000 C 
ATOM     19  O   UNL     1      -1.328  12.502  18.555  0.00  0.00    +0.000 OA
ATOM     20  H   UNL     1       0.669  11.095  20.596  0.00  0.00    +0.000 HD
BRANCH  18  21
ATOM     21  C   UNL     1      -1.662  12.139  20.853  0.00  0.00    +0.000 A 
ATOM     22  C   UNL     1      -1.178  11.636  22.069  0.00  0.00    +0.000 A 
ATOM     23  C   UNL     1      -1.958  11.716  23.227  0.00  0.00    +0.000 A 
ATOM     24  C   UNL     1      -3.220  12.305  23.173  0.00  0.00    +0.000 A 
ATOM     25 CL   UNL     1      -4.171  12.405  24.606  0.00  0.00    +0.000 Cl
ATOM     26  C   UNL     1      -3.711  12.817  21.977  0.00  0.00    +0.000 A 
ATOM     27  C   UNL     1      -2.932  12.740  20.816  0.00  0.00    +0.000 A 
ENDBRANCH  18  21
ENDBRANCH  16  17
BRANCH  16  29
ATOM     28  C   UNL     1       2.492  13.381  19.708  0.00  0.00    +0.000 C 
ATOM     29  C   UNL     1       2.308  12.538  18.453  0.00  0.00    +0.000 C 
ENDBRANCH  16  29
ENDBRANCH   1  16
TORSDOF 5
ENDMDL
