MODEL 1
REMARK VINA RESULT:      -7.3      0.000      0.000
REMARK  Name = 
REMARK  7 active torsions:
REMARK  status: ('A' for Active; 'I' for Inactive)
REMARK    1  A    between atoms: C_1  and  N_2
REMARK    2  A    between atoms: N_2  and  C_3
REMARK    3  A    between atoms: N_2  and  C_4
REMARK    4  A    between atoms: C_7  and  C_8
REMARK    5  A    between atoms: C_10  and  C_11
REMARK    6  A    between atoms: C_11  and  N_12
REMARK    7  A    between atoms: N_15  and  C_16
REMARK                            x       y       z     vdW  Elec       q    Type
REMARK                         _______ _______ _______ _____ _____    ______ ____
ROOT
ATOM      1  N   UNL     1       0.249   8.740  21.026  0.00  0.00    +0.000 NA
ATOM      2  C   UNL     1      -0.386   8.640  22.344  0.00  0.00    +0.000 C 
ATOM      3  C   UNL     1      -0.694   9.926  23.155  0.00  0.00    +0.000 C 
ATOM      4  N   UNL     1      -1.107  11.082  22.334  0.00  0.00    +0.000 N 
ATOM      5  C   UNL     1      -0.369  11.277  21.080  0.00  0.00    +0.000 C 
ATOM      6  C   UNL     1      -0.119   9.962  20.302  0.00  0.00    +0.000 C 
ENDROOT
BRANCH   4   7
ATOM      7  C   UNL     1      -1.663  12.190  22.994  0.00  0.00    +0.000 A 
ATOM      8  C   UNL     1      -1.011  13.430  23.151  0.00  0.00    +0.000 A 
ATOM      9  C   UNL     1      -1.643  14.537  23.753  0.00  0.00    +0.000 A 
ATOM     10  C   UNL     1      -2.949  14.428  24.210  0.00  0.00    +0.000 A 
ATOM     11 CL   UNL     1      -3.739  15.775  24.936  0.00  0.00    +0.000 Cl
ATOM     12  C   UNL     1      -3.625  13.227  24.070  0.00  0.00    +0.000 A 
ATOM     13  C   UNL     1      -2.983  12.131  23.473  0.00  0.00    +0.000 A 
ENDBRANCH   4   7
BRANCH   1  14
ATOM     14  C   UNL     1       1.650   8.333  21.006  0.00  0.00    +0.000 C 
BRANCH  14  19
ATOM     15  C   UNL     1       2.295   4.756  19.771  0.00  0.00    +0.000 A 
ATOM     16  C   UNL     1       2.708   5.019  18.457  0.00  0.00    +0.000 A 
ATOM     17  C   UNL     1       2.675   6.315  17.907  0.00  0.00    +0.000 A 
ATOM     18  C   UNL     1       2.279   7.416  18.675  0.00  0.00    +0.000 A 
ATOM     19  C   UNL     1       1.937   7.204  20.022  0.00  0.00    +0.000 A 
ATOM     20  C   UNL     1       1.933   5.887  20.524  0.00  0.00    +0.000 A 
BRANCH  15  22
ATOM     21  C   UNL     1       1.450   3.181  21.490  0.00  0.00    +0.000 C 
ATOM     22  N   UNL     1       2.288   3.480  20.335  0.00  0.00    +0.000 N 
ATOM     23  C   UNL     1       3.492   2.657  20.190  0.00  0.00    +0.000 C 
ENDBRANCH  15  22
BRANCH  18  24
ATOM     24  C   UNL     1       2.230   8.721  18.050  0.00  0.00    +0.000 C 
ATOM     25  N   UNL     1       2.157   9.741  17.515  0.00  0.00    +0.000 NA
ENDBRANCH  18  24
ENDBRANCH  14  19
ENDBRANCH   1  14
TORSDOF 5
ENDMDL
MODEL 2
REMARK VINA RESULT:      -7.2      0.316      1.186
REMARK  Name = 
REMARK  7 active torsions:
REMARK  status: ('A' for Active; 'I' for Inactive)
REMARK    1  A    between atoms: C_1  and  N_2
REMARK    2  A    between atoms: N_2  and  C_3
REMARK    3  A    between atoms: N_2  and  C_4
REMARK    4  A    between atoms: C_7  and  C_8
REMARK    5  A    between atoms: C_10  and  C_11
REMARK    6  A    between atoms: C_11  and  N_12
REMARK    7  A    between atoms: N_15  and  C_16
REMARK                            x       y       z     vdW  Elec       q    Type
REMARK                         _______ _______ _______ _____ _____    ______ ____
ROOT
ATOM      1  N   UNL     1       0.185   8.846  21.030  0.00  0.00    +0.000 NA
ATOM      2  C   UNL     1      -0.404   8.763  22.371  0.00  0.00    +0.000 C 
ATOM      3  C   UNL     1      -0.742  10.061  23.150  0.00  0.00    +0.000 C 
ATOM      4  N   UNL     1      -1.231  11.170  22.307  0.00  0.00    +0.000 N 
ATOM      5  C   UNL     1      -0.541  11.356  21.024  0.00  0.00    +0.000 C 
ATOM      6  C   UNL     1      -0.259  10.027  20.280  0.00  0.00    +0.000 C 
ENDROOT
BRANCH   4   7
ATOM      7  C   UNL     1      -1.814  12.275  22.949  0.00  0.00    +0.000 A 
ATOM      8  C   UNL     1      -3.110  12.280  23.501  0.00  0.00    +0.000 A 
ATOM      9  C   UNL     1      -3.620  13.390  24.205  0.00  0.00    +0.000 A 
ATOM     10  C   UNL     1      -2.839  14.523  24.376  0.00  0.00    +0.000 A 
ATOM     11 CL   UNL     1      -3.443  15.882  25.245  0.00  0.00    +0.000 Cl
ATOM     12  C   UNL     1      -1.557  14.556  23.851  0.00  0.00    +0.000 A 
ATOM     13  C   UNL     1      -1.063  13.447  23.149  0.00  0.00    +0.000 A 
ENDBRANCH   4   7
BRANCH   1  14
ATOM     14  C   UNL     1       1.601   8.499  20.977  0.00  0.00    +0.000 C 
BRANCH  14  19
ATOM     15  C   UNL     1       2.266   4.908  19.796  0.00  0.00    +0.000 A 
ATOM     16  C   UNL     1       2.709   5.156  18.488  0.00  0.00    +0.000 A 
ATOM     17  C   UNL     1       2.691   6.446  17.924  0.00  0.00    +0.000 A 
ATOM     18  C   UNL     1       2.280   7.556  18.671  0.00  0.00    +0.000 A 
ATOM     19  C   UNL     1       1.908   7.359  20.013  0.00  0.00    +0.000 A 
ATOM     20  C   UNL     1       1.890   6.048  20.529  0.00  0.00    +0.000 A 
BRANCH  15  22
ATOM     21  C   UNL     1       3.462   2.838  20.457  0.00  0.00    +0.000 C 
ATOM     22  N   UNL     1       2.245   3.638  20.374  0.00  0.00    +0.000 N 
ATOM     23  C   UNL     1       0.988   2.886  20.338  0.00  0.00    +0.000 C 
ENDBRANCH  15  22
BRANCH  18  24
ATOM     24  C   UNL     1       2.247   8.854  18.031  0.00  0.00    +0.000 C 
ATOM     25  N   UNL     1       2.265   9.903  17.548  0.00  0.00    +0.000 NA
ENDBRANCH  18  24
ENDBRANCH  14  19
ENDBRANCH   1  14
TORSDOF 5
ENDMDL
MODEL 3
REMARK VINA RESULT:      -7.0      2.506      4.410
REMARK  Name = 
REMARK  7 active torsions:
REMARK  status: ('A' for Active; 'I' for Inactive)
REMARK    1  A    between atoms: C_1  and  N_2
REMARK    2  A    between atoms: N_2  and  C_3
REMARK    3  A    between atoms: N_2  and  C_4
REMARK    4  A    between atoms: C_7  and  C_8
REMARK    5  A    between atoms: C_10  and  C_11
REMARK    6  A    between atoms: C_11  and  N_12
REMARK    7  A    between atoms: N_15  and  C_16
REMARK                            x       y       z     vdW  Elec       q    Type
REMARK                         _______ _______ _______ _____ _____    ______ ____
ROOT
ATOM      1  N   UNL     1       2.375   7.372  18.912  0.00  0.00    +0.000 NA
ATOM      2  C   UNL     1       2.036   8.690  18.364  0.00  0.00    +0.000 C 
ATOM      3  C   UNL     1       0.934   9.548  19.038  0.00  0.00    +0.000 C 
ATOM      4  N   UNL     1       0.889   9.439  20.510  0.00  0.00    +0.000 N 
ATOM      5  C   UNL     1       1.076   8.092  21.061  0.00  0.00    +0.000 C 
ATOM      6  C   UNL     1       2.209   7.296  20.368  0.00  0.00    +0.000 C 
ENDROOT
BRANCH   4   7
ATOM      7  C   UNL     1       0.117  10.378  21.214  0.00  0.00    +0.000 A 
ATOM      8  C   UNL     1      -0.238  11.648  20.716  0.00  0.00    +0.000 A 
ATOM      9  C   UNL     1      -1.082  12.523  21.431  0.00  0.00    +0.000 A 
ATOM     10  C   UNL     1      -1.593  12.143  22.664  0.00  0.00    +0.000 A 
ATOM     11 CL   UNL     1      -2.635  13.196  23.542  0.00  0.00    +0.000 Cl
ATOM     12  C   UNL     1      -1.270  10.902  23.185  0.00  0.00    +0.000 A 
ATOM     13  C   UNL     1      -0.426  10.041  22.466  0.00  0.00    +0.000 A 
ENDBRANCH   4   7
BRANCH   1  14
ATOM     14  C   UNL     1       1.893   6.250  18.113  0.00  0.00    +0.000 C 
BRANCH  14  19
ATOM     15  C   UNL     1       5.238   4.967  16.737  0.00  0.00    +0.000 A 
ATOM     16  C   UNL     1       5.006   3.584  16.772  0.00  0.00    +0.000 A 
ATOM     17  C   UNL     1       3.840   3.035  17.339  0.00  0.00    +0.000 A 
ATOM     18  C   UNL     1       2.827   3.858  17.845  0.00  0.00    +0.000 A 
ATOM     19  C   UNL     1       2.987   5.252  17.752  0.00  0.00    +0.000 A 
ATOM     20  C   UNL     1       4.189   5.765  17.225  0.00  0.00    +0.000 A 
BRANCH  15  22
ATOM     21  C   UNL     1       7.117   4.889  15.120  0.00  0.00    +0.000 C 
ATOM     22  N   UNL     1       6.396   5.540  16.208  0.00  0.00    +0.000 N 
ATOM     23  C   UNL     1       7.198   6.403  17.079  0.00  0.00    +0.000 C 
ENDBRANCH  15  22
BRANCH  18  24
ATOM     24  C   UNL     1       1.665   3.241  18.450  0.00  0.00    +0.000 C 
ATOM     25  N   UNL     1       0.712   2.796  18.926  0.00  0.00    +0.000 NA
ENDBRANCH  18  24
ENDBRANCH  14  19
ENDBRANCH   1  14
TORSDOF 5
ENDMDL
MODEL 4
REMARK VINA RESULT:      -6.9      2.437      4.311
REMARK  Name = 
REMARK  7 active torsions:
REMARK  status: ('A' for Active; 'I' for Inactive)
REMARK    1  A    between atoms: C_1  and  N_2
REMARK    2  A    between atoms: N_2  and  C_3
REMARK    3  A    between atoms: N_2  and  C_4
REMARK    4  A    between atoms: C_7  and  C_8
REMARK    5  A    between atoms: C_10  and  C_11
REMARK    6  A    between atoms: C_11  and  N_12
REMARK    7  A    between atoms: N_15  and  C_16
REMARK                            x       y       z     vdW  Elec       q    Type
REMARK                         _______ _______ _______ _____ _____    ______ ____
ROOT
ATOM      1  N   UNL     1       2.269   7.636  18.911  0.00  0.00    +0.000 NA
ATOM      2  C   UNL     1       1.884   8.959  18.409  0.00  0.00    +0.000 C 
ATOM      3  C   UNL     1       0.683   9.709  19.043  0.00  0.00    +0.000 C 
ATOM      4  N   UNL     1       0.542   9.515  20.500  0.00  0.00    +0.000 N 
ATOM      5  C   UNL     1       0.777   8.152  20.993  0.00  0.00    +0.000 C 
ATOM      6  C   UNL     1       2.006   7.468  20.345  0.00  0.00    +0.000 C 
ENDROOT
BRANCH   4   7
ATOM      7  C   UNL     1      -0.338  10.363  21.193  0.00  0.00    +0.000 A 
ATOM      8  C   UNL     1      -0.574  10.299  22.581  0.00  0.00    +0.000 A 
ATOM      9  C   UNL     1      -1.408  11.224  23.241  0.00  0.00    +0.000 A 
ATOM     10  C   UNL     1      -2.023  12.241  22.525  0.00  0.00    +0.000 A 
ATOM     11 CL   UNL     1      -3.034  13.387  23.320  0.00  0.00    +0.000 Cl
ATOM     12  C   UNL     1      -1.813  12.339  21.159  0.00  0.00    +0.000 A 
ATOM     13  C   UNL     1      -0.985  11.409  20.512  0.00  0.00    +0.000 A 
ENDBRANCH   4   7
BRANCH   1  14
ATOM     14  C   UNL     1       1.919   6.534  18.021  0.00  0.00    +0.000 C 
BRANCH  14  19
ATOM     15  C   UNL     1       5.315   5.115  16.937  0.00  0.00    +0.000 A 
ATOM     16  C   UNL     1       5.111   3.753  17.202  0.00  0.00    +0.000 A 
ATOM     17  C   UNL     1       3.945   3.281  17.836  0.00  0.00    +0.000 A 
ATOM     18  C   UNL     1       2.905   4.153  18.179  0.00  0.00    +0.000 A 
ATOM     19  C   UNL     1       3.039   5.515  17.853  0.00  0.00    +0.000 A 
ATOM     20  C   UNL     1       4.241   5.959  17.266  0.00  0.00    +0.000 A 
BRANCH  15  22
ATOM     21  C   UNL     1       7.132   4.881  15.264  0.00  0.00    +0.000 C 
ATOM     22  N   UNL     1       6.472   5.616  16.337  0.00  0.00    +0.000 N 
ATOM     23  C   UNL     1       7.332   6.497  17.130  0.00  0.00    +0.000 C 
ENDBRANCH  15  22
BRANCH  18  24
ATOM     24  C   UNL     1       1.744   3.621  18.860  0.00  0.00    +0.000 C 
ATOM     25  N   UNL     1       0.833   3.146  19.388  0.00  0.00    +0.000 NA
ENDBRANCH  18  24
ENDBRANCH  14  19
ENDBRANCH   1  14
TORSDOF 5
ENDMDL
MODEL 5
REMARK VINA RESULT:      -6.8      2.547      4.209
REMARK  Name = 
REMARK  7 active torsions:
REMARK  status: ('A' for Active; 'I' for Inactive)
REMARK    1  A    between atoms: C_1  and  N_2
REMARK    2  A    between atoms: N_2  and  C_3
REMARK    3  A    between atoms: N_2  and  C_4
REMARK    4  A    between atoms: C_7  and  C_8
REMARK    5  A    between atoms: C_10  and  C_11
REMARK    6  A    between atoms: C_11  and  N_12
REMARK    7  A    between atoms: N_15  and  C_16
REMARK                            x       y       z     vdW  Elec       q    Type
REMARK                         _______ _______ _______ _____ _____    ______ ____
ROOT
ATOM      1  N   UNL     1       2.355   7.923  18.879  0.00  0.00    +0.000 NA
ATOM      2  C   UNL     1       2.003   9.186  18.221  0.00  0.00    +0.000 C 
ATOM      3  C   UNL     1       0.744   9.971  18.673  0.00  0.00    +0.000 C 
ATOM      4  N   UNL     1       0.477   9.913  20.125  0.00  0.00    +0.000 N 
ATOM      5  C   UNL     1       0.682   8.607  20.765  0.00  0.00    +0.000 C 
ATOM      6  C   UNL     1       1.969   7.887  20.294  0.00  0.00    +0.000 C 
ENDROOT
BRANCH   4   7
ATOM      7  C   UNL     1      -0.468  10.807  20.655  0.00  0.00    +0.000 A 
ATOM      8  C   UNL     1      -1.379  11.550  19.879  0.00  0.00    +0.000 A 
ATOM      9  C   UNL     1      -2.361  12.376  20.464  0.00  0.00    +0.000 A 
ATOM     10  C   UNL     1      -2.455  12.472  21.845  0.00  0.00    +0.000 A 
ATOM     11 CL   UNL     1      -3.658  13.466  22.575  0.00  0.00    +0.000 Cl
ATOM     12  C   UNL     1      -1.579  11.754  22.642  0.00  0.00    +0.000 A 
ATOM     13  C   UNL     1      -0.603  10.939  22.048  0.00  0.00    +0.000 A 
ENDBRANCH   4   7
BRANCH   1  14
ATOM     14  C   UNL     1       2.095   6.736  18.071  0.00  0.00    +0.000 C 
BRANCH  14  19
ATOM     15  C   UNL     1       5.750   5.578  17.910  0.00  0.00    +0.000 A 
ATOM     16  C   UNL     1       5.566   4.211  17.657  0.00  0.00    +0.000 A 
ATOM     17  C   UNL     1       4.289   3.616  17.652  0.00  0.00    +0.000 A 
ATOM     18  C   UNL     1       3.134   4.384  17.844  0.00  0.00    +0.000 A 
ATOM     19  C   UNL     1       3.274   5.772  18.018  0.00  0.00    +0.000 A 
ATOM     20  C   UNL     1       4.569   6.324  18.068  0.00  0.00    +0.000 A 
BRANCH  15  22
ATOM     21  C   UNL     1       7.933   5.913  19.039  0.00  0.00    +0.000 C 
ATOM     22  N   UNL     1       7.003   6.191  17.950  0.00  0.00    +0.000 N 
ATOM     23  C   UNL     1       7.153   7.496  17.301  0.00  0.00    +0.000 C 
ENDBRANCH  15  22
BRANCH  18  24
ATOM     24  C   UNL     1       1.849   3.716  17.865  0.00  0.00    +0.000 C 
ATOM     25  N   UNL     1       0.847   3.145  17.912  0.00  0.00    +0.000 NA
ENDBRANCH  18  24
ENDBRANCH  14  19
ENDBRANCH   1  14
TORSDOF 5
ENDMDL
MODEL 6
REMARK VINA RESULT:      -6.8      2.284      3.482
REMARK  Name = 
REMARK  7 active torsions:
REMARK  status: ('A' for Active; 'I' for Inactive)
REMARK    1  A    between atoms: C_1  and  N_2
REMARK    2  A    between atoms: N_2  and  C_3
REMARK    3  A    between atoms: N_2  and  C_4
REMARK    4  A    between atoms: C_7  and  C_8
REMARK    5  A    between atoms: C_10  and  C_11
REMARK    6  A    between atoms: C_11  and  N_12
REMARK    7  A    between atoms: N_15  and  C_16
REMARK                            x       y       z     vdW  Elec       q    Type
REMARK                         _______ _______ _______ _____ _____    ______ ____
ROOT
ATOM      1  N   UNL     1       2.274   7.759  18.230  0.00  0.00    +0.000 NA
ATOM      2  C   UNL     1       2.001   7.451  19.638  0.00  0.00    +0.000 C 
ATOM      3  C   UNL     1       1.538   8.576  20.601  0.00  0.00    +0.000 C 
ATOM      4  N   UNL     1       0.649   9.581  19.984  0.00  0.00    +0.000 N 
ATOM      5  C   UNL     1       1.006  10.008  18.626  0.00  0.00    +0.000 C 
ATOM      6  C   UNL     1       1.431   8.838  17.705  0.00  0.00    +0.000 C 
ENDROOT
BRANCH   4   7
ATOM      7  C   UNL     1      -0.031  10.467  20.836  0.00  0.00    +0.000 A 
ATOM      8  C   UNL     1      -0.514  11.731  20.445  0.00  0.00    +0.000 A 
ATOM      9  C   UNL     1      -1.259  12.551  21.317  0.00  0.00    +0.000 A 
ATOM     10  C   UNL     1      -1.542  12.118  22.605  0.00  0.00    +0.000 A 
ATOM     11 CL   UNL     1      -2.462  13.103  23.678  0.00  0.00    +0.000 Cl
ATOM     12  C   UNL     1      -1.087  10.880  23.026  0.00  0.00    +0.000 A 
ATOM     13  C   UNL     1      -0.342  10.075  22.150  0.00  0.00    +0.000 A 
ENDBRANCH   4   7
BRANCH   1  14
ATOM     14  C   UNL     1       3.692   7.774  17.887  0.00  0.00    +0.000 C 
BRANCH  14  19
ATOM     15  C   UNL     1       3.814   3.941  17.745  0.00  0.00    +0.000 A 
ATOM     16  C   UNL     1       5.199   3.740  17.653  0.00  0.00    +0.000 A 
ATOM     17  C   UNL     1       6.103   4.812  17.515  0.00  0.00    +0.000 A 
ATOM     18  C   UNL     1       5.656   6.138  17.522  0.00  0.00    +0.000 A 
ATOM     19  C   UNL     1       4.283   6.382  17.696  0.00  0.00    +0.000 A 
ATOM     20  C   UNL     1       3.402   5.284  17.780  0.00  0.00    +0.000 A 
BRANCH  15  22
ATOM     21  C   UNL     1       1.504   3.169  18.215  0.00  0.00    +0.000 C 
ATOM     22  N   UNL     1       2.891   2.899  17.853  0.00  0.00    +0.000 N 
ATOM     23  C   UNL     1       3.393   1.567  18.199  0.00  0.00    +0.000 C 
ENDBRANCH  15  22
BRANCH  18  24
ATOM     24  C   UNL     1       6.624   7.200  17.342  0.00  0.00    +0.000 C 
ATOM     25  N   UNL     1       7.362   8.080  17.224  0.00  0.00    +0.000 NA
ENDBRANCH  18  24
ENDBRANCH  14  19
ENDBRANCH   1  14
TORSDOF 5
ENDMDL
MODEL 7
REMARK VINA RESULT:      -6.8      2.426      4.104
REMARK  Name = 
REMARK  7 active torsions:
REMARK  status: ('A' for Active; 'I' for Inactive)
REMARK    1  A    between atoms: C_1  and  N_2
REMARK    2  A    between atoms: N_2  and  C_3
REMARK    3  A    between atoms: N_2  and  C_4
REMARK    4  A    between atoms: C_7  and  C_8
REMARK    5  A    between atoms: C_10  and  C_11
REMARK    6  A    between atoms: C_11  and  N_12
REMARK    7  A    between atoms: N_15  and  C_16
REMARK                            x       y       z     vdW  Elec       q    Type
REMARK                         _______ _______ _______ _____ _____    ______ ____
ROOT
ATOM      1  N   UNL     1       2.250   8.159  18.921  0.00  0.00    +0.000 NA
ATOM      2  C   UNL     1       1.864   9.385  18.214  0.00  0.00    +0.000 C 
ATOM      3  C   UNL     1       0.577  10.146  18.628  0.00  0.00    +0.000 C 
ATOM      4  N   UNL     1       0.299  10.131  20.078  0.00  0.00    +0.000 N 
ATOM      5  C   UNL     1       0.538   8.857  20.767  0.00  0.00    +0.000 C 
ATOM      6  C   UNL     1       1.852   8.161  20.333  0.00  0.00    +0.000 C 
ENDROOT
BRANCH   4   7
ATOM      7  C   UNL     1      -0.679  11.013  20.568  0.00  0.00    +0.000 A 
ATOM      8  C   UNL     1      -1.602  11.705  19.757  0.00  0.00    +0.000 A 
ATOM      9  C   UNL     1      -2.615  12.519  20.303  0.00  0.00    +0.000 A 
ATOM     10  C   UNL     1      -2.730  12.656  21.680  0.00  0.00    +0.000 A 
ATOM     11 CL   UNL     1      -3.971  13.637  22.362  0.00  0.00    +0.000 Cl
ATOM     12  C   UNL     1      -1.844  11.990  22.510  0.00  0.00    +0.000 A 
ATOM     13  C   UNL     1      -0.837  11.186  21.954  0.00  0.00    +0.000 A 
ENDBRANCH   4   7
BRANCH   1  14
ATOM     14  C   UNL     1       2.034   6.936  18.155  0.00  0.00    +0.000 C 
BRANCH  14  19
ATOM     15  C   UNL     1       5.461   5.268  17.707  0.00  0.00    +0.000 A 
ATOM     16  C   UNL     1       5.216   4.029  18.317  0.00  0.00    +0.000 A 
ATOM     17  C   UNL     1       4.005   3.749  18.981  0.00  0.00    +0.000 A 
ATOM     18  C   UNL     1       2.965   4.684  19.010  0.00  0.00    +0.000 A 
ATOM     19  C   UNL     1       3.143   5.906  18.339  0.00  0.00    +0.000 A 
ATOM     20  C   UNL     1       4.386   6.172  17.729  0.00  0.00    +0.000 A 
BRANCH  15  22
ATOM     21  C   UNL     1       7.312   6.869  17.302  0.00  0.00    +0.000 C 
ATOM     22  N   UNL     1       6.660   5.586  17.067  0.00  0.00    +0.000 N 
ATOM     23  C   UNL     1       6.938   4.957  15.773  0.00  0.00    +0.000 C 
ENDBRANCH  15  22
BRANCH  18  24
ATOM     24  C   UNL     1       1.755   4.358  19.737  0.00  0.00    +0.000 C 
ATOM     25  N   UNL     1       0.778   4.065  20.277  0.00  0.00    +0.000 NA
ENDBRANCH  18  24
ENDBRANCH  14  19
ENDBRANCH   1  14
TORSDOF 5
ENDMDL
MODEL 8
REMARK VINA RESULT:      -6.7      1.809      3.323
REMARK  Name = 
REMARK  7 active torsions:
REMARK  status: ('A' for Active; 'I' for Inactive)
REMARK    1  A    between atoms: C_1  and  N_2
REMARK    2  A    between atoms: N_2  and  C_3
REMARK    3  A    between atoms: N_2  and  C_4
REMARK    4  A    between atoms: C_7  and  C_8
REMARK    5  A    between atoms: C_10  and  C_11
REMARK    6  A    between atoms: C_11  and  N_12
REMARK    7  A    between atoms: N_15  and  C_16
REMARK                            x       y       z     vdW  Elec       q    Type
REMARK                         _______ _______ _______ _____ _____    ______ ____
ROOT
ATOM      1  N   UNL     1       2.550   8.021  18.428  0.00  0.00    +0.000 NA
ATOM      2  C   UNL     1       2.019   9.322  18.007  0.00  0.00    +0.000 C 
ATOM      3  C   UNL     1       0.814   9.947  18.758  0.00  0.00    +0.000 C 
ATOM      4  N   UNL     1       0.806   9.696  20.214  0.00  0.00    +0.000 N 
ATOM      5  C   UNL     1       1.191   8.344  20.636  0.00  0.00    +0.000 C 
ATOM      6  C   UNL     1       2.417   7.787  19.870  0.00  0.00    +0.000 C 
ENDROOT
BRANCH   4   7
ATOM      7  C   UNL     1      -0.083  10.444  21.003  0.00  0.00    +0.000 A 
ATOM      8  C   UNL     1      -0.881  11.500  20.517  0.00  0.00    +0.000 A 
ATOM      9  C   UNL     1      -1.816  12.168  21.334  0.00  0.00    +0.000 A 
ATOM     10  C   UNL     1      -1.976  11.791  22.660  0.00  0.00    +0.000 A 
ATOM     11 CL   UNL     1      -3.122  12.591  23.666  0.00  0.00    +0.000 Cl
ATOM     12  C   UNL     1      -1.212  10.757  23.173  0.00  0.00    +0.000 A 
ATOM     13  C   UNL     1      -0.282  10.102  22.352  0.00  0.00    +0.000 A 
ENDBRANCH   4   7
BRANCH   1  14
ATOM     14  C   UNL     1       2.223   6.921  17.527  0.00  0.00    +0.000 C 
BRANCH  14  19
ATOM     15  C   UNL     1       2.594   3.445  19.110  0.00  0.00    +0.000 A 
ATOM     16  C   UNL     1       3.974   3.249  18.956  0.00  0.00    +0.000 A 
ATOM     17  C   UNL     1       4.784   4.157  18.246  0.00  0.00    +0.000 A 
ATOM     18  C   UNL     1       4.250   5.334  17.709  0.00  0.00    +0.000 A 
ATOM     19  C   UNL     1       2.886   5.605  17.915  0.00  0.00    +0.000 A 
ATOM     20  C   UNL     1       2.096   4.650  18.585  0.00  0.00    +0.000 A 
BRANCH  15  22
ATOM     21  C   UNL     1       0.557   2.030  19.143  0.00  0.00    +0.000 C 
ATOM     22  N   UNL     1       1.760   2.550  19.783  0.00  0.00    +0.000 N 
ATOM     23  C   UNL     1       1.733   2.601  21.247  0.00  0.00    +0.000 C 
ENDBRANCH  15  22
BRANCH  18  24
ATOM     24  C   UNL     1       5.120   6.214  16.958  0.00  0.00    +0.000 C 
ATOM     25  N   UNL     1       5.788   6.958  16.381  0.00  0.00    +0.000 NA
ENDBRANCH  18  24
ENDBRANCH  14  19
ENDBRANCH   1  14
TORSDOF 5
ENDMDL
MODEL 9
REMARK VINA RESULT:      -6.6      4.669      9.160
REMARK  Name = 
REMARK  7 active torsions:
REMARK  status: ('A' for Active; 'I' for Inactive)
REMARK    1  A    between atoms: C_1  and  N_2
REMARK    2  A    between atoms: N_2  and  C_3
REMARK    3  A    between atoms: N_2  and  C_4
REMARK    4  A    between atoms: C_7  and  C_8
REMARK    5  A    between atoms: C_10  and  C_11
REMARK    6  A    between atoms: C_11  and  N_12
REMARK    7  A    between atoms: N_15  and  C_16
REMARK                            x       y       z     vdW  Elec       q    Type
REMARK                         _______ _______ _______ _____ _____    ______ ____
ROOT
ATOM      1  N   UNL     1       1.182   9.105  20.129  0.00  0.00    +0.000 NA
ATOM      2  C   UNL     1       1.760   7.877  20.685  0.00  0.00    +0.000 C 
ATOM      3  C   UNL     1       2.287   6.770  19.736  0.00  0.00    +0.000 C 
ATOM      4  N   UNL     1       2.927   7.275  18.504  0.00  0.00    +0.000 N 
ATOM      5  C   UNL     1       2.265   8.412  17.855  0.00  0.00    +0.000 C 
ATOM      6  C   UNL     1       1.788   9.497  18.852  0.00  0.00    +0.000 C 
ENDROOT
BRANCH   4   7
ATOM      7  C   UNL     1       3.668   6.366  17.730  0.00  0.00    +0.000 A 
ATOM      8  C   UNL     1       3.417   4.980  17.676  0.00  0.00    +0.000 A 
ATOM      9  C   UNL     1       4.140   4.122  16.822  0.00  0.00    +0.000 A 
ATOM     10  C   UNL     1       5.131   4.635  15.997  0.00  0.00    +0.000 A 
ATOM     11 CL   UNL     1       6.013   3.601  14.940  0.00  0.00    +0.000 Cl
ATOM     12  C   UNL     1       5.404   5.993  16.019  0.00  0.00    +0.000 A 
ATOM     13  C   UNL     1       4.681   6.836  16.877  0.00  0.00    +0.000 A 
ENDBRANCH   4   7
BRANCH   1  14
ATOM     14  C   UNL     1      -0.270   9.189  20.247  0.00  0.00    +0.000 C 
BRANCH  14  19
ATOM     15  C   UNL     1      -2.333  10.978  17.551  0.00  0.00    +0.000 A 
ATOM     16  C   UNL     1      -1.882  12.295  17.727  0.00  0.00    +0.000 A 
ATOM     17  C   UNL     1      -1.011  12.654  18.774  0.00  0.00    +0.000 A 
ATOM     18  C   UNL     1      -0.509  11.691  19.658  0.00  0.00    +0.000 A 
ATOM     19  C   UNL     1      -0.874  10.348  19.462  0.00  0.00    +0.000 A 
ATOM     20  C   UNL     1      -1.787  10.033  18.436  0.00  0.00    +0.000 A 
BRANCH  15  22
ATOM     21  C   UNL     1      -2.720  10.165  15.240  0.00  0.00    +0.000 C 
ATOM     22  N   UNL     1      -3.218  10.597  16.541  0.00  0.00    +0.000 N 
ATOM     23  C   UNL     1      -4.564  11.176  16.550  0.00  0.00    +0.000 C 
ENDBRANCH  15  22
BRANCH  18  24
ATOM     24  C   UNL     1       0.354  12.120  20.738  0.00  0.00    +0.000 C 
ATOM     25  N   UNL     1       1.068  12.495  21.565  0.00  0.00    +0.000 NA
ENDBRANCH  18  24
ENDBRANCH  14  19
ENDBRANCH   1  14
TORSDOF 5
ENDMDL
