MODEL 1
REMARK VINA RESULT:      -6.9      0.000      0.000
REMARK  Name = 
REMARK  5 active torsions:
REMARK  status: ('A' for Active; 'I' for Inactive)
REMARK    1  A    between atoms: C_1  and  N_2
REMARK    2  A    between atoms: N_2  and  C_17
REMARK    3  A    between atoms: C_3  and  C_5
REMARK    4  A    between atoms: C_5  and  S_6
REMARK    5  A    between atoms: S_6  and  C_7
REMARK                            x       y       z     vdW  Elec       q    Type
REMARK                         _______ _______ _______ _____ _____    ______ ____
ROOT
ATOM      1  C   UNL     1       2.390   6.566  19.456  0.00  0.00    +0.000 C 
ENDROOT
BRANCH   1   4
ATOM      2  C   UNL     1       0.894   8.792  20.804  0.00  0.00    +0.000 C 
ATOM      3  N   UNL     1       1.461   8.927  19.468  0.00  0.00    +0.000 N 
ATOM      4  C   UNL     1       2.221   7.940  18.812  0.00  0.00    +0.000 C 
ATOM      5  O   UNL     1       2.667   8.147  17.674  0.00  0.00    +0.000 OA
BRANCH   3   6
ATOM      6  C   UNL     1       1.081  10.104  18.646  0.00  0.00    +0.000 C 
ATOM      7  C   UNL     1      -0.262   9.841  17.933  0.00  0.00    +0.000 C 
ATOM      8  C   UNL     1      -1.482  10.331  18.704  0.00  0.00    +0.000 C 
ATOM      9  C   UNL     1      -1.340  11.808  19.029  0.00  0.00    +0.000 C 
ATOM     10  C   UNL     1      -0.122  12.052  19.910  0.00  0.00    +0.000 C 
ATOM     11  C   UNL     1       1.170  11.489  19.316  0.00  0.00    +0.000 C 
ENDBRANCH   3   6
ENDBRANCH   1   4
BRANCH   1  12
ATOM     12  S   UNL     1       2.654   5.255  18.203  0.00  0.00    +0.000 S 
BRANCH  12  13
ATOM     13  C   UNL     1       4.448   5.184  18.198  0.00  0.00    +0.000 A 
ATOM     14  N   UNL     1       5.020   5.340  19.409  0.00  0.00    +0.000 NA
ATOM     15  C   UNL     1       6.349   5.238  19.451  0.00  0.00    +0.000 A 
ATOM     16  N   UNL     1       7.147   4.978  18.407  0.00  0.00    +0.000 NA
ATOM     17  C   UNL     1       6.567   4.817  17.218  0.00  0.00    +0.000 A 
ATOM     18  C   UNL     1       7.379   4.536  16.130  0.00  0.00    +0.000 A 
ATOM     19  C   UNL     1       6.861   4.348  14.845  0.00  0.00    +0.000 A 
ATOM     20  C   UNL     1       5.491   4.445  14.637  0.00  0.00    +0.000 A 
ATOM     21  C   UNL     1       4.654   4.723  15.716  0.00  0.00    +0.000 A 
ATOM     22  C   UNL     1       5.180   4.910  17.026  0.00  0.00    +0.000 A 
ENDBRANCH  12  13
ENDBRANCH   1  12
TORSDOF 4
ENDMDL
MODEL 2
REMARK VINA RESULT:      -6.8      2.836      8.703
REMARK  Name = 
REMARK  5 active torsions:
REMARK  status: ('A' for Active; 'I' for Inactive)
REMARK    1  A    between atoms: C_1  and  N_2
REMARK    2  A    between atoms: N_2  and  C_17
REMARK    3  A    between atoms: C_3  and  C_5
REMARK    4  A    between atoms: C_5  and  S_6
REMARK    5  A    between atoms: S_6  and  C_7
REMARK                            x       y       z     vdW  Elec       q    Type
REMARK                         _______ _______ _______ _____ _____    ______ ____
ROOT
ATOM      1  C   UNL     1       1.911   7.610  20.256  0.00  0.00    +0.000 C 
ENDROOT
BRANCH   1   4
ATOM      2  C   UNL     1       1.644   4.622  20.324  0.00  0.00    +0.000 C 
ATOM      3  N   UNL     1       2.370   5.319  19.269  0.00  0.00    +0.000 N 
ATOM      4  C   UNL     1       2.478   6.717  19.155  0.00  0.00    +0.000 C 
ATOM      5  O   UNL     1       3.114   7.222  18.218  0.00  0.00    +0.000 OA
BRANCH   3   6
ATOM      6  C   UNL     1       3.213   4.526  18.338  0.00  0.00    +0.000 C 
ATOM      7  C   UNL     1       4.365   3.850  19.110  0.00  0.00    +0.000 C 
ATOM      8  C   UNL     1       4.048   2.438  19.588  0.00  0.00    +0.000 C 
ATOM      9  C   UNL     1       3.621   1.570  18.417  0.00  0.00    +0.000 C 
ATOM     10  C   UNL     1       2.356   2.122  17.771  0.00  0.00    +0.000 C 
ATOM     11  C   UNL     1       2.485   3.587  17.356  0.00  0.00    +0.000 C 
ENDBRANCH   3   6
ENDBRANCH   1   4
BRANCH   1  12
ATOM     12  S   UNL     1       1.236   9.176  19.584  0.00  0.00    +0.000 S 
BRANCH  12  13
ATOM     13  C   UNL     1       0.335   9.770  21.019  0.00  0.00    +0.000 A 
ATOM     14  N   UNL     1       0.637   9.142  22.173  0.00  0.00    +0.000 NA
ATOM     15  C   UNL     1       0.027   9.594  23.268  0.00  0.00    +0.000 A 
ATOM     16  N   UNL     1      -0.833  10.620  23.318  0.00  0.00    +0.000 NA
ATOM     17  C   UNL     1      -1.115  11.238  22.171  0.00  0.00    +0.000 A 
ATOM     18  C   UNL     1      -1.996  12.308  22.208  0.00  0.00    +0.000 A 
ATOM     19  C   UNL     1      -2.349  13.019  21.057  0.00  0.00    +0.000 A 
ATOM     20  C   UNL     1      -1.809  12.651  19.830  0.00  0.00    +0.000 A 
ATOM     21  C   UNL     1      -0.920  11.581  19.770  0.00  0.00    +0.000 A 
ATOM     22  C   UNL     1      -0.556  10.858  20.941  0.00  0.00    +0.000 A 
ENDBRANCH  12  13
ENDBRANCH   1  12
TORSDOF 4
ENDMDL
MODEL 3
REMARK VINA RESULT:      -6.8      2.231      8.545
REMARK  Name = 
REMARK  5 active torsions:
REMARK  status: ('A' for Active; 'I' for Inactive)
REMARK    1  A    between atoms: C_1  and  N_2
REMARK    2  A    between atoms: N_2  and  C_17
REMARK    3  A    between atoms: C_3  and  C_5
REMARK    4  A    between atoms: C_5  and  S_6
REMARK    5  A    between atoms: S_6  and  C_7
REMARK                            x       y       z     vdW  Elec       q    Type
REMARK                         _______ _______ _______ _____ _____    ______ ____
ROOT
ATOM      1  C   UNL     1       2.105   7.944  19.329  0.00  0.00    +0.000 C 
ENDROOT
BRANCH   1   4
ATOM      2  C   UNL     1       3.910   5.550  19.189  0.00  0.00    +0.000 C 
ATOM      3  N   UNL     1       3.767   6.488  18.082  0.00  0.00    +0.000 N 
ATOM      4  C   UNL     1       2.893   7.591  18.069  0.00  0.00    +0.000 C 
ATOM      5  O   UNL     1       2.836   8.333  17.078  0.00  0.00    +0.000 OA
BRANCH   3   6
ATOM      6  C   UNL     1       4.720   6.404  16.947  0.00  0.00    +0.000 C 
ATOM      7  C   UNL     1       6.071   7.037  17.341  0.00  0.00    +0.000 C 
ATOM      8  C   UNL     1       7.081   6.045  17.904  0.00  0.00    +0.000 C 
ATOM      9  C   UNL     1       7.302   4.905  16.925  0.00  0.00    +0.000 C 
ATOM     10  C   UNL     1       6.006   4.141  16.686  0.00  0.00    +0.000 C 
ATOM     11  C   UNL     1       4.854   5.042  16.238  0.00  0.00    +0.000 C 
ENDBRANCH   3   6
ENDBRANCH   1   4
BRANCH   1  12
ATOM     12  S   UNL     1       1.134   9.483  19.115  0.00  0.00    +0.000 S 
BRANCH  12  13
ATOM     13  C   UNL     1       0.573   9.736  20.803  0.00  0.00    +0.000 A 
ATOM     14  N   UNL     1       1.230   9.009  21.729  0.00  0.00    +0.000 NA
ATOM     15  C   UNL     1       0.876   9.212  22.997  0.00  0.00    +0.000 A 
ATOM     16  N   UNL     1      -0.052  10.080  23.422  0.00  0.00    +0.000 NA
ATOM     17  C   UNL     1      -0.686  10.799  22.496  0.00  0.00    +0.000 A 
ATOM     18  C   UNL     1      -1.641  11.710  22.921  0.00  0.00    +0.000 A 
ATOM     19  C   UNL     1      -2.356  12.510  22.023  0.00  0.00    +0.000 A 
ATOM     20  C   UNL     1      -2.113  12.396  20.660  0.00  0.00    +0.000 A 
ATOM     21  C   UNL     1      -1.156  11.489  20.210  0.00  0.00    +0.000 A 
ATOM     22  C   UNL     1      -0.424  10.678  21.122  0.00  0.00    +0.000 A 
ENDBRANCH  12  13
ENDBRANCH   1  12
TORSDOF 4
ENDMDL
MODEL 4
REMARK VINA RESULT:      -6.7      2.506      8.288
REMARK  Name = 
REMARK  5 active torsions:
REMARK  status: ('A' for Active; 'I' for Inactive)
REMARK    1  A    between atoms: C_1  and  N_2
REMARK    2  A    between atoms: N_2  and  C_17
REMARK    3  A    between atoms: C_3  and  C_5
REMARK    4  A    between atoms: C_5  and  S_6
REMARK    5  A    between atoms: S_6  and  C_7
REMARK                            x       y       z     vdW  Elec       q    Type
REMARK                         _______ _______ _______ _____ _____    ______ ____
ROOT
ATOM      1  C   UNL     1       2.214   7.964  18.993  0.00  0.00    +0.000 C 
ENDROOT
BRANCH   1   4
ATOM      2  C   UNL     1       1.818   5.096  19.784  0.00  0.00    +0.000 C 
ATOM      3  N   UNL     1       2.744   5.497  18.731  0.00  0.00    +0.000 N 
ATOM      4  C   UNL     1       2.926   6.817  18.280  0.00  0.00    +0.000 C 
ATOM      5  O   UNL     1       3.735   7.062  17.373  0.00  0.00    +0.000 OA
BRANCH   3   6
ATOM      6  C   UNL     1       3.702   4.493  18.202  0.00  0.00    +0.000 C 
ATOM      7  C   UNL     1       4.510   3.870  19.359  0.00  0.00    +0.000 C 
ATOM      8  C   UNL     1       3.904   2.590  19.922  0.00  0.00    +0.000 C 
ATOM      9  C   UNL     1       3.705   1.571  18.813  0.00  0.00    +0.000 C 
ATOM     10  C   UNL     1       2.739   2.102  17.761  0.00  0.00    +0.000 C 
ATOM     11  C   UNL     1       3.156   3.461  17.197  0.00  0.00    +0.000 C 
ENDBRANCH   3   6
ENDBRANCH   1   4
BRANCH   1  12
ATOM     12  S   UNL     1       1.690   9.273  17.823  0.00  0.00    +0.000 S 
BRANCH  12  13
ATOM     13  C   UNL     1       0.516  10.162  18.852  0.00  0.00    +0.000 A 
ATOM     14  N   UNL     1       1.021  10.618  20.016  0.00  0.00    +0.000 NA
ATOM     15  C   UNL     1       0.192  11.328  20.780  0.00  0.00    +0.000 A 
ATOM     16  N   UNL     1      -1.076  11.639  20.481  0.00  0.00    +0.000 NA
ATOM     17  C   UNL     1      -1.559  11.189  19.324  0.00  0.00    +0.000 A 
ATOM     18  C   UNL     1      -2.867  11.511  18.994  0.00  0.00    +0.000 A 
ATOM     19  C   UNL     1      -3.459  11.087  17.800  0.00  0.00    +0.000 A 
ATOM     20  C   UNL     1      -2.725  10.316  16.907  0.00  0.00    +0.000 A 
ATOM     21  C   UNL     1      -1.407   9.983  17.215  0.00  0.00    +0.000 A 
ATOM     22  C   UNL     1      -0.802  10.418  18.428  0.00  0.00    +0.000 A 
ENDBRANCH  12  13
ENDBRANCH   1  12
TORSDOF 4
ENDMDL
MODEL 5
REMARK VINA RESULT:      -6.7      1.976      2.829
REMARK  Name = 
REMARK  5 active torsions:
REMARK  status: ('A' for Active; 'I' for Inactive)
REMARK    1  A    between atoms: C_1  and  N_2
REMARK    2  A    between atoms: N_2  and  C_17
REMARK    3  A    between atoms: C_3  and  C_5
REMARK    4  A    between atoms: C_5  and  S_6
REMARK    5  A    between atoms: S_6  and  C_7
REMARK                            x       y       z     vdW  Elec       q    Type
REMARK                         _______ _______ _______ _____ _____    ______ ____
ROOT
ATOM      1  C   UNL     1       2.335   7.801  18.708  0.00  0.00    +0.000 C 
ENDROOT
BRANCH   1   4
ATOM      2  C   UNL     1       0.472   9.247  20.565  0.00  0.00    +0.000 C 
ATOM      3  N   UNL     1       0.926   9.825  19.305  0.00  0.00    +0.000 N 
ATOM      4  C   UNL     1       1.843   9.219  18.426  0.00  0.00    +0.000 C 
ATOM      5  O   UNL     1       2.175   9.790  17.377  0.00  0.00    +0.000 OA
BRANCH   3   6
ATOM      6  C   UNL     1       0.261  11.054  18.802  0.00  0.00    +0.000 C 
ATOM      7  C   UNL     1      -0.921  10.678  17.883  0.00  0.00    +0.000 C 
ATOM      8  C   UNL     1      -2.260  10.579  18.603  0.00  0.00    +0.000 C 
ATOM      9  C   UNL     1      -2.559  11.874  19.339  0.00  0.00    +0.000 C 
ATOM     10  C   UNL     1      -1.498  12.148  20.398  0.00  0.00    +0.000 C 
ATOM     11  C   UNL     1      -0.076  12.146  19.835  0.00  0.00    +0.000 C 
ENDBRANCH   3   6
ENDBRANCH   1   4
BRANCH   1  12
ATOM     12  S   UNL     1       3.396   7.168  17.355  0.00  0.00    +0.000 S 
BRANCH  12  13
ATOM     13  C   UNL     1       4.041   5.682  18.133  0.00  0.00    +0.000 A 
ATOM     14  N   UNL     1       5.324   5.771  18.537  0.00  0.00    +0.000 NA
ATOM     15  C   UNL     1       5.818   4.705  19.167  0.00  0.00    +0.000 A 
ATOM     16  N   UNL     1       5.148   3.579  19.444  0.00  0.00    +0.000 NA
ATOM     17  C   UNL     1       3.878   3.509  19.046  0.00  0.00    +0.000 A 
ATOM     18  C   UNL     1       3.167   2.354  19.335  0.00  0.00    +0.000 A 
ATOM     19  C   UNL     1       1.830   2.191  18.961  0.00  0.00    +0.000 A 
ATOM     20  C   UNL     1       1.180   3.210  18.276  0.00  0.00    +0.000 A 
ATOM     21  C   UNL     1       1.873   4.382  17.977  0.00  0.00    +0.000 A 
ATOM     22  C   UNL     1       3.233   4.551  18.361  0.00  0.00    +0.000 A 
ENDBRANCH  12  13
ENDBRANCH   1  12
TORSDOF 4
ENDMDL
MODEL 6
REMARK VINA RESULT:      -6.7      2.052      3.479
REMARK  Name = 
REMARK  5 active torsions:
REMARK  status: ('A' for Active; 'I' for Inactive)
REMARK    1  A    between atoms: C_1  and  N_2
REMARK    2  A    between atoms: N_2  and  C_17
REMARK    3  A    between atoms: C_3  and  C_5
REMARK    4  A    between atoms: C_5  and  S_6
REMARK    5  A    between atoms: S_6  and  C_7
REMARK                            x       y       z     vdW  Elec       q    Type
REMARK                         _______ _______ _______ _____ _____    ______ ____
ROOT
ATOM      1  C   UNL     1       2.292   7.701  19.041  0.00  0.00    +0.000 C 
ENDROOT
BRANCH   1   4
ATOM      2  C   UNL     1       0.261   9.281  20.587  0.00  0.00    +0.000 C 
ATOM      3  N   UNL     1       0.777   9.721  19.296  0.00  0.00    +0.000 N 
ATOM      4  C   UNL     1       1.770   9.052  18.557  0.00  0.00    +0.000 C 
ATOM      5  O   UNL     1       2.151   9.505  17.467  0.00  0.00    +0.000 OA
BRANCH   3   6
ATOM      6  C   UNL     1       0.103  10.849  18.604  0.00  0.00    +0.000 C 
ATOM      7  C   UNL     1      -0.979  10.312  17.644  0.00  0.00    +0.000 C 
ATOM      8  C   UNL     1      -2.369  10.223  18.262  0.00  0.00    +0.000 C 
ATOM      9  C   UNL     1      -2.785  11.573  18.819  0.00  0.00    +0.000 C 
ATOM     10  C   UNL     1      -1.830  12.018  19.920  0.00  0.00    +0.000 C 
ATOM     11  C   UNL     1      -0.367  12.029  19.476  0.00  0.00    +0.000 C 
ENDBRANCH   3   6
ENDBRANCH   1   4
BRANCH   1  12
ATOM     12  S   UNL     1       2.354   6.470  17.687  0.00  0.00    +0.000 S 
BRANCH  12  13
ATOM     13  C   UNL     1       3.331   5.185  18.475  0.00  0.00    +0.000 A 
ATOM     14  N   UNL     1       4.635   5.180  18.132  0.00  0.00    +0.000 NA
ATOM     15  C   UNL     1       5.400   4.274  18.739  0.00  0.00    +0.000 A 
ATOM     16  N   UNL     1       4.990   3.396  19.664  0.00  0.00    +0.000 NA
ATOM     17  C   UNL     1       3.701   3.419  20.001  0.00  0.00    +0.000 A 
ATOM     18  C   UNL     1       3.263   2.524  20.965  0.00  0.00    +0.000 A 
ATOM     19  C   UNL     1       1.930   2.477  21.385  0.00  0.00    +0.000 A 
ATOM     20  C   UNL     1       1.004   3.348  20.825  0.00  0.00    +0.000 A 
ATOM     21  C   UNL     1       1.421   4.258  19.856  0.00  0.00    +0.000 A 
ATOM     22  C   UNL     1       2.779   4.311  19.431  0.00  0.00    +0.000 A 
ENDBRANCH  12  13
ENDBRANCH   1  12
TORSDOF 4
ENDMDL
MODEL 7
REMARK VINA RESULT:      -6.6      2.557      3.300
REMARK  Name = 
REMARK  5 active torsions:
REMARK  status: ('A' for Active; 'I' for Inactive)
REMARK    1  A    between atoms: C_1  and  N_2
REMARK    2  A    between atoms: N_2  and  C_17
REMARK    3  A    between atoms: C_3  and  C_5
REMARK    4  A    between atoms: C_5  and  S_6
REMARK    5  A    between atoms: S_6  and  C_7
REMARK                            x       y       z     vdW  Elec       q    Type
REMARK                         _______ _______ _______ _____ _____    ______ ____
ROOT
ATOM      1  C   UNL     1       1.910   8.312  19.454  0.00  0.00    +0.000 C 
ENDROOT
BRANCH   1   4
ATOM      2  C   UNL     1      -0.512   9.792  20.430  0.00  0.00    +0.000 C 
ATOM      3  N   UNL     1       0.078  10.035  19.118  0.00  0.00    +0.000 N 
ATOM      4  C   UNL     1       1.244   9.415  18.633  0.00  0.00    +0.000 C 
ATOM      5  O   UNL     1       1.675   9.689  17.504  0.00  0.00    +0.000 OA
BRANCH   3   6
ATOM      6  C   UNL     1      -0.677  10.853  18.136  0.00  0.00    +0.000 C 
ATOM      7  C   UNL     1      -1.572   9.945  17.266  0.00  0.00    +0.000 C 
ATOM      8  C   UNL     1      -2.989   9.775  17.799  0.00  0.00    +0.000 C 
ATOM      9  C   UNL     1      -3.646  11.131  17.990  0.00  0.00    +0.000 C 
ATOM     10  C   UNL     1      -2.878  11.962  19.009  0.00  0.00    +0.000 C 
ATOM     11  C   UNL     1      -1.395  12.109  18.668  0.00  0.00    +0.000 C 
ENDBRANCH   3   6
ENDBRANCH   1   4
BRANCH   1  12
ATOM     12  S   UNL     1       2.856   7.153  18.396  0.00  0.00    +0.000 S 
BRANCH  12  13
ATOM     13  C   UNL     1       2.546   5.612  19.265  0.00  0.00    +0.000 A 
ATOM     14  N   UNL     1       1.865   5.746  20.421  0.00  0.00    +0.000 NA
ATOM     15  C   UNL     1       1.571   4.617  21.065  0.00  0.00    +0.000 A 
ATOM     16  N   UNL     1       1.874   3.378  20.654  0.00  0.00    +0.000 NA
ATOM     17  C   UNL     1       2.539   3.261  19.505  0.00  0.00    +0.000 A 
ATOM     18  C   UNL     1       2.851   1.986  19.060  0.00  0.00    +0.000 A 
ATOM     19  C   UNL     1       3.543   1.764  17.866  0.00  0.00    +0.000 A 
ATOM     20  C   UNL     1       3.938   2.847  17.091  0.00  0.00    +0.000 A 
ATOM     21  C   UNL     1       3.634   4.138  17.516  0.00  0.00    +0.000 A 
ATOM     22  C   UNL     1       2.925   4.366  18.730  0.00  0.00    +0.000 A 
ENDBRANCH  12  13
ENDBRANCH   1  12
TORSDOF 4
ENDMDL
MODEL 8
REMARK VINA RESULT:      -6.6      1.957      8.520
REMARK  Name = 
REMARK  5 active torsions:
REMARK  status: ('A' for Active; 'I' for Inactive)
REMARK    1  A    between atoms: C_1  and  N_2
REMARK    2  A    between atoms: N_2  and  C_17
REMARK    3  A    between atoms: C_3  and  C_5
REMARK    4  A    between atoms: C_5  and  S_6
REMARK    5  A    between atoms: S_6  and  C_7
REMARK                            x       y       z     vdW  Elec       q    Type
REMARK                         _______ _______ _______ _____ _____    ______ ____
ROOT
ATOM      1  C   UNL     1       2.472   7.326  18.801  0.00  0.00    +0.000 C 
ENDROOT
BRANCH   1   4
ATOM      2  C   UNL     1       5.043   7.191  17.258  0.00  0.00    +0.000 C 
ATOM      3  N   UNL     1       4.520   6.055  18.008  0.00  0.00    +0.000 N 
ATOM      4  C   UNL     1       3.354   6.079  18.796  0.00  0.00    +0.000 C 
ATOM      5  O   UNL     1       2.988   5.062  19.403  0.00  0.00    +0.000 OA
BRANCH   3   6
ATOM      6  C   UNL     1       5.138   4.720  17.807  0.00  0.00    +0.000 C 
ATOM      7  C   UNL     1       4.499   4.018  16.591  0.00  0.00    +0.000 C 
ATOM      8  C   UNL     1       5.238   4.252  15.279  0.00  0.00    +0.000 C 
ATOM      9  C   UNL     1       6.695   3.844  15.415  0.00  0.00    +0.000 C 
ATOM     10  C   UNL     1       7.391   4.682  16.480  0.00  0.00    +0.000 C 
ATOM     11  C   UNL     1       6.678   4.646  17.832  0.00  0.00    +0.000 C 
ENDBRANCH   3   6
ENDBRANCH   1   4
BRANCH   1  12
ATOM     12  S   UNL     1       1.694   7.602  20.437  0.00  0.00    +0.000 S 
BRANCH  12  13
ATOM     13  C   UNL     1       0.978   9.228  20.172  0.00  0.00    +0.000 A 
ATOM     14  N   UNL     1       1.175   9.735  18.939  0.00  0.00    +0.000 NA
ATOM     15  C   UNL     1       0.611  10.917  18.690  0.00  0.00    +0.000 A 
ATOM     16  N   UNL     1      -0.141  11.622  19.547  0.00  0.00    +0.000 NA
ATOM     17  C   UNL     1      -0.334  11.104  20.760  0.00  0.00    +0.000 A 
ATOM     18  C   UNL     1      -1.118  11.816  21.655  0.00  0.00    +0.000 A 
ATOM     19  C   UNL     1      -1.379  11.351  22.947  0.00  0.00    +0.000 A 
ATOM     20  C   UNL     1      -0.840  10.140  23.362  0.00  0.00    +0.000 A 
ATOM     21  C   UNL     1      -0.051   9.405  22.479  0.00  0.00    +0.000 A 
ATOM     22  C   UNL     1       0.212   9.874  21.161  0.00  0.00    +0.000 A 
ENDBRANCH  12  13
ENDBRANCH   1  12
TORSDOF 4
ENDMDL
MODEL 9
REMARK VINA RESULT:      -6.6      1.896      8.010
REMARK  Name = 
REMARK  5 active torsions:
REMARK  status: ('A' for Active; 'I' for Inactive)
REMARK    1  A    between atoms: C_1  and  N_2
REMARK    2  A    between atoms: N_2  and  C_17
REMARK    3  A    between atoms: C_3  and  C_5
REMARK    4  A    between atoms: C_5  and  S_6
REMARK    5  A    between atoms: S_6  and  C_7
REMARK                            x       y       z     vdW  Elec       q    Type
REMARK                         _______ _______ _______ _____ _____    ______ ____
ROOT
ATOM      1  C   UNL     1       2.243   5.651  18.253  0.00  0.00    +0.000 C 
ENDROOT
BRANCH   1   4
ATOM      2  C   UNL     1       4.736   6.658  16.919  0.00  0.00    +0.000 C 
ATOM      3  N   UNL     1       4.559   5.260  17.294  0.00  0.00    +0.000 N 
ATOM      4  C   UNL     1       3.439   4.744  17.973  0.00  0.00    +0.000 C 
ATOM      5  O   UNL     1       3.378   3.539  18.255  0.00  0.00    +0.000 OA
BRANCH   3   6
ATOM      6  C   UNL     1       5.526   4.255  16.784  0.00  0.00    +0.000 C 
ATOM      7  C   UNL     1       5.000   3.630  15.475  0.00  0.00    +0.000 C 
ATOM      8  C   UNL     1       5.484   4.333  14.212  0.00  0.00    +0.000 C 
ATOM      9  C   UNL     1       7.002   4.392  14.193  0.00  0.00    +0.000 C 
ATOM     10  C   UNL     1       7.525   5.189  15.381  0.00  0.00    +0.000 C 
ATOM     11  C   UNL     1       7.008   4.672  16.724  0.00  0.00    +0.000 C 
ENDBRANCH   3   6
ENDBRANCH   1   4
BRANCH   1  12
ATOM     12  S   UNL     1       2.323   6.387  19.929  0.00  0.00    +0.000 S 
BRANCH  12  13
ATOM     13  C   UNL     1       1.795   8.063  19.562  0.00  0.00    +0.000 A 
ATOM     14  N   UNL     1       2.044   8.467  18.300  0.00  0.00    +0.000 NA
ATOM     15  C   UNL     1       1.615   9.687  17.976  0.00  0.00    +0.000 A 
ATOM     16  N   UNL     1       0.951  10.524  18.784  0.00  0.00    +0.000 NA
ATOM     17  C   UNL     1       0.704  10.108  20.026  0.00  0.00    +0.000 A 
ATOM     18  C   UNL     1       0.008  10.958  20.872  0.00  0.00    +0.000 A 
ATOM     19  C   UNL     1      -0.300  10.606  22.189  0.00  0.00    +0.000 A 
ATOM     20  C   UNL     1       0.100   9.370  22.681  0.00  0.00    +0.000 A 
ATOM     21  C   UNL     1       0.798   8.498  21.849  0.00  0.00    +0.000 A 
ATOM     22  C   UNL     1       1.109   8.852  20.506  0.00  0.00    +0.000 A 
ENDBRANCH  12  13
ENDBRANCH   1  12
TORSDOF 4
ENDMDL
