MODEL 1
REMARK VINA RESULT:      -7.7      0.000      0.000
REMARK  Name = 
REMARK  6 active torsions:
REMARK  status: ('A' for Active; 'I' for Inactive)
REMARK    1  A    between atoms: C_1  and  C_2
REMARK    2  A    between atoms: C_6  and  C_7
REMARK    3  A    between atoms: C_7  and  N_8
REMARK    4  A    between atoms: C_9  and  C_11
REMARK    5  A    between atoms: C_14  and  N_15
REMARK    6  A    between atoms: C_16  and  C_18
REMARK                            x       y       z     vdW  Elec       q    Type
REMARK                         _______ _______ _______ _____ _____    ______ ____
ROOT
ATOM      1  C   UNL     1       1.099   9.419  19.467  0.00  0.00    +0.000 A 
ATOM      2  C   UNL     1       1.094   9.233  20.849  0.00  0.00    +0.000 A 
ATOM      3  C   UNL     1       0.368  10.096  21.688  0.00  0.00    +0.000 A 
ATOM      4  C   UNL     1      -0.371  11.167  21.173  0.00  0.00    +0.000 A 
ATOM      5  C   UNL     1      -0.407  11.332  19.785  0.00  0.00    +0.000 A 
ATOM      6  C   UNL     1       0.331  10.476  18.943  0.00  0.00    +0.000 A 
ENDROOT
BRANCH   1   8
ATOM      7  N   UNL     1       2.212   7.271  18.989  0.00  0.00    +0.000 N 
ATOM      8  C   UNL     1       1.869   8.531  18.536  0.00  0.00    +0.000 C 
ATOM      9  O   UNL     1       2.164   8.936  17.416  0.00  0.00    +0.000 OA
ATOM     10  H   UNL     1       2.127   7.033  19.964  0.00  0.00    +0.000 HD
BRANCH   7  11
ATOM     11  C   UNL     1       2.949   6.324  18.174  0.00  0.00    +0.000 C 
BRANCH  11  17
ATOM     12  C   UNL     1       1.372   2.764  21.411  0.00  0.00    +0.000 C 
ATOM     13  C   UNL     1       1.793   3.168  20.026  0.00  0.00    +0.000 A 
ATOM     14  C   UNL     1       1.882   2.215  19.005  0.00  0.00    +0.000 A 
ATOM     15  C   UNL     1       2.287   2.594  17.726  0.00  0.00    +0.000 A 
ATOM     16  C   UNL     1       2.613   3.925  17.457  0.00  0.00    +0.000 A 
ATOM     17  C   UNL     1       2.536   4.899  18.464  0.00  0.00    +0.000 A 
ATOM     18  C   UNL     1       2.119   4.506  19.748  0.00  0.00    +0.000 A 
ENDBRANCH  11  17
ENDBRANCH   7  11
ENDBRANCH   1   8
BRANCH   4  19
ATOM     19  N   UNL     1      -1.084  12.070  22.006  0.00  0.00    +0.000 N 
ATOM     20  C   UNL     1      -0.570  13.250  22.517  0.00  0.00    +0.000 C 
ATOM     21  O   UNL     1       0.542  13.706  22.257  0.00  0.00    +0.000 OA
ATOM     22  H   UNL     1      -2.064  11.888  22.186  0.00  0.00    +0.000 HD
BRANCH  20  23
ATOM     23  C   UNL     1      -1.483  14.014  23.447  0.00  0.00    +0.000 C 
ATOM     24  C   UNL     1      -2.792  13.913  23.161  0.00  0.00    +0.000 C 
ATOM     25  S   UNL     1      -4.055  14.616  24.088  0.00  0.00    +0.000 S 
ATOM     26  C   UNL     1      -3.163  15.909  24.963  0.00  0.00    +0.000 C 
ATOM     27  C   UNL     1      -1.640  15.937  24.817  0.00  0.00    +0.000 C 
ATOM     28  O   UNL     1      -0.952  14.718  24.508  0.00  0.00    +0.000 OA
ENDBRANCH  20  23
ENDBRANCH   4  19
TORSDOF 5
ENDMDL
MODEL 2
REMARK VINA RESULT:      -7.6      0.513      1.063
REMARK  Name = 
REMARK  6 active torsions:
REMARK  status: ('A' for Active; 'I' for Inactive)
REMARK    1  A    between atoms: C_1  and  C_2
REMARK    2  A    between atoms: C_6  and  C_7
REMARK    3  A    between atoms: C_7  and  N_8
REMARK    4  A    between atoms: C_9  and  C_11
REMARK    5  A    between atoms: C_14  and  N_15
REMARK    6  A    between atoms: C_16  and  C_18
REMARK                            x       y       z     vdW  Elec       q    Type
REMARK                         _______ _______ _______ _____ _____    ______ ____
ROOT
ATOM      1  C   UNL     1       1.293   9.277  19.150  0.00  0.00    +0.000 A 
ATOM      2  C   UNL     1       0.746  10.459  18.653  0.00  0.00    +0.000 A 
ATOM      3  C   UNL     1      -0.001  11.311  19.483  0.00  0.00    +0.000 A 
ATOM      4  C   UNL     1      -0.226  11.007  20.831  0.00  0.00    +0.000 A 
ATOM      5  C   UNL     1       0.357   9.847  21.347  0.00  0.00    +0.000 A 
ATOM      6  C   UNL     1       1.097   8.984  20.513  0.00  0.00    +0.000 A 
ENDROOT
BRANCH   1   8
ATOM      7  N   UNL     1       2.344   7.073  18.803  0.00  0.00    +0.000 N 
ATOM      8  C   UNL     1       2.087   8.333  18.297  0.00  0.00    +0.000 C 
ATOM      9  O   UNL     1       2.475   8.695  17.191  0.00  0.00    +0.000 OA
ATOM     10  H   UNL     1       2.182   6.865  19.776  0.00  0.00    +0.000 HD
BRANCH   7  11
ATOM     11  C   UNL     1       3.094   6.075  18.065  0.00  0.00    +0.000 C 
BRANCH  11  17
ATOM     12  C   UNL     1       1.419   2.696  21.443  0.00  0.00    +0.000 C 
ATOM     13  C   UNL     1       1.860   3.029  20.046  0.00  0.00    +0.000 A 
ATOM     14  C   UNL     1       1.938   2.029  19.070  0.00  0.00    +0.000 A 
ATOM     15  C   UNL     1       2.362   2.342  17.779  0.00  0.00    +0.000 A 
ATOM     16  C   UNL     1       2.717   3.653  17.453  0.00  0.00    +0.000 A 
ATOM     17  C   UNL     1       2.650   4.672  18.415  0.00  0.00    +0.000 A 
ATOM     18  C   UNL     1       2.215   4.346  19.710  0.00  0.00    +0.000 A 
ENDBRANCH  11  17
ENDBRANCH   7  11
ENDBRANCH   1   8
BRANCH   4  19
ATOM     19  N   UNL     1      -1.007  11.837  21.678  0.00  0.00    +0.000 N 
ATOM     20  C   UNL     1      -0.555  12.995  22.288  0.00  0.00    +0.000 C 
ATOM     21  O   UNL     1       0.555  13.495  22.117  0.00  0.00    +0.000 OA
ATOM     22  H   UNL     1      -1.990  11.618  21.794  0.00  0.00    +0.000 HD
BRANCH  20  23
ATOM     23  C   UNL     1      -1.537  13.674  23.214  0.00  0.00    +0.000 C 
ATOM     24  C   UNL     1      -2.713  13.039  23.353  0.00  0.00    +0.000 C 
ATOM     25  S   UNL     1      -3.983  13.543  24.393  0.00  0.00    +0.000 S 
ATOM     26  C   UNL     1      -3.580  15.283  24.611  0.00  0.00    +0.000 C 
ATOM     27  C   UNL     1      -2.253  15.777  24.030  0.00  0.00    +0.000 C 
ATOM     28  O   UNL     1      -1.181  14.841  23.859  0.00  0.00    +0.000 OA
ENDBRANCH  20  23
ENDBRANCH   4  19
TORSDOF 5
ENDMDL
MODEL 3
REMARK VINA RESULT:      -7.5      0.955      1.480
REMARK  Name = 
REMARK  6 active torsions:
REMARK  status: ('A' for Active; 'I' for Inactive)
REMARK    1  A    between atoms: C_1  and  C_2
REMARK    2  A    between atoms: C_6  and  C_7
REMARK    3  A    between atoms: C_7  and  N_8
REMARK    4  A    between atoms: C_9  and  C_11
REMARK    5  A    between atoms: C_14  and  N_15
REMARK    6  A    between atoms: C_16  and  C_18
REMARK                            x       y       z     vdW  Elec       q    Type
REMARK                         _______ _______ _______ _____ _____    ______ ____
ROOT
ATOM      1  C   UNL     1       1.269   9.329  19.067  0.00  0.00    +0.000 A 
ATOM      2  C   UNL     1       0.709  10.464  18.481  0.00  0.00    +0.000 A 
ATOM      3  C   UNL     1      -0.068  11.356  19.239  0.00  0.00    +0.000 A 
ATOM      4  C   UNL     1      -0.311  11.141  20.600  0.00  0.00    +0.000 A 
ATOM      5  C   UNL     1       0.284  10.030  21.205  0.00  0.00    +0.000 A 
ATOM      6  C   UNL     1       1.054   9.127  20.444  0.00  0.00    +0.000 A 
ENDROOT
BRANCH   1   8
ATOM      7  N   UNL     1       2.355   7.122  18.886  0.00  0.00    +0.000 N 
ATOM      8  C   UNL     1       2.094   8.344  18.294  0.00  0.00    +0.000 C 
ATOM      9  O   UNL     1       2.502   8.640  17.176  0.00  0.00    +0.000 OA
ATOM     10  H   UNL     1       2.174   6.975  19.866  0.00  0.00    +0.000 HD
BRANCH   7  11
ATOM     11  C   UNL     1       3.135   6.091  18.230  0.00  0.00    +0.000 C 
BRANCH  11  17
ATOM     12  C   UNL     1       1.406   2.724  21.594  0.00  0.00    +0.000 C 
ATOM     13  C   UNL     1       1.805   3.069  20.187  0.00  0.00    +0.000 A 
ATOM     14  C   UNL     1       1.781   2.095  19.183  0.00  0.00    +0.000 A 
ATOM     15  C   UNL     1       2.166   2.417  17.883  0.00  0.00    +0.000 A 
ATOM     16  C   UNL     1       2.586   3.713  17.575  0.00  0.00    +0.000 A 
ATOM     17  C   UNL     1       2.623   4.708  18.564  0.00  0.00    +0.000 A 
ATOM     18  C   UNL     1       2.225   4.372  19.869  0.00  0.00    +0.000 A 
ENDBRANCH  11  17
ENDBRANCH   7  11
ENDBRANCH   1   8
BRANCH   4  19
ATOM     19  N   UNL     1      -1.121  12.012  21.376  0.00  0.00    +0.000 N 
ATOM     20  C   UNL     1      -0.652  13.090  22.107  0.00  0.00    +0.000 C 
ATOM     21  O   UNL     1       0.515  13.477  22.122  0.00  0.00    +0.000 OA
ATOM     22  H   UNL     1      -2.128  11.893  21.340  0.00  0.00    +0.000 HD
BRANCH  20  23
ATOM     23  C   UNL     1      -1.686  13.829  22.924  0.00  0.00    +0.000 C 
ATOM     24  C   UNL     1      -1.188  14.566  23.931  0.00  0.00    +0.000 C 
ATOM     25  S   UNL     1      -2.122  15.561  24.972  0.00  0.00    +0.000 S 
ATOM     26  C   UNL     1      -3.755  14.830  24.776  0.00  0.00    +0.000 C 
ATOM     27  C   UNL     1      -3.916  13.744  23.710  0.00  0.00    +0.000 C 
ATOM     28  O   UNL     1      -3.022  13.735  22.590  0.00  0.00    +0.000 OA
ENDBRANCH  20  23
ENDBRANCH   4  19
TORSDOF 5
ENDMDL
MODEL 4
REMARK VINA RESULT:      -7.5      3.235      4.806
REMARK  Name = 
REMARK  6 active torsions:
REMARK  status: ('A' for Active; 'I' for Inactive)
REMARK    1  A    between atoms: C_1  and  C_2
REMARK    2  A    between atoms: C_6  and  C_7
REMARK    3  A    between atoms: C_7  and  N_8
REMARK    4  A    between atoms: C_9  and  C_11
REMARK    5  A    between atoms: C_14  and  N_15
REMARK    6  A    between atoms: C_16  and  C_18
REMARK                            x       y       z     vdW  Elec       q    Type
REMARK                         _______ _______ _______ _____ _____    ______ ____
ROOT
ATOM      1  C   UNL     1       2.637   7.098  19.081  0.00  0.00    +0.000 A 
ATOM      2  C   UNL     1       2.450   8.101  18.130  0.00  0.00    +0.000 A 
ATOM      3  C   UNL     1       1.666   9.230  18.421  0.00  0.00    +0.000 A 
ATOM      4  C   UNL     1       1.046   9.390  19.666  0.00  0.00    +0.000 A 
ATOM      5  C   UNL     1       1.267   8.411  20.638  0.00  0.00    +0.000 A 
ATOM      6  C   UNL     1       2.042   7.271  20.345  0.00  0.00    +0.000 A 
ENDROOT
BRANCH   1   8
ATOM      7  N   UNL     1       3.223   5.195  17.626  0.00  0.00    +0.000 N 
ATOM      8  C   UNL     1       3.455   5.871  18.809  0.00  0.00    +0.000 C 
ATOM      9  O   UNL     1       4.296   5.509  19.625  0.00  0.00    +0.000 OA
ATOM     10  H   UNL     1       2.409   5.397  17.067  0.00  0.00    +0.000 HD
BRANCH   7  11
ATOM     11  C   UNL     1       3.958   4.001  17.253  0.00  0.00    +0.000 C 
BRANCH  11  17
ATOM     12  C   UNL     1       6.059   3.499  12.674  0.00  0.00    +0.000 C 
ATOM     13  C   UNL     1       6.098   4.058  14.068  0.00  0.00    +0.000 A 
ATOM     14  C   UNL     1       7.195   4.810  14.501  0.00  0.00    +0.000 A 
ATOM     15  C   UNL     1       7.232   5.315  15.800  0.00  0.00    +0.000 A 
ATOM     16  C   UNL     1       6.176   5.067  16.680  0.00  0.00    +0.000 A 
ATOM     17  C   UNL     1       5.066   4.312  16.272  0.00  0.00    +0.000 A 
ATOM     18  C   UNL     1       5.037   3.816  14.958  0.00  0.00    +0.000 A 
ENDBRANCH  11  17
ENDBRANCH   7  11
ENDBRANCH   1   8
BRANCH   4  19
ATOM     19  N   UNL     1       0.222  10.507  19.968  0.00  0.00    +0.000 N 
ATOM     20  C   UNL     1      -1.048  10.715  19.459  0.00  0.00    +0.000 C 
ATOM     21  O   UNL     1      -1.657   9.926  18.739  0.00  0.00    +0.000 OA
ATOM     22  H   UNL     1       0.545  11.169  20.664  0.00  0.00    +0.000 HD
BRANCH  20  23
ATOM     23  C   UNL     1      -1.709  12.014  19.855  0.00  0.00    +0.000 C 
ATOM     24  C   UNL     1      -0.946  12.829  20.604  0.00  0.00    +0.000 C 
ATOM     25  S   UNL     1      -1.412  14.394  21.136  0.00  0.00    +0.000 S 
ATOM     26  C   UNL     1      -3.203  14.281  21.015  0.00  0.00    +0.000 C 
ATOM     27  C   UNL     1      -3.787  13.024  20.366  0.00  0.00    +0.000 C 
ATOM     28  O   UNL     1      -2.989  12.296  19.424  0.00  0.00    +0.000 OA
ENDBRANCH  20  23
ENDBRANCH   4  19
TORSDOF 5
ENDMDL
MODEL 5
REMARK VINA RESULT:      -7.4      3.213      4.364
REMARK  Name = 
REMARK  6 active torsions:
REMARK  status: ('A' for Active; 'I' for Inactive)
REMARK    1  A    between atoms: C_1  and  C_2
REMARK    2  A    between atoms: C_6  and  C_7
REMARK    3  A    between atoms: C_7  and  N_8
REMARK    4  A    between atoms: C_9  and  C_11
REMARK    5  A    between atoms: C_14  and  N_15
REMARK    6  A    between atoms: C_16  and  C_18
REMARK                            x       y       z     vdW  Elec       q    Type
REMARK                         _______ _______ _______ _____ _____    ______ ____
ROOT
ATOM      1  C   UNL     1       2.024   7.488  19.496  0.00  0.00    +0.000 A 
ATOM      2  C   UNL     1       1.481   7.954  20.692  0.00  0.00    +0.000 A 
ATOM      3  C   UNL     1       0.976   9.261  20.793  0.00  0.00    +0.000 A 
ATOM      4  C   UNL     1       1.002  10.141  19.705  0.00  0.00    +0.000 A 
ATOM      5  C   UNL     1       1.504   9.667  18.490  0.00  0.00    +0.000 A 
ATOM      6  C   UNL     1       2.022   8.360  18.390  0.00  0.00    +0.000 A 
ENDROOT
BRANCH   1   8
ATOM      7  N   UNL     1       2.819   5.642  18.066  0.00  0.00    +0.000 N 
ATOM      8  C   UNL     1       2.584   6.105  19.347  0.00  0.00    +0.000 C 
ATOM      9  O   UNL     1       2.821   5.436  20.347  0.00  0.00    +0.000 OA
ATOM     10  H   UNL     1       2.446   6.128  17.266  0.00  0.00    +0.000 HD
BRANCH   7  11
ATOM     11  C   UNL     1       3.366   4.325  17.801  0.00  0.00    +0.000 C 
BRANCH  11  17
ATOM     12  C   UNL     1       6.315   3.974  13.701  0.00  0.00    +0.000 C 
ATOM     13  C   UNL     1       6.162   4.220  15.175  0.00  0.00    +0.000 A 
ATOM     14  C   UNL     1       7.285   4.453  15.976  0.00  0.00    +0.000 A 
ATOM     15  C   UNL     1       7.138   4.667  17.346  0.00  0.00    +0.000 A 
ATOM     16  C   UNL     1       5.869   4.643  17.929  0.00  0.00    +0.000 A 
ATOM     17  C   UNL     1       4.727   4.408  17.148  0.00  0.00    +0.000 A 
ATOM     18  C   UNL     1       4.888   4.201  15.767  0.00  0.00    +0.000 A 
ENDBRANCH  11  17
ENDBRANCH   7  11
ENDBRANCH   1   8
BRANCH   4  19
ATOM     19  N   UNL     1       0.529  11.477  19.795  0.00  0.00    +0.000 N 
ATOM     20  C   UNL     1      -0.755  11.886  19.478  0.00  0.00    +0.000 C 
ATOM     21  O   UNL     1      -1.672  11.137  19.148  0.00  0.00    +0.000 OA
ATOM     22  H   UNL     1       1.144  12.180  20.190  0.00  0.00    +0.000 HD
BRANCH  20  23
ATOM     23  C   UNL     1      -1.012  13.372  19.571  0.00  0.00    +0.000 C 
ATOM     24  C   UNL     1      -0.126  14.140  18.915  0.00  0.00    +0.000 C 
ATOM     25  S   UNL     1      -0.213  15.850  18.792  0.00  0.00    +0.000 S 
ATOM     26  C   UNL     1      -1.260  16.245  20.200  0.00  0.00    +0.000 C 
ATOM     27  C   UNL     1      -1.889  15.076  20.959  0.00  0.00    +0.000 C 
ATOM     28  O   UNL     1      -2.107  13.839  20.269  0.00  0.00    +0.000 OA
ENDBRANCH  20  23
ENDBRANCH   4  19
TORSDOF 5
ENDMDL
MODEL 6
REMARK VINA RESULT:      -7.4      3.990      5.867
REMARK  Name = 
REMARK  6 active torsions:
REMARK  status: ('A' for Active; 'I' for Inactive)
REMARK    1  A    between atoms: C_1  and  C_2
REMARK    2  A    between atoms: C_6  and  C_7
REMARK    3  A    between atoms: C_7  and  N_8
REMARK    4  A    between atoms: C_9  and  C_11
REMARK    5  A    between atoms: C_14  and  N_15
REMARK    6  A    between atoms: C_16  and  C_18
REMARK                            x       y       z     vdW  Elec       q    Type
REMARK                         _______ _______ _______ _____ _____    ______ ____
ROOT
ATOM      1  C   UNL     1       3.756   5.973  17.941  0.00  0.00    +0.000 A 
ATOM      2  C   UNL     1       2.837   5.723  18.959  0.00  0.00    +0.000 A 
ATOM      3  C   UNL     1       1.996   6.743  19.435  0.00  0.00    +0.000 A 
ATOM      4  C   UNL     1       2.050   8.040  18.912  0.00  0.00    +0.000 A 
ATOM      5  C   UNL     1       2.937   8.286  17.860  0.00  0.00    +0.000 A 
ATOM      6  C   UNL     1       3.791   7.268  17.390  0.00  0.00    +0.000 A 
ENDROOT
BRANCH   1   8
ATOM      7  N   UNL     1       5.851   5.335  16.805  0.00  0.00    +0.000 N 
ATOM      8  C   UNL     1       4.681   4.917  17.412  0.00  0.00    +0.000 C 
ATOM      9  O   UNL     1       4.384   3.734  17.534  0.00  0.00    +0.000 OA
ATOM     10  H   UNL     1       5.982   6.301  16.550  0.00  0.00    +0.000 HD
BRANCH   7  11
ATOM     11  C   UNL     1       6.823   4.405  16.263  0.00  0.00    +0.000 C 
BRANCH  11  17
ATOM     12  C   UNL     1       5.214   2.725  11.766  0.00  0.00    +0.000 C 
ATOM     13  C   UNL     1       6.099   3.631  12.575  0.00  0.00    +0.000 A 
ATOM     14  C   UNL     1       7.019   4.473  11.943  0.00  0.00    +0.000 A 
ATOM     15  C   UNL     1       7.847   5.301  12.699  0.00  0.00    +0.000 A 
ATOM     16  C   UNL     1       7.768   5.290  14.094  0.00  0.00    +0.000 A 
ATOM     17  C   UNL     1       6.856   4.451  14.752  0.00  0.00    +0.000 A 
ATOM     18  C   UNL     1       6.022   3.627  13.978  0.00  0.00    +0.000 A 
ENDBRANCH  11  17
ENDBRANCH   7  11
ENDBRANCH   1   8
BRANCH   4  19
ATOM     19  N   UNL     1       1.233   9.094  19.402  0.00  0.00    +0.000 N 
ATOM     20  C   UNL     1       1.006   9.363  20.740  0.00  0.00    +0.000 C 
ATOM     21  O   UNL     1       1.538   8.772  21.678  0.00  0.00    +0.000 OA
ATOM     22  H   UNL     1       0.842   9.750  18.735  0.00  0.00    +0.000 HD
BRANCH  20  23
ATOM     23  C   UNL     1       0.036  10.484  21.028  0.00  0.00    +0.000 C 
ATOM     24  C   UNL     1      -0.413  10.531  22.294  0.00  0.00    +0.000 C 
ATOM     25  S   UNL     1      -1.464  11.737  22.918  0.00  0.00    +0.000 S 
ATOM     26  C   UNL     1      -2.217  12.355  21.405  0.00  0.00    +0.000 C 
ATOM     27  C   UNL     1      -1.658  11.837  20.078  0.00  0.00    +0.000 C 
ATOM     28  O   UNL     1      -0.301  11.376  20.031  0.00  0.00    +0.000 OA
ENDBRANCH  20  23
ENDBRANCH   4  19
TORSDOF 5
ENDMDL
MODEL 7
REMARK VINA RESULT:      -7.4      2.511      3.625
REMARK  Name = 
REMARK  6 active torsions:
REMARK  status: ('A' for Active; 'I' for Inactive)
REMARK    1  A    between atoms: C_1  and  C_2
REMARK    2  A    between atoms: C_6  and  C_7
REMARK    3  A    between atoms: C_7  and  N_8
REMARK    4  A    between atoms: C_9  and  C_11
REMARK    5  A    between atoms: C_14  and  N_15
REMARK    6  A    between atoms: C_16  and  C_18
REMARK                            x       y       z     vdW  Elec       q    Type
REMARK                         _______ _______ _______ _____ _____    ______ ____
ROOT
ATOM      1  C   UNL     1       1.917   7.496  19.623  0.00  0.00    +0.000 A 
ATOM      2  C   UNL     1       1.747   8.636  18.838  0.00  0.00    +0.000 A 
ATOM      3  C   UNL     1       1.131   9.785  19.361  0.00  0.00    +0.000 A 
ATOM      4  C   UNL     1       0.665   9.830  20.680  0.00  0.00    +0.000 A 
ATOM      5  C   UNL     1       0.873   8.707  21.487  0.00  0.00    +0.000 A 
ATOM      6  C   UNL     1       1.479   7.549  20.961  0.00  0.00    +0.000 A 
ENDROOT
BRANCH   1   8
ATOM      7  N   UNL     1       3.515   5.637  19.894  0.00  0.00    +0.000 N 
ATOM      8  C   UNL     1       2.558   6.245  19.102  0.00  0.00    +0.000 C 
ATOM      9  O   UNL     1       2.219   5.798  18.012  0.00  0.00    +0.000 OA
ATOM     10  H   UNL     1       3.908   6.117  20.687  0.00  0.00    +0.000 HD
BRANCH   7  11
ATOM     11  C   UNL     1       4.195   4.419  19.497  0.00  0.00    +0.000 C 
BRANCH  11  17
ATOM     12  C   UNL     1       6.150   3.899  14.855  0.00  0.00    +0.000 C 
ATOM     13  C   UNL     1       6.251   4.432  16.257  0.00  0.00    +0.000 A 
ATOM     14  C   UNL     1       7.394   5.124  16.672  0.00  0.00    +0.000 A 
ATOM     15  C   UNL     1       7.488   5.603  17.977  0.00  0.00    +0.000 A 
ATOM     16  C   UNL     1       6.445   5.390  18.882  0.00  0.00    +0.000 A 
ATOM     17  C   UNL     1       5.290   4.695  18.491  0.00  0.00    +0.000 A 
ATOM     18  C   UNL     1       5.204   4.223  17.171  0.00  0.00    +0.000 A 
ENDBRANCH  11  17
ENDBRANCH   7  11
ENDBRANCH   1   8
BRANCH   4  19
ATOM     19  N   UNL     1       0.010  10.969  21.218  0.00  0.00    +0.000 N 
ATOM     20  C   UNL     1      -0.402  11.098  22.533  0.00  0.00    +0.000 C 
ATOM     21  O   UNL     1      -0.188  10.277  23.423  0.00  0.00    +0.000 OA
ATOM     22  H   UNL     1      -0.105  11.783  20.625  0.00  0.00    +0.000 HD
BRANCH  20  23
ATOM     23  C   UNL     1      -1.154  12.366  22.863  0.00  0.00    +0.000 C 
ATOM     24  C   UNL     1      -2.480  12.305  22.659  0.00  0.00    +0.000 C 
ATOM     25  S   UNL     1      -3.587  13.569  23.014  0.00  0.00    +0.000 S 
ATOM     26  C   UNL     1      -2.488  14.994  23.034  0.00  0.00    +0.000 C 
ATOM     27  C   UNL     1      -0.986  14.726  22.925  0.00  0.00    +0.000 C 
ATOM     28  O   UNL     1      -0.474  13.460  23.360  0.00  0.00    +0.000 OA
ENDBRANCH  20  23
ENDBRANCH   4  19
TORSDOF 5
ENDMDL
MODEL 8
REMARK VINA RESULT:      -7.3      2.304      3.332
REMARK  Name = 
REMARK  6 active torsions:
REMARK  status: ('A' for Active; 'I' for Inactive)
REMARK    1  A    between atoms: C_1  and  C_2
REMARK    2  A    between atoms: C_6  and  C_7
REMARK    3  A    between atoms: C_7  and  N_8
REMARK    4  A    between atoms: C_9  and  C_11
REMARK    5  A    between atoms: C_14  and  N_15
REMARK    6  A    between atoms: C_16  and  C_18
REMARK                            x       y       z     vdW  Elec       q    Type
REMARK                         _______ _______ _______ _____ _____    ______ ____
ROOT
ATOM      1  C   UNL     1       1.481   8.755  19.076  0.00  0.00    +0.000 A 
ATOM      2  C   UNL     1       1.444   8.491  20.445  0.00  0.00    +0.000 A 
ATOM      3  C   UNL     1       0.620   9.242  21.300  0.00  0.00    +0.000 A 
ATOM      4  C   UNL     1      -0.188  10.277  20.815  0.00  0.00    +0.000 A 
ATOM      5  C   UNL     1      -0.190  10.516  19.438  0.00  0.00    +0.000 A 
ATOM      6  C   UNL     1       0.645   9.773  18.580  0.00  0.00    +0.000 A 
ENDROOT
BRANCH   1   8
ATOM      7  N   UNL     1       2.743   6.714  18.504  0.00  0.00    +0.000 N 
ATOM      8  C   UNL     1       2.355   7.987  18.130  0.00  0.00    +0.000 C 
ATOM      9  O   UNL     1       2.691   8.496  17.066  0.00  0.00    +0.000 OA
ATOM     10  H   UNL     1       2.614   6.393  19.451  0.00  0.00    +0.000 HD
BRANCH   7  11
ATOM     11  C   UNL     1       3.580   5.877  17.667  0.00  0.00    +0.000 C 
BRANCH  11  17
ATOM     12  C   UNL     1       8.066   8.207  17.384  0.00  0.00    +0.000 C 
ATOM     13  C   UNL     1       7.214   7.087  17.910  0.00  0.00    +0.000 A 
ATOM     14  C   UNL     1       7.774   6.081  18.705  0.00  0.00    +0.000 A 
ATOM     15  C   UNL     1       6.981   5.037  19.178  0.00  0.00    +0.000 A 
ATOM     16  C   UNL     1       5.623   4.984  18.856  0.00  0.00    +0.000 A 
ATOM     17  C   UNL     1       5.037   5.978  18.057  0.00  0.00    +0.000 A 
ATOM     18  C   UNL     1       5.846   7.030  17.593  0.00  0.00    +0.000 A 
ENDBRANCH  11  17
ENDBRANCH   7  11
ENDBRANCH   1   8
BRANCH   4  19
ATOM     19  N   UNL     1      -1.003  11.070  21.666  0.00  0.00    +0.000 N 
ATOM     20  C   UNL     1      -0.633  12.290  22.205  0.00  0.00    +0.000 C 
ATOM     21  O   UNL     1       0.417  12.881  21.959  0.00  0.00    +0.000 OA
ATOM     22  H   UNL     1      -1.955  10.768  21.840  0.00  0.00    +0.000 HD
BRANCH  20  23
ATOM     23  C   UNL     1      -1.629  12.919  23.150  0.00  0.00    +0.000 C 
ATOM     24  C   UNL     1      -2.800  12.267  23.251  0.00  0.00    +0.000 C 
ATOM     25  S   UNL     1      -4.084  12.714  24.300  0.00  0.00    +0.000 S 
ATOM     26  C   UNL     1      -3.700  14.446  24.597  0.00  0.00    +0.000 C 
ATOM     27  C   UNL     1      -2.374  14.977  24.051  0.00  0.00    +0.000 C 
ATOM     28  O   UNL     1      -1.291  14.060  23.849  0.00  0.00    +0.000 OA
ENDBRANCH  20  23
ENDBRANCH   4  19
TORSDOF 5
ENDMDL
MODEL 9
REMARK VINA RESULT:      -7.3      3.976      6.017
REMARK  Name = 
REMARK  6 active torsions:
REMARK  status: ('A' for Active; 'I' for Inactive)
REMARK    1  A    between atoms: C_1  and  C_2
REMARK    2  A    between atoms: C_6  and  C_7
REMARK    3  A    between atoms: C_7  and  N_8
REMARK    4  A    between atoms: C_9  and  C_11
REMARK    5  A    between atoms: C_14  and  N_15
REMARK    6  A    between atoms: C_16  and  C_18
REMARK                            x       y       z     vdW  Elec       q    Type
REMARK                         _______ _______ _______ _____ _____    ______ ____
ROOT
ATOM      1  C   UNL     1       3.857   5.862  18.123  0.00  0.00    +0.000 A 
ATOM      2  C   UNL     1       3.053   5.628  19.238  0.00  0.00    +0.000 A 
ATOM      3  C   UNL     1       2.206   6.631  19.737  0.00  0.00    +0.000 A 
ATOM      4  C   UNL     1       2.138   7.896  19.142  0.00  0.00    +0.000 A 
ATOM      5  C   UNL     1       2.908   8.123  17.997  0.00  0.00    +0.000 A 
ATOM      6  C   UNL     1       3.768   7.123  17.501  0.00  0.00    +0.000 A 
ENDROOT
BRANCH   1   8
ATOM      7  N   UNL     1       5.873   5.264  16.833  0.00  0.00    +0.000 N 
ATOM      8  C   UNL     1       4.785   4.825  17.564  0.00  0.00    +0.000 C 
ATOM      9  O   UNL     1       4.561   3.637  17.770  0.00  0.00    +0.000 OA
ATOM     10  H   UNL     1       5.932   6.220  16.521  0.00  0.00    +0.000 HD
BRANCH   7  11
ATOM     11  C   UNL     1       6.840   4.354  16.252  0.00  0.00    +0.000 C 
BRANCH  11  17
ATOM     12  C   UNL     1       5.061   2.823  11.766  0.00  0.00    +0.000 C 
ATOM     13  C   UNL     1       5.997   3.679  12.569  0.00  0.00    +0.000 A 
ATOM     14  C   UNL     1       6.932   4.501  11.929  0.00  0.00    +0.000 A 
ATOM     15  C   UNL     1       7.809   5.283  12.680  0.00  0.00    +0.000 A 
ATOM     16  C   UNL     1       7.764   5.246  14.076  0.00  0.00    +0.000 A 
ATOM     17  C   UNL     1       6.838   4.428  14.742  0.00  0.00    +0.000 A 
ATOM     18  C   UNL     1       5.955   3.650  13.973  0.00  0.00    +0.000 A 
ENDBRANCH  11  17
ENDBRANCH   7  11
ENDBRANCH   1   8
BRANCH   4  19
ATOM     19  N   UNL     1       1.315   8.934  19.651  0.00  0.00    +0.000 N 
ATOM     20  C   UNL     1       0.477   9.729  18.886  0.00  0.00    +0.000 C 
ATOM     21  O   UNL     1       0.282   9.591  17.681  0.00  0.00    +0.000 OA
ATOM     22  H   UNL     1       1.270   9.065  20.656  0.00  0.00    +0.000 HD
BRANCH  20  23
ATOM     23  C   UNL     1      -0.245  10.827  19.631  0.00  0.00    +0.000 C 
ATOM     24  C   UNL     1      -0.284  10.672  20.965  0.00  0.00    +0.000 C 
ATOM     25  S   UNL     1      -0.974  11.798  22.063  0.00  0.00    +0.000 S 
ATOM     26  C   UNL     1      -2.082  12.707  20.974  0.00  0.00    +0.000 C 
ATOM     27  C   UNL     1      -2.003  12.403  19.477  0.00  0.00    +0.000 C 
ATOM     28  O   UNL     1      -0.776  11.895  18.937  0.00  0.00    +0.000 OA
ENDBRANCH  20  23
ENDBRANCH   4  19
TORSDOF 5
ENDMDL
