MODEL 1
REMARK VINA RESULT:      -7.1      0.000      0.000
REMARK  Name = 
REMARK  7 active torsions:
REMARK  status: ('A' for Active; 'I' for Inactive)
REMARK    1  A    between atoms: C_1  and  C_2
REMARK    2  A    between atoms: N_7  and  C_8
REMARK    3  A    between atoms: C_8  and  C_9
REMARK    4  A    between atoms: C_9  and  C_10
REMARK    5  A    between atoms: C_9  and  C_11
REMARK    6  A    between atoms: C_15  and  C_16
REMARK    7  A    between atoms: C_22  and  C_24
REMARK                            x       y       z     vdW  Elec       q    Type
REMARK                         _______ _______ _______ _____ _____    ______ ____
ROOT
ATOM      1  C   UNL     1       1.486  12.823  18.240  0.00  0.00    +0.000 C 
ATOM      2  C   UNL     1       1.543  11.380  18.570  0.00  0.00    +0.000 A 
ATOM      3  O   UNL     1       2.180  10.650  17.627  0.00  0.00    +0.000 OA
ATOM      4  C   UNL     1       2.251   9.376  18.063  0.00  0.00    +0.000 A 
ATOM      5  N   UNL     1       2.878   8.407  17.360  0.00  0.00    +0.000 NA
ATOM      6  C   UNL     1       2.927   7.281  17.981  0.00  0.00    +0.000 A 
ATOM      7  N   UNL     1       2.391   7.014  19.234  0.00  0.00    +0.000 N 
ATOM      8  C   UNL     1       1.652   7.979  19.938  0.00  0.00    +0.000 A 
ATOM      9  O   UNL     1       1.081   7.741  20.998  0.00  0.00    +0.000 OA
ATOM     10  C   UNL     1       1.632   9.274  19.293  0.00  0.00    +0.000 A 
ATOM     11  C   UNL     1       1.111  10.569  19.620  0.00  0.00    +0.000 A 
ENDROOT
BRANCH  11  12
ATOM     12  C   UNL     1       0.410  10.979  20.842  0.00  0.00    +0.000 C 
ATOM     13  O   UNL     1       1.007  11.030  21.913  0.00  0.00    +0.000 OA
ATOM     14  N   UNL     1      -0.922  11.376  20.743  0.00  0.00    +0.000 N 
ATOM     15  C   UNL     1      -1.573  12.016  21.895  0.00  0.00    +0.000 C 
ATOM     16  C   UNL     1      -2.514  13.142  21.430  0.00  0.00    +0.000 C 
ATOM     17  N   UNL     1      -3.457  12.667  20.403  0.00  0.00    +0.000 N 
ATOM     18  C   UNL     1      -4.684  13.325  20.270  0.00  0.00    +0.000 C 
ATOM     19  O   UNL     1      -4.960  14.304  20.963  0.00  0.00    +0.000 OA
ATOM     20  C   UNL     1      -2.816  11.969  19.283  0.00  0.00    +0.000 C 
ATOM     21  C   UNL     1      -1.878  10.858  19.764  0.00  0.00    +0.000 C 
BRANCH  18  22
ATOM     22  C   UNL     1      -5.620  12.809  19.280  0.00  0.00    +0.000 A 
ATOM     23  C   UNL     1      -6.240  13.420  18.205  0.00  0.00    +0.000 A 
ATOM     24  C   UNL     1      -7.069  12.441  17.602  0.00  0.00    +0.000 A 
ATOM     25  C   UNL     1      -6.917  11.298  18.345  0.00  0.00    +0.000 A 
ATOM     26  O   UNL     1      -6.071  11.518  19.380  0.00  0.00    +0.000 OA
ENDBRANCH  18  22
ENDBRANCH  11  12
BRANCH   7  27
ATOM     27  C   UNL     1       2.619   5.709  19.839  0.00  0.00    +0.000 C 
BRANCH  27  28
ATOM     28  C   UNL     1       1.743   4.579  19.266  0.00  0.00    +0.000 C 
ATOM     29  C   UNL     1       2.547   3.557  18.460  0.00  0.00    +0.000 C 
ATOM     30  C   UNL     1       1.025   3.861  20.415  0.00  0.00    +0.000 C 
ENDBRANCH  27  28
ENDBRANCH   7  27
TORSDOF 4
ENDMDL
MODEL 2
REMARK VINA RESULT:      -6.9      3.578      6.529
REMARK  Name = 
REMARK  7 active torsions:
REMARK  status: ('A' for Active; 'I' for Inactive)
REMARK    1  A    between atoms: C_1  and  C_2
REMARK    2  A    between atoms: N_7  and  C_8
REMARK    3  A    between atoms: C_8  and  C_9
REMARK    4  A    between atoms: C_9  and  C_10
REMARK    5  A    between atoms: C_9  and  C_11
REMARK    6  A    between atoms: C_15  and  C_16
REMARK    7  A    between atoms: C_22  and  C_24
REMARK                            x       y       z     vdW  Elec       q    Type
REMARK                         _______ _______ _______ _____ _____    ______ ____
ROOT
ATOM      1  C   UNL     1      -1.328  11.831  22.749  0.00  0.00    +0.000 C 
ATOM      2  C   UNL     1      -0.482  11.093  21.782  0.00  0.00    +0.000 A 
ATOM      3  O   UNL     1       0.054   9.968  22.305  0.00  0.00    +0.000 OA
ATOM      4  C   UNL     1       0.729   9.332  21.326  0.00  0.00    +0.000 A 
ATOM      5  N   UNL     1       1.341   8.143  21.525  0.00  0.00    +0.000 NA
ATOM      6  C   UNL     1       1.848   7.648  20.451  0.00  0.00    +0.000 A 
ATOM      7  N   UNL     1       1.826   8.233  19.192  0.00  0.00    +0.000 N 
ATOM      8  C   UNL     1       1.282   9.511  18.983  0.00  0.00    +0.000 A 
ATOM      9  O   UNL     1       1.341  10.095  17.905  0.00  0.00    +0.000 OA
ATOM     10  C   UNL     1       0.649  10.067  20.160  0.00  0.00    +0.000 A 
ATOM     11  C   UNL     1      -0.096  11.257  20.451  0.00  0.00    +0.000 A 
ENDROOT
BRANCH  11  12
ATOM     12  C   UNL     1      -0.486  12.328  19.528  0.00  0.00    +0.000 C 
ATOM     13  O   UNL     1      -1.571  12.292  18.957  0.00  0.00    +0.000 OA
ATOM     14  N   UNL     1       0.372  13.415  19.373  0.00  0.00    +0.000 N 
ATOM     15  C   UNL     1      -0.095  14.607  18.649  0.00  0.00    +0.000 C 
ATOM     16  C   UNL     1       0.435  15.889  19.314  0.00  0.00    +0.000 C 
ATOM     17  N   UNL     1       1.897  15.838  19.494  0.00  0.00    +0.000 N 
ATOM     18  C   UNL     1       2.603  17.044  19.548  0.00  0.00    +0.000 C 
ATOM     19  O   UNL     1       2.021  18.126  19.489  0.00  0.00    +0.000 OA
ATOM     20  C   UNL     1       2.373  14.619  20.157  0.00  0.00    +0.000 C 
ATOM     21  C   UNL     1       1.829  13.354  19.487  0.00  0.00    +0.000 C 
BRANCH  18  22
ATOM     22  C   UNL     1       4.052  16.969  19.679  0.00  0.00    +0.000 A 
ATOM     23  C   UNL     1       4.859  16.749  20.781  0.00  0.00    +0.000 A 
ATOM     24  C   UNL     1       6.200  16.806  20.324  0.00  0.00    +0.000 A 
ATOM     25  C   UNL     1       6.136  17.065  18.978  0.00  0.00    +0.000 A 
ATOM     26  O   UNL     1       4.846  17.199  18.584  0.00  0.00    +0.000 OA
ENDBRANCH  18  22
ENDBRANCH  11  12
BRANCH   7  27
ATOM     27  C   UNL     1       2.363   7.492  18.057  0.00  0.00    +0.000 C 
BRANCH  27  28
ATOM     28  C   UNL     1       2.937   6.109  18.415  0.00  0.00    +0.000 C 
ATOM     29  C   UNL     1       2.054   4.957  17.929  0.00  0.00    +0.000 C 
ATOM     30  C   UNL     1       4.334   5.965  17.800  0.00  0.00    +0.000 C 
ENDBRANCH  27  28
ENDBRANCH   7  27
TORSDOF 4
ENDMDL
MODEL 3
REMARK VINA RESULT:      -6.8      4.429      7.492
REMARK  Name = 
REMARK  7 active torsions:
REMARK  status: ('A' for Active; 'I' for Inactive)
REMARK    1  A    between atoms: C_1  and  C_2
REMARK    2  A    between atoms: N_7  and  C_8
REMARK    3  A    between atoms: C_8  and  C_9
REMARK    4  A    between atoms: C_9  and  C_10
REMARK    5  A    between atoms: C_9  and  C_11
REMARK    6  A    between atoms: C_15  and  C_16
REMARK    7  A    between atoms: C_22  and  C_24
REMARK                            x       y       z     vdW  Elec       q    Type
REMARK                         _______ _______ _______ _____ _____    ______ ____
ROOT
ATOM      1  C   UNL     1       7.548   5.888  19.704  0.00  0.00    +0.000 C 
ATOM      2  C   UNL     1       6.864   5.480  18.455  0.00  0.00    +0.000 A 
ATOM      3  O   UNL     1       7.625   5.673  17.354  0.00  0.00    +0.000 OA
ATOM      4  C   UNL     1       6.948   5.194  16.290  0.00  0.00    +0.000 A 
ATOM      5  N   UNL     1       7.467   5.197  15.042  0.00  0.00    +0.000 NA
ATOM      6  C   UNL     1       6.715   4.611  14.179  0.00  0.00    +0.000 A 
ATOM      7  N   UNL     1       5.477   4.035  14.430  0.00  0.00    +0.000 N 
ATOM      8  C   UNL     1       4.876   4.105  15.697  0.00  0.00    +0.000 A 
ATOM      9  O   UNL     1       3.741   3.697  15.923  0.00  0.00    +0.000 OA
ATOM     10  C   UNL     1       5.725   4.705  16.705  0.00  0.00    +0.000 A 
ATOM     11  C   UNL     1       5.626   4.934  18.117  0.00  0.00    +0.000 A 
ENDROOT
BRANCH  11  12
ATOM     12  C   UNL     1       4.535   4.552  19.020  0.00  0.00    +0.000 C 
ATOM     13  O   UNL     1       4.543   3.458  19.575  0.00  0.00    +0.000 OA
ATOM     14  N   UNL     1       3.535   5.485  19.286  0.00  0.00    +0.000 N 
ATOM     15  C   UNL     1       2.570   5.224  20.363  0.00  0.00    +0.000 C 
ATOM     16  C   UNL     1       2.236   6.521  21.120  0.00  0.00    +0.000 C 
ATOM     17  N   UNL     1       1.820   7.592  20.197  0.00  0.00    +0.000 N 
ATOM     18  C   UNL     1       0.982   8.601  20.682  0.00  0.00    +0.000 C 
ATOM     19  O   UNL     1       0.629   8.624  21.861  0.00  0.00    +0.000 OA
ATOM     20  C   UNL     1       2.749   7.811  19.083  0.00  0.00    +0.000 C 
ATOM     21  C   UNL     1       3.076   6.509  18.346  0.00  0.00    +0.000 C 
BRANCH  18  22
ATOM     22  C   UNL     1       0.546   9.623  19.741  0.00  0.00    +0.000 A 
ATOM     23  C   UNL     1      -0.429   9.603  18.759  0.00  0.00    +0.000 A 
ATOM     24  C   UNL     1      -0.400  10.873  18.129  0.00  0.00    +0.000 A 
ATOM     25  C   UNL     1       0.591  11.589  18.752  0.00  0.00    +0.000 A 
ATOM     26  O   UNL     1       1.192  10.832  19.703  0.00  0.00    +0.000 OA
ENDBRANCH  18  22
ENDBRANCH  11  12
BRANCH   7  27
ATOM     27  C   UNL     1       4.796   3.322  13.356  0.00  0.00    +0.000 C 
BRANCH  27  28
ATOM     28  C   UNL     1       5.437   3.501  11.967  0.00  0.00    +0.000 C 
ATOM     29  C   UNL     1       6.337   2.328  11.575  0.00  0.00    +0.000 C 
ATOM     30  C   UNL     1       4.333   3.661  10.916  0.00  0.00    +0.000 C 
ENDBRANCH  27  28
ENDBRANCH   7  27
TORSDOF 4
ENDMDL
MODEL 4
REMARK VINA RESULT:      -6.8      3.331      6.603
REMARK  Name = 
REMARK  7 active torsions:
REMARK  status: ('A' for Active; 'I' for Inactive)
REMARK    1  A    between atoms: C_1  and  C_2
REMARK    2  A    between atoms: N_7  and  C_8
REMARK    3  A    between atoms: C_8  and  C_9
REMARK    4  A    between atoms: C_9  and  C_10
REMARK    5  A    between atoms: C_9  and  C_11
REMARK    6  A    between atoms: C_15  and  C_16
REMARK    7  A    between atoms: C_22  and  C_24
REMARK                            x       y       z     vdW  Elec       q    Type
REMARK                         _______ _______ _______ _____ _____    ______ ____
ROOT
ATOM      1  C   UNL     1      -1.020  11.143  22.346  0.00  0.00    +0.000 C 
ATOM      2  C   UNL     1      -0.156  10.456  21.359  0.00  0.00    +0.000 A 
ATOM      3  O   UNL     1       0.385   9.314  21.841  0.00  0.00    +0.000 OA
ATOM      4  C   UNL     1       1.078   8.727  20.843  0.00  0.00    +0.000 A 
ATOM      5  N   UNL     1       1.699   7.537  20.999  0.00  0.00    +0.000 NA
ATOM      6  C   UNL     1       2.223   7.092  19.911  0.00  0.00    +0.000 A 
ATOM      7  N   UNL     1       2.210   7.730  18.678  0.00  0.00    +0.000 N 
ATOM      8  C   UNL     1       1.655   9.009  18.516  0.00  0.00    +0.000 A 
ATOM      9  O   UNL     1       1.720   9.639  17.465  0.00  0.00    +0.000 OA
ATOM     10  C   UNL     1       1.004   9.510  19.708  0.00  0.00    +0.000 A 
ATOM     11  C   UNL     1       0.243  10.679  20.041  0.00  0.00    +0.000 A 
ENDROOT
BRANCH  11  12
ATOM     12  C   UNL     1      -0.147  11.784  19.159  0.00  0.00    +0.000 C 
ATOM     13  O   UNL     1      -1.262  11.807  18.646  0.00  0.00    +0.000 OA
ATOM     14  N   UNL     1       0.749  12.836  18.977  0.00  0.00    +0.000 N 
ATOM     15  C   UNL     1       0.297  14.061  18.301  0.00  0.00    +0.000 C 
ATOM     16  C   UNL     1       0.919  15.305  18.960  0.00  0.00    +0.000 C 
ATOM     17  N   UNL     1       2.384  15.188  19.060  0.00  0.00    +0.000 N 
ATOM     18  C   UNL     1       3.145  16.360  19.096  0.00  0.00    +0.000 C 
ATOM     19  O   UNL     1       2.610  17.468  19.088  0.00  0.00    +0.000 OA
ATOM     20  C   UNL     1       2.840  13.936  19.674  0.00  0.00    +0.000 C 
ATOM     21  C   UNL     1       2.206  12.709  19.012  0.00  0.00    +0.000 C 
BRANCH  18  22
ATOM     22  C   UNL     1       4.594  16.220  19.148  0.00  0.00    +0.000 A 
ATOM     23  C   UNL     1       5.521  16.649  20.081  0.00  0.00    +0.000 A 
ATOM     24  C   UNL     1       6.795  16.254  19.604  0.00  0.00    +0.000 A 
ATOM     25  C   UNL     1       6.577  15.618  18.407  0.00  0.00    +0.000 A 
ATOM     26  O   UNL     1       5.256  15.622  18.106  0.00  0.00    +0.000 OA
ENDBRANCH  18  22
ENDBRANCH  11  12
BRANCH   7  27
ATOM     27  C   UNL     1       2.766   7.043  17.519  0.00  0.00    +0.000 C 
BRANCH  27  28
ATOM     28  C   UNL     1       3.980   6.147  17.833  0.00  0.00    +0.000 C 
ATOM     29  C   UNL     1       3.742   4.680  17.473  0.00  0.00    +0.000 C 
ATOM     30  C   UNL     1       5.202   6.662  17.063  0.00  0.00    +0.000 C 
ENDBRANCH  27  28
ENDBRANCH   7  27
TORSDOF 4
ENDMDL
MODEL 5
REMARK VINA RESULT:      -6.7      3.327      6.245
REMARK  Name = 
REMARK  7 active torsions:
REMARK  status: ('A' for Active; 'I' for Inactive)
REMARK    1  A    between atoms: C_1  and  C_2
REMARK    2  A    between atoms: N_7  and  C_8
REMARK    3  A    between atoms: C_8  and  C_9
REMARK    4  A    between atoms: C_9  and  C_10
REMARK    5  A    between atoms: C_9  and  C_11
REMARK    6  A    between atoms: C_15  and  C_16
REMARK    7  A    between atoms: C_22  and  C_24
REMARK                            x       y       z     vdW  Elec       q    Type
REMARK                         _______ _______ _______ _____ _____    ______ ____
ROOT
ATOM      1  C   UNL     1      -1.063  11.136  22.338  0.00  0.00    +0.000 C 
ATOM      2  C   UNL     1      -0.194  10.414  21.380  0.00  0.00    +0.000 A 
ATOM      3  O   UNL     1       0.396   9.325  21.925  0.00  0.00    +0.000 OA
ATOM      4  C   UNL     1       1.090   8.697  20.954  0.00  0.00    +0.000 A 
ATOM      5  N   UNL     1       1.755   7.541  21.175  0.00  0.00    +0.000 NA
ATOM      6  C   UNL     1       2.274   7.044  20.108  0.00  0.00    +0.000 A 
ATOM      7  N   UNL     1       2.215   7.596  18.835  0.00  0.00    +0.000 N 
ATOM      8  C   UNL     1       1.612   8.843  18.602  0.00  0.00    +0.000 A 
ATOM      9  O   UNL     1       1.635   9.403  17.510  0.00  0.00    +0.000 OA
ATOM     10  C   UNL     1       0.966   9.399  19.772  0.00  0.00    +0.000 A 
ATOM     11  C   UNL     1       0.171  10.561  20.042  0.00  0.00    +0.000 A 
ENDROOT
BRANCH  11  12
ATOM     12  C   UNL     1      -0.274  11.591  19.098  0.00  0.00    +0.000 C 
ATOM     13  O   UNL     1      -1.313  11.444  18.462  0.00  0.00    +0.000 OA
ATOM     14  N   UNL     1       0.470  12.765  18.996  0.00  0.00    +0.000 N 
ATOM     15  C   UNL     1      -0.077  13.905  18.246  0.00  0.00    +0.000 C 
ATOM     16  C   UNL     1       0.272  15.232  18.943  0.00  0.00    +0.000 C 
ATOM     17  N   UNL     1       1.718  15.336  19.212  0.00  0.00    +0.000 N 
ATOM     18  C   UNL     1       2.287  16.610  19.309  0.00  0.00    +0.000 C 
ATOM     19  O   UNL     1       1.597  17.624  19.215  0.00  0.00    +0.000 OA
ATOM     20  C   UNL     1       2.281  14.170  19.901  0.00  0.00    +0.000 C 
ATOM     21  C   UNL     1       1.916  12.859  19.199  0.00  0.00    +0.000 C 
BRANCH  18  22
ATOM     22  C   UNL     1       3.725  16.688  19.527  0.00  0.00    +0.000 A 
ATOM     23  C   UNL     1       4.790  16.518  18.661  0.00  0.00    +0.000 A 
ATOM     24  C   UNL     1       5.971  16.686  19.427  0.00  0.00    +0.000 A 
ATOM     25  C   UNL     1       5.562  16.938  20.713  0.00  0.00    +0.000 A 
ATOM     26  O   UNL     1       4.209  16.907  20.791  0.00  0.00    +0.000 OA
ENDBRANCH  18  22
ENDBRANCH  11  12
BRANCH   7  27
ATOM     27  C   UNL     1       2.773   6.852  17.713  0.00  0.00    +0.000 C 
BRANCH  27  28
ATOM     28  C   UNL     1       3.020   5.359  17.999  0.00  0.00    +0.000 C 
ATOM     29  C   UNL     1       1.800   4.488  17.697  0.00  0.00    +0.000 C 
ATOM     30  C   UNL     1       4.207   4.872  17.160  0.00  0.00    +0.000 C 
ENDBRANCH  27  28
ENDBRANCH   7  27
TORSDOF 4
ENDMDL
MODEL 6
REMARK VINA RESULT:      -6.6      1.414      1.654
REMARK  Name = 
REMARK  7 active torsions:
REMARK  status: ('A' for Active; 'I' for Inactive)
REMARK    1  A    between atoms: C_1  and  C_2
REMARK    2  A    between atoms: N_7  and  C_8
REMARK    3  A    between atoms: C_8  and  C_9
REMARK    4  A    between atoms: C_9  and  C_10
REMARK    5  A    between atoms: C_9  and  C_11
REMARK    6  A    between atoms: C_15  and  C_16
REMARK    7  A    between atoms: C_22  and  C_24
REMARK                            x       y       z     vdW  Elec       q    Type
REMARK                         _______ _______ _______ _____ _____    ______ ____
ROOT
ATOM      1  C   UNL     1       0.772  13.044  19.168  0.00  0.00    +0.000 C 
ATOM      2  C   UNL     1       0.983  11.581  19.272  0.00  0.00    +0.000 A 
ATOM      3  O   UNL     1       1.543  11.052  18.161  0.00  0.00    +0.000 OA
ATOM      4  C   UNL     1       1.770   9.742  18.391  0.00  0.00    +0.000 A 
ATOM      5  N   UNL     1       2.370   8.943  17.481  0.00  0.00    +0.000 NA
ATOM      6  C   UNL     1       2.589   7.753  17.919  0.00  0.00    +0.000 A 
ATOM      7  N   UNL     1       2.248   7.267  19.174  0.00  0.00    +0.000 N 
ATOM      8  C   UNL     1       1.539   8.051  20.098  0.00  0.00    +0.000 A 
ATOM      9  O   UNL     1       1.135   7.617  21.173  0.00  0.00    +0.000 OA
ATOM     10  C   UNL     1       1.332   9.415  19.659  0.00  0.00    +0.000 A 
ATOM     11  C   UNL     1       0.760  10.597  20.235  0.00  0.00    +0.000 A 
ENDROOT
BRANCH  11  12
ATOM     12  C   UNL     1       0.201  10.766  21.581  0.00  0.00    +0.000 C 
ATOM     13  O   UNL     1       0.812  10.358  22.563  0.00  0.00    +0.000 OA
ATOM     14  N   UNL     1      -0.998  11.463  21.718  0.00  0.00    +0.000 N 
ATOM     15  C   UNL     1      -1.456  11.857  23.059  0.00  0.00    +0.000 C 
ATOM     16  C   UNL     1      -2.106  13.251  23.023  0.00  0.00    +0.000 C 
ATOM     17  N   UNL     1      -3.154  13.331  21.990  0.00  0.00    +0.000 N 
ATOM     18  C   UNL     1      -4.189  14.256  22.162  0.00  0.00    +0.000 C 
ATOM     19  O   UNL     1      -4.209  15.017  23.129  0.00  0.00    +0.000 OA
ATOM     20  C   UNL     1      -2.720  12.876  20.665  0.00  0.00    +0.000 C 
ATOM     21  C   UNL     1      -2.068  11.491  20.721  0.00  0.00    +0.000 C 
BRANCH  18  22
ATOM     22  C   UNL     1      -5.239  14.284  21.153  0.00  0.00    +0.000 A 
ATOM     23  C   UNL     1      -6.277  13.408  20.890  0.00  0.00    +0.000 A 
ATOM     24  C   UNL     1      -6.976  13.926  19.771  0.00  0.00    +0.000 A 
ATOM     25  C   UNL     1      -6.323  15.078  19.410  0.00  0.00    +0.000 A 
ATOM     26  O   UNL     1      -5.253  15.285  20.216  0.00  0.00    +0.000 OA
ENDBRANCH  18  22
ENDBRANCH  11  12
BRANCH   7  27
ATOM     27  C   UNL     1       2.656   5.919  19.547  0.00  0.00    +0.000 C 
BRANCH  27  28
ATOM     28  C   UNL     1       1.651   4.819  19.158  0.00  0.00    +0.000 C 
ATOM     29  C   UNL     1       2.080   4.037  17.916  0.00  0.00    +0.000 C 
ATOM     30  C   UNL     1       1.483   3.847  20.332  0.00  0.00    +0.000 C 
ENDBRANCH  27  28
ENDBRANCH   7  27
TORSDOF 4
ENDMDL
MODEL 7
REMARK VINA RESULT:      -6.4      4.909      8.195
REMARK  Name = 
REMARK  7 active torsions:
REMARK  status: ('A' for Active; 'I' for Inactive)
REMARK    1  A    between atoms: C_1  and  C_2
REMARK    2  A    between atoms: N_7  and  C_8
REMARK    3  A    between atoms: C_8  and  C_9
REMARK    4  A    between atoms: C_9  and  C_10
REMARK    5  A    between atoms: C_9  and  C_11
REMARK    6  A    between atoms: C_15  and  C_16
REMARK    7  A    between atoms: C_22  and  C_24
REMARK                            x       y       z     vdW  Elec       q    Type
REMARK                         _______ _______ _______ _____ _____    ______ ____
ROOT
ATOM      1  C   UNL     1       7.248   5.811  18.863  0.00  0.00    +0.000 C 
ATOM      2  C   UNL     1       6.820   5.440  17.495  0.00  0.00    +0.000 A 
ATOM      3  O   UNL     1       7.738   5.758  16.554  0.00  0.00    +0.000 OA
ATOM      4  C   UNL     1       7.291   5.304  15.365  0.00  0.00    +0.000 A 
ATOM      5  N   UNL     1       8.013   5.427  14.229  0.00  0.00    +0.000 NA
ATOM      6  C   UNL     1       7.468   4.848  13.217  0.00  0.00    +0.000 A 
ATOM      7  N   UNL     1       6.255   4.171  13.218  0.00  0.00    +0.000 N 
ATOM      8  C   UNL     1       5.445   4.115  14.364  0.00  0.00    +0.000 A 
ATOM      9  O   UNL     1       4.325   3.614  14.366  0.00  0.00    +0.000 OA
ATOM     10  C   UNL     1       6.059   4.705  15.534  0.00  0.00    +0.000 A 
ATOM     11  C   UNL     1       5.705   4.832  16.917  0.00  0.00    +0.000 A 
ENDROOT
BRANCH  11  12
ATOM     12  C   UNL     1       4.511   4.315  17.596  0.00  0.00    +0.000 C 
ATOM     13  O   UNL     1       4.354   3.107  17.742  0.00  0.00    +0.000 OA
ATOM     14  N   UNL     1       3.603   5.228  18.130  0.00  0.00    +0.000 N 
ATOM     15  C   UNL     1       2.534   4.749  19.017  0.00  0.00    +0.000 C 
ATOM     16  C   UNL     1       2.288   5.748  20.161  0.00  0.00    +0.000 C 
ATOM     17  N   UNL     1       2.067   7.112  19.647  0.00  0.00    +0.000 N 
ATOM     18  C   UNL     1       1.311   7.999  20.419  0.00  0.00    +0.000 C 
ATOM     19  O   UNL     1       0.872   7.672  21.520  0.00  0.00    +0.000 OA
ATOM     20  C   UNL     1       3.099   7.568  18.709  0.00  0.00    +0.000 C 
ATOM     21  C   UNL     1       3.336   6.558  17.583  0.00  0.00    +0.000 C 
BRANCH  18  22
ATOM     22  C   UNL     1       1.066   9.326  19.870  0.00  0.00    +0.000 A 
ATOM     23  C   UNL     1       0.854   9.752  18.570  0.00  0.00    +0.000 A 
ATOM     24  C   UNL     1       0.696  11.159  18.622  0.00  0.00    +0.000 A 
ATOM     25  C   UNL     1       0.830  11.513  19.941  0.00  0.00    +0.000 A 
ATOM     26  O   UNL     1       1.087  10.419  20.698  0.00  0.00    +0.000 OA
ENDBRANCH  18  22
ENDBRANCH  11  12
BRANCH   7  27
ATOM     27  C   UNL     1       5.826   3.485  12.007  0.00  0.00    +0.000 C 
BRANCH  27  28
ATOM     28  C   UNL     1       6.436   2.084  11.819  0.00  0.00    +0.000 C 
ATOM     29  C   UNL     1       5.488   1.114  11.110  0.00  0.00    +0.000 C 
ATOM     30  C   UNL     1       7.734   2.199  11.010  0.00  0.00    +0.000 C 
ENDBRANCH  27  28
ENDBRANCH   7  27
TORSDOF 4
ENDMDL
MODEL 8
REMARK VINA RESULT:      -6.4      0.762      1.050
REMARK  Name = 
REMARK  7 active torsions:
REMARK  status: ('A' for Active; 'I' for Inactive)
REMARK    1  A    between atoms: C_1  and  C_2
REMARK    2  A    between atoms: N_7  and  C_8
REMARK    3  A    between atoms: C_8  and  C_9
REMARK    4  A    between atoms: C_9  and  C_10
REMARK    5  A    between atoms: C_9  and  C_11
REMARK    6  A    between atoms: C_15  and  C_16
REMARK    7  A    between atoms: C_22  and  C_24
REMARK                            x       y       z     vdW  Elec       q    Type
REMARK                         _______ _______ _______ _____ _____    ______ ____
ROOT
ATOM      1  C   UNL     1       1.364  12.908  18.248  0.00  0.00    +0.000 C 
ATOM      2  C   UNL     1       1.459  11.463  18.561  0.00  0.00    +0.000 A 
ATOM      3  O   UNL     1       2.094  10.759  17.597  0.00  0.00    +0.000 OA
ATOM      4  C   UNL     1       2.202   9.481  18.016  0.00  0.00    +0.000 A 
ATOM      5  N   UNL     1       2.836   8.534  17.289  0.00  0.00    +0.000 NA
ATOM      6  C   UNL     1       2.922   7.403  17.896  0.00  0.00    +0.000 A 
ATOM      7  N   UNL     1       2.418   7.111  19.156  0.00  0.00    +0.000 N 
ATOM      8  C   UNL     1       1.673   8.050  19.887  0.00  0.00    +0.000 A 
ATOM      9  O   UNL     1       1.129   7.788  20.955  0.00  0.00    +0.000 OA
ATOM     10  C   UNL     1       1.611   9.352  19.257  0.00  0.00    +0.000 A 
ATOM     11  C   UNL     1       1.067  10.631  19.609  0.00  0.00    +0.000 A 
ENDROOT
BRANCH  11  12
ATOM     12  C   UNL     1       0.383  11.011  20.850  0.00  0.00    +0.000 C 
ATOM     13  O   UNL     1       0.996  11.043  21.913  0.00  0.00    +0.000 OA
ATOM     14  N   UNL     1      -0.952  11.402  20.779  0.00  0.00    +0.000 N 
ATOM     15  C   UNL     1      -1.590  12.014  21.954  0.00  0.00    +0.000 C 
ATOM     16  C   UNL     1      -2.543  13.144  21.528  0.00  0.00    +0.000 C 
ATOM     17  N   UNL     1      -3.500  12.686  20.504  0.00  0.00    +0.000 N 
ATOM     18  C   UNL     1      -4.732  13.339  20.404  0.00  0.00    +0.000 C 
ATOM     19  O   UNL     1      -5.003  14.301  21.121  0.00  0.00    +0.000 OA
ATOM     20  C   UNL     1      -2.871  12.014  19.361  0.00  0.00    +0.000 C 
ATOM     21  C   UNL     1      -1.920  10.899  19.804  0.00  0.00    +0.000 C 
BRANCH  18  22
ATOM     22  C   UNL     1      -5.680  12.838  19.418  0.00  0.00    +0.000 A 
ATOM     23  C   UNL     1      -6.280  11.600  19.275  0.00  0.00    +0.000 A 
ATOM     24  C   UNL     1      -7.095  11.672  18.118  0.00  0.00    +0.000 A 
ATOM     25  C   UNL     1      -6.940  12.940  17.617  0.00  0.00    +0.000 A 
ATOM     26  O   UNL     1      -6.062  13.642  18.374  0.00  0.00    +0.000 OA
ENDBRANCH  18  22
ENDBRANCH  11  12
BRANCH   7  27
ATOM     27  C   UNL     1       2.688   5.804  19.741  0.00  0.00    +0.000 C 
BRANCH  27  28
ATOM     28  C   UNL     1       3.575   4.890  18.876  0.00  0.00    +0.000 C 
ATOM     29  C   UNL     1       5.037   4.882  19.326  0.00  0.00    +0.000 C 
ATOM     30  C   UNL     1       3.027   3.459  18.922  0.00  0.00    +0.000 C 
ENDBRANCH  27  28
ENDBRANCH   7  27
TORSDOF 4
ENDMDL
MODEL 9
REMARK VINA RESULT:      -6.4      5.474      7.819
REMARK  Name = 
REMARK  7 active torsions:
REMARK  status: ('A' for Active; 'I' for Inactive)
REMARK    1  A    between atoms: C_1  and  C_2
REMARK    2  A    between atoms: N_7  and  C_8
REMARK    3  A    between atoms: C_8  and  C_9
REMARK    4  A    between atoms: C_9  and  C_10
REMARK    5  A    between atoms: C_9  and  C_11
REMARK    6  A    between atoms: C_15  and  C_16
REMARK    7  A    between atoms: C_22  and  C_24
REMARK                            x       y       z     vdW  Elec       q    Type
REMARK                         _______ _______ _______ _____ _____    ______ ____
ROOT
ATOM      1  C   UNL     1       4.407  17.259  22.457  0.00  0.00    +0.000 C 
ATOM      2  C   UNL     1       5.204  16.569  21.417  0.00  0.00    +0.000 A 
ATOM      3  O   UNL     1       6.469  16.306  21.814  0.00  0.00    +0.000 OA
ATOM      4  C   UNL     1       7.078  15.605  20.835  0.00  0.00    +0.000 A 
ATOM      5  N   UNL     1       8.344  15.149  20.954  0.00  0.00    +0.000 NA
ATOM      6  C   UNL     1       8.716  14.421  19.960  0.00  0.00    +0.000 A 
ATOM      7  N   UNL     1       7.954  14.116  18.840  0.00  0.00    +0.000 N 
ATOM      8  C   UNL     1       6.672  14.658  18.652  0.00  0.00    +0.000 A 
ATOM      9  O   UNL     1       6.019  14.489  17.627  0.00  0.00    +0.000 OA
ATOM     10  C   UNL     1       6.203  15.432  19.781  0.00  0.00    +0.000 A 
ATOM     11  C   UNL     1       4.983  16.106  20.120  0.00  0.00    +0.000 A 
ENDROOT
BRANCH  11  12
ATOM     12  C   UNL     1       3.740  16.169  19.343  0.00  0.00    +0.000 C 
ATOM     13  O   UNL     1       3.596  17.019  18.469  0.00  0.00    +0.000 OA
ATOM     14  N   UNL     1       2.764  15.201  19.570  0.00  0.00    +0.000 N 
ATOM     15  C   UNL     1       1.624  15.093  18.649  0.00  0.00    +0.000 C 
ATOM     16  C   UNL     1       1.245  13.619  18.424  0.00  0.00    +0.000 C 
ATOM     17  N   UNL     1       1.045  12.912  19.701  0.00  0.00    +0.000 N 
ATOM     18  C   UNL     1       0.198  11.800  19.721  0.00  0.00    +0.000 C 
ATOM     19  O   UNL     1      -0.340  11.390  18.694  0.00  0.00    +0.000 OA
ATOM     20  C   UNL     1       2.153  13.072  20.650  0.00  0.00    +0.000 C 
ATOM     21  C   UNL     1       2.522  14.544  20.855  0.00  0.00    +0.000 C 
BRANCH  18  22
ATOM     22  C   UNL     1      -0.022  11.145  21.004  0.00  0.00    +0.000 A 
ATOM     23  C   UNL     1       0.443   9.943  21.507  0.00  0.00    +0.000 A 
ATOM     24  C   UNL     1      -0.113   9.800  22.803  0.00  0.00    +0.000 A 
ATOM     25  C   UNL     1      -0.890  10.912  23.013  0.00  0.00    +0.000 A 
ATOM     26  O   UNL     1      -0.869  11.714  21.921  0.00  0.00    +0.000 OA
ENDBRANCH  18  22
ENDBRANCH  11  12
BRANCH   7  27
ATOM     27  C   UNL     1       8.491  13.194  17.848  0.00  0.00    +0.000 C 
BRANCH  27  28
ATOM     28  C   UNL     1       9.540  12.209  18.397  0.00  0.00    +0.000 C 
ATOM     29  C   UNL     1       9.070  10.754  18.348  0.00  0.00    +0.000 C 
ATOM     30  C   UNL     1      10.836  12.346  17.589  0.00  0.00    +0.000 C 
ENDBRANCH  27  28
ENDBRANCH   7  27
TORSDOF 4
ENDMDL
