MODEL 1
REMARK VINA RESULT:      -8.7      0.000      0.000
REMARK  Name = 
REMARK  11 active torsions:
REMARK  status: ('A' for Active; 'I' for Inactive)
REMARK    1  A    between atoms: C_1  and  O_2
REMARK    2  A    between atoms: O_2  and  C_3
REMARK    3  A    between atoms: C_6  and  N_7
REMARK    4  A    between atoms: N_7  and  C_8
REMARK    5  A    between atoms: C_8  and  N_10
REMARK    6  A    between atoms: N_10  and  C_11
REMARK    7  A    between atoms: C_14  and  O_15
REMARK    8  A    between atoms: O_15  and  C_16
REMARK    9  A    between atoms: C_16  and  C_17
REMARK   10  A    between atoms: C_17  and  C_18
REMARK   11  A    between atoms: C_22  and  N_23
REMARK                            x       y       z     vdW  Elec       q    Type
REMARK                         _______ _______ _______ _____ _____    ______ ____
ROOT
ATOM      1  C   UNL     1       1.636   9.327  18.670  0.00  0.00    +0.000 A 
ATOM      2  C   UNL     1       1.304   9.107  20.009  0.00  0.00    +0.000 A 
ATOM      3  C   UNL     1       1.524   7.874  20.608  0.00  0.00    +0.000 A 
ATOM      4  C   UNL     1       2.068   6.821  19.876  0.00  0.00    +0.000 A 
ATOM      5  C   UNL     1       2.369   7.021  18.524  0.00  0.00    +0.000 A 
ATOM      6  C   UNL     1       2.135   8.269  17.916  0.00  0.00    +0.000 A 
ENDROOT
BRANCH   1   7
ATOM      7  N   UNL     1       1.420  10.589  18.073  0.00  0.00    +0.000 N 
ATOM      8  H   UNL     1       1.576  10.655  17.073  0.00  0.00    +0.000 HD
BRANCH   7   9
ATOM      9  C   UNL     1       0.677  11.603  18.651  0.00  0.00    +0.000 C 
ATOM     10  S   UNL     1       1.284  13.156  18.684  0.00  0.00    +0.000 S 
BRANCH   9  11
ATOM     11  N   UNL     1      -0.471  11.151  19.272  0.00  0.00    +0.000 N 
ATOM     12  H   UNL     1      -0.312  10.821  20.218  0.00  0.00    +0.000 HD
BRANCH  11  16
ATOM     13  C   UNL     1      -4.517  11.179  18.119  0.00  0.00    +0.000 A 
ATOM     14  C   UNL     1      -3.664  10.193  17.622  0.00  0.00    +0.000 A 
ATOM     15  C   UNL     1      -2.311  10.176  17.971  0.00  0.00    +0.000 A 
ATOM     16  C   UNL     1      -1.802  11.149  18.830  0.00  0.00    +0.000 A 
ATOM     17  C   UNL     1      -2.666  12.105  19.371  0.00  0.00    +0.000 A 
ATOM     18  C   UNL     1      -4.013  12.139  18.997  0.00  0.00    +0.000 A 
BRANCH  13  20
ATOM     19  C   UNL     1      -6.775  10.632  18.585  0.00  0.00    +0.000 C 
ATOM     20  O   UNL     1      -5.803  11.110  17.663  0.00  0.00    +0.000 OA
ENDBRANCH  13  20
ENDBRANCH  11  16
ENDBRANCH   9  11
ENDBRANCH   7   9
ENDBRANCH   1   7
BRANCH   4  21
ATOM     21  O   UNL     1       2.323   5.573  20.390  0.00  0.00    +0.000 OA
BRANCH  21  22
ATOM     22  C   UNL     1       1.547   4.524  19.801  0.00  0.00    +0.000 C 
BRANCH  22  23
ATOM     23  C   UNL     1       2.430   3.461  19.145  0.00  0.00    +0.000 C 
ATOM     24  C   UNL     1       1.954   2.051  19.488  0.00  0.00    +0.000 C 
ATOM     25  C   UNL     1       2.541   3.676  17.609  0.00  0.00    +0.000 C 
ATOM     26  N   UNL     1       3.958   3.900  17.480  0.00  0.00    +0.000 N 
ATOM     27  C   UNL     1       4.858   4.143  16.515  0.00  0.00    +0.000 A 
ATOM     28  C   UNL     1       6.052   4.247  17.229  0.00  0.00    +0.000 A 
ATOM     29  N   UNL     1       5.856   4.072  18.601  0.00  0.00    +0.000 NA
ATOM     30  C   UNL     1       4.574   3.862  18.678  0.00  0.00    +0.000 A 
ATOM     31  O   UNL     1       3.781   3.618  19.705  0.00  0.00    +0.000 OA
BRANCH  28  32
ATOM     32  N   UNL     1       7.370   4.501  16.690  0.00  0.00    +0.000 N 
ATOM     33  O   UNL     1       8.330   4.195  17.413  0.00  0.00    +0.000 OA
ATOM     34  O   UNL     1       7.448   4.999  15.560  0.00  0.00    +0.000 OA
ENDBRANCH  28  32
ENDBRANCH  22  23
ENDBRANCH  21  22
ENDBRANCH   4  21
TORSDOF 9
ENDMDL
MODEL 2
REMARK VINA RESULT:      -8.7      0.671      1.199
REMARK  Name = 
REMARK  11 active torsions:
REMARK  status: ('A' for Active; 'I' for Inactive)
REMARK    1  A    between atoms: C_1  and  O_2
REMARK    2  A    between atoms: O_2  and  C_3
REMARK    3  A    between atoms: C_6  and  N_7
REMARK    4  A    between atoms: N_7  and  C_8
REMARK    5  A    between atoms: C_8  and  N_10
REMARK    6  A    between atoms: N_10  and  C_11
REMARK    7  A    between atoms: C_14  and  O_15
REMARK    8  A    between atoms: O_15  and  C_16
REMARK    9  A    between atoms: C_16  and  C_17
REMARK   10  A    between atoms: C_17  and  C_18
REMARK   11  A    between atoms: C_22  and  N_23
REMARK                            x       y       z     vdW  Elec       q    Type
REMARK                         _______ _______ _______ _____ _____    ______ ____
ROOT
ATOM      1  C   UNL     1       1.628   9.405  19.222  0.00  0.00    +0.000 A 
ATOM      2  C   UNL     1       1.150   9.046  20.484  0.00  0.00    +0.000 A 
ATOM      3  C   UNL     1       1.291   7.749  20.960  0.00  0.00    +0.000 A 
ATOM      4  C   UNL     1       1.898   6.772  20.175  0.00  0.00    +0.000 A 
ATOM      5  C   UNL     1       2.346   7.114  18.895  0.00  0.00    +0.000 A 
ATOM      6  C   UNL     1       2.194   8.426  18.411  0.00  0.00    +0.000 A 
ENDROOT
BRANCH   1   7
ATOM      7  N   UNL     1       1.492  10.731  18.752  0.00  0.00    +0.000 N 
ATOM      8  H   UNL     1       2.128  11.023  18.017  0.00  0.00    +0.000 HD
BRANCH   7   9
ATOM      9  C   UNL     1       0.362  11.508  18.937  0.00  0.00    +0.000 C 
ATOM     10  S   UNL     1       0.206  12.421  20.324  0.00  0.00    +0.000 S 
BRANCH   9  11
ATOM     11  N   UNL     1      -0.596  11.315  17.961  0.00  0.00    +0.000 N 
ATOM     12  H   UNL     1      -0.212  11.277  17.024  0.00  0.00    +0.000 HD
BRANCH  11  16
ATOM     13  C   UNL     1      -4.735  10.583  18.133  0.00  0.00    +0.000 A 
ATOM     14  C   UNL     1      -4.229  11.798  18.596  0.00  0.00    +0.000 A 
ATOM     15  C   UNL     1      -2.856  12.056  18.571  0.00  0.00    +0.000 A 
ATOM     16  C   UNL     1      -1.976  11.094  18.076  0.00  0.00    +0.000 A 
ATOM     17  C   UNL     1      -2.487   9.899  17.562  0.00  0.00    +0.000 A 
ATOM     18  C   UNL     1      -3.858   9.630  17.615  0.00  0.00    +0.000 A 
BRANCH  13  20
ATOM     19  C   UNL     1      -6.858  11.634  18.207  0.00  0.00    +0.000 C 
ATOM     20  O   UNL     1      -6.088  10.439  18.257  0.00  0.00    +0.000 OA
ENDBRANCH  13  20
ENDBRANCH  11  16
ENDBRANCH   9  11
ENDBRANCH   7   9
ENDBRANCH   1   7
BRANCH   4  21
ATOM     21  O   UNL     1       2.082   5.469  20.569  0.00  0.00    +0.000 OA
BRANCH  21  22
ATOM     22  C   UNL     1       1.368   4.509  19.781  0.00  0.00    +0.000 C 
BRANCH  22  23
ATOM     23  C   UNL     1       2.311   3.512  19.105  0.00  0.00    +0.000 C 
ATOM     24  C   UNL     1       1.870   2.071  19.354  0.00  0.00    +0.000 C 
ATOM     25  C   UNL     1       2.475   3.813  17.589  0.00  0.00    +0.000 C 
ATOM     26  N   UNL     1       3.887   4.088  17.530  0.00  0.00    +0.000 N 
ATOM     27  C   UNL     1       4.816   4.412  16.616  0.00  0.00    +0.000 A 
ATOM     28  C   UNL     1       5.977   4.514  17.383  0.00  0.00    +0.000 A 
ATOM     29  N   UNL     1       5.733   4.259  18.734  0.00  0.00    +0.000 NA
ATOM     30  C   UNL     1       4.458   4.004  18.748  0.00  0.00    +0.000 A 
ATOM     31  O   UNL     1       3.633   3.681  19.728  0.00  0.00    +0.000 OA
BRANCH  28  32
ATOM     32  N   UNL     1       7.305   4.839  16.912  0.00  0.00    +0.000 N 
ATOM     33  O   UNL     1       7.389   5.765  16.091  0.00  0.00    +0.000 OA
ATOM     34  O   UNL     1       8.254   4.179  17.354  0.00  0.00    +0.000 OA
ENDBRANCH  28  32
ENDBRANCH  22  23
ENDBRANCH  21  22
ENDBRANCH   4  21
TORSDOF 9
ENDMDL
MODEL 3
REMARK VINA RESULT:      -8.6      1.767      2.543
REMARK  Name = 
REMARK  11 active torsions:
REMARK  status: ('A' for Active; 'I' for Inactive)
REMARK    1  A    between atoms: C_1  and  O_2
REMARK    2  A    between atoms: O_2  and  C_3
REMARK    3  A    between atoms: C_6  and  N_7
REMARK    4  A    between atoms: N_7  and  C_8
REMARK    5  A    between atoms: C_8  and  N_10
REMARK    6  A    between atoms: N_10  and  C_11
REMARK    7  A    between atoms: C_14  and  O_15
REMARK    8  A    between atoms: O_15  and  C_16
REMARK    9  A    between atoms: C_16  and  C_17
REMARK   10  A    between atoms: C_17  and  C_18
REMARK   11  A    between atoms: C_22  and  N_23
REMARK                            x       y       z     vdW  Elec       q    Type
REMARK                         _______ _______ _______ _____ _____    ______ ____
ROOT
ATOM      1  C   UNL     1       1.158   9.386  20.278  0.00  0.00    +0.000 A 
ATOM      2  C   UNL     1       1.670   9.345  18.979  0.00  0.00    +0.000 A 
ATOM      3  C   UNL     1       2.194   8.171  18.454  0.00  0.00    +0.000 A 
ATOM      4  C   UNL     1       2.234   7.010  19.222  0.00  0.00    +0.000 A 
ATOM      5  C   UNL     1       1.758   7.052  20.537  0.00  0.00    +0.000 A 
ATOM      6  C   UNL     1       1.236   8.246  21.071  0.00  0.00    +0.000 A 
ENDROOT
BRANCH   1   7
ATOM      7  N   UNL     1       0.615  10.582  20.799  0.00  0.00    +0.000 N 
ATOM      8  H   UNL     1       0.933  10.866  21.720  0.00  0.00    +0.000 HD
BRANCH   7   9
ATOM      9  C   UNL     1      -0.000  11.554  20.031  0.00  0.00    +0.000 C 
ATOM     10  S   UNL     1       0.834  12.942  19.630  0.00  0.00    +0.000 S 
BRANCH   9  11
ATOM     11  N   UNL     1      -1.336  11.294  19.793  0.00  0.00    +0.000 N 
ATOM     12  H   UNL     1      -1.914  11.370  20.622  0.00  0.00    +0.000 HD
BRANCH  11  16
ATOM     13  C   UNL     1      -3.509  10.475  16.284  0.00  0.00    +0.000 A 
ATOM     14  C   UNL     1      -2.310   9.804  16.527  0.00  0.00    +0.000 A 
ATOM     15  C   UNL     1      -1.558  10.075  17.673  0.00  0.00    +0.000 A 
ATOM     16  C   UNL     1      -2.008  11.023  18.591  0.00  0.00    +0.000 A 
ATOM     17  C   UNL     1      -3.234  11.656  18.377  0.00  0.00    +0.000 A 
ATOM     18  C   UNL     1      -3.971  11.406  17.215  0.00  0.00    +0.000 A 
BRANCH  13  20
ATOM     19  C   UNL     1      -3.307  10.182  13.942  0.00  0.00    +0.000 C 
ATOM     20  O   UNL     1      -4.122  10.152  15.107  0.00  0.00    +0.000 OA
ENDBRANCH  13  20
ENDBRANCH  11  16
ENDBRANCH   9  11
ENDBRANCH   7   9
ENDBRANCH   1   7
BRANCH   4  21
ATOM     21  O   UNL     1       2.729   5.808  18.780  0.00  0.00    +0.000 OA
BRANCH  21  22
ATOM     22  C   UNL     1       4.091   5.561  19.147  0.00  0.00    +0.000 C 
BRANCH  22  23
ATOM     23  C   UNL     1       4.694   4.401  18.352  0.00  0.00    +0.000 C 
ATOM     24  C   UNL     1       4.722   3.116  19.176  0.00  0.00    +0.000 C 
ATOM     25  C   UNL     1       3.970   4.201  16.991  0.00  0.00    +0.000 C 
ATOM     26  N   UNL     1       5.058   4.445  16.079  0.00  0.00    +0.000 N 
ATOM     27  C   UNL     1       5.283   4.460  14.757  0.00  0.00    +0.000 A 
ATOM     28  C   UNL     1       6.632   4.805  14.680  0.00  0.00    +0.000 A 
ATOM     29  N   UNL     1       7.195   4.996  15.944  0.00  0.00    +0.000 NA
ATOM     30  C   UNL     1       6.192   4.757  16.737  0.00  0.00    +0.000 A 
ATOM     31  O   UNL     1       6.089   4.763  18.054  0.00  0.00    +0.000 OA
BRANCH  28  32
ATOM     32  N   UNL     1       7.424   4.963  13.479  0.00  0.00    +0.000 N 
ATOM     33  O   UNL     1       7.059   4.311  12.488  0.00  0.00    +0.000 OA
ATOM     34  O   UNL     1       8.396   5.727  13.521  0.00  0.00    +0.000 OA
ENDBRANCH  28  32
ENDBRANCH  22  23
ENDBRANCH  21  22
ENDBRANCH   4  21
TORSDOF 9
ENDMDL
MODEL 4
REMARK VINA RESULT:      -8.6      3.601     10.567
REMARK  Name = 
REMARK  11 active torsions:
REMARK  status: ('A' for Active; 'I' for Inactive)
REMARK    1  A    between atoms: C_1  and  O_2
REMARK    2  A    between atoms: O_2  and  C_3
REMARK    3  A    between atoms: C_6  and  N_7
REMARK    4  A    between atoms: N_7  and  C_8
REMARK    5  A    between atoms: C_8  and  N_10
REMARK    6  A    between atoms: N_10  and  C_11
REMARK    7  A    between atoms: C_14  and  O_15
REMARK    8  A    between atoms: O_15  and  C_16
REMARK    9  A    between atoms: C_16  and  C_17
REMARK   10  A    between atoms: C_17  and  C_18
REMARK   11  A    between atoms: C_22  and  N_23
REMARK                            x       y       z     vdW  Elec       q    Type
REMARK                         _______ _______ _______ _____ _____    ______ ____
ROOT
ATOM      1  C   UNL     1       2.737   6.861  19.488  0.00  0.00    +0.000 A 
ATOM      2  C   UNL     1       1.979   7.550  20.437  0.00  0.00    +0.000 A 
ATOM      3  C   UNL     1       1.229   8.663  20.083  0.00  0.00    +0.000 A 
ATOM      4  C   UNL     1       1.232   9.128  18.771  0.00  0.00    +0.000 A 
ATOM      5  C   UNL     1       2.018   8.467  17.820  0.00  0.00    +0.000 A 
ATOM      6  C   UNL     1       2.785   7.344  18.183  0.00  0.00    +0.000 A 
ENDROOT
BRANCH   1   7
ATOM      7  N   UNL     1       3.487   5.721  19.854  0.00  0.00    +0.000 N 
ATOM      8  H   UNL     1       4.169   5.840  20.595  0.00  0.00    +0.000 HD
BRANCH   7   9
ATOM      9  C   UNL     1       3.115   4.421  19.560  0.00  0.00    +0.000 C 
ATOM     10  S   UNL     1       1.727   3.786  20.232  0.00  0.00    +0.000 S 
BRANCH   9  11
ATOM     11  N   UNL     1       4.058   3.741  18.814  0.00  0.00    +0.000 N 
ATOM     12  H   UNL     1       4.051   2.740  18.974  0.00  0.00    +0.000 HD
BRANCH  11  16
ATOM     13  C   UNL     1       6.676   5.001  15.771  0.00  0.00    +0.000 A 
ATOM     14  C   UNL     1       7.125   4.950  17.091  0.00  0.00    +0.000 A 
ATOM     15  C   UNL     1       6.268   4.557  18.123  0.00  0.00    +0.000 A 
ATOM     16  C   UNL     1       4.949   4.207  17.836  0.00  0.00    +0.000 A 
ATOM     17  C   UNL     1       4.514   4.206  16.508  0.00  0.00    +0.000 A 
ATOM     18  C   UNL     1       5.364   4.628  15.481  0.00  0.00    +0.000 A 
BRANCH  13  20
ATOM     19  C   UNL     1       7.454   4.973  13.533  0.00  0.00    +0.000 C 
ATOM     20  O   UNL     1       7.598   5.446  14.866  0.00  0.00    +0.000 OA
ENDBRANCH  13  20
ENDBRANCH  11  16
ENDBRANCH   9  11
ENDBRANCH   7   9
ENDBRANCH   1   7
BRANCH   4  21
ATOM     21  O   UNL     1       0.517  10.216  18.334  0.00  0.00    +0.000 OA
BRANCH  21  22
ATOM     22  C   UNL     1      -0.728  10.414  19.016  0.00  0.00    +0.000 C 
BRANCH  22  23
ATOM     23  C   UNL     1      -0.769  11.755  19.751  0.00  0.00    +0.000 C 
ATOM     24  C   UNL     1       0.352  12.681  19.283  0.00  0.00    +0.000 C 
ATOM     25  C   UNL     1      -2.164  12.431  19.634  0.00  0.00    +0.000 C 
ATOM     26  N   UNL     1      -2.547  12.478  21.021  0.00  0.00    +0.000 N 
ATOM     27  C   UNL     1      -3.573  12.907  21.772  0.00  0.00    +0.000 A 
ATOM     28  C   UNL     1      -3.171  12.566  23.063  0.00  0.00    +0.000 A 
ATOM     29  N   UNL     1      -1.925  11.937  23.073  0.00  0.00    +0.000 NA
ATOM     30  C   UNL     1      -1.606  11.923  21.811  0.00  0.00    +0.000 A 
ATOM     31  O   UNL     1      -0.540  11.472  21.176  0.00  0.00    +0.000 OA
BRANCH  28  32
ATOM     32  N   UNL     1      -3.898  12.801  24.292  0.00  0.00    +0.000 N 
ATOM     33  O   UNL     1      -3.685  13.884  24.860  0.00  0.00    +0.000 OA
ATOM     34  O   UNL     1      -4.672  11.920  24.687  0.00  0.00    +0.000 OA
ENDBRANCH  28  32
ENDBRANCH  22  23
ENDBRANCH  21  22
ENDBRANCH   4  21
TORSDOF 9
ENDMDL
MODEL 5
REMARK VINA RESULT:      -8.5      2.237      2.832
REMARK  Name = 
REMARK  11 active torsions:
REMARK  status: ('A' for Active; 'I' for Inactive)
REMARK    1  A    between atoms: C_1  and  O_2
REMARK    2  A    between atoms: O_2  and  C_3
REMARK    3  A    between atoms: C_6  and  N_7
REMARK    4  A    between atoms: N_7  and  C_8
REMARK    5  A    between atoms: C_8  and  N_10
REMARK    6  A    between atoms: N_10  and  C_11
REMARK    7  A    between atoms: C_14  and  O_15
REMARK    8  A    between atoms: O_15  and  C_16
REMARK    9  A    between atoms: C_16  and  C_17
REMARK   10  A    between atoms: C_17  and  C_18
REMARK   11  A    between atoms: C_22  and  N_23
REMARK                            x       y       z     vdW  Elec       q    Type
REMARK                         _______ _______ _______ _____ _____    ______ ____
ROOT
ATOM      1  C   UNL     1       1.097   9.564  18.810  0.00  0.00    +0.000 A 
ATOM      2  C   UNL     1       1.799   8.689  17.977  0.00  0.00    +0.000 A 
ATOM      3  C   UNL     1       2.294   7.484  18.459  0.00  0.00    +0.000 A 
ATOM      4  C   UNL     1       2.114   7.132  19.794  0.00  0.00    +0.000 A 
ATOM      5  C   UNL     1       1.445   8.019  20.645  0.00  0.00    +0.000 A 
ATOM      6  C   UNL     1       0.953   9.243  20.157  0.00  0.00    +0.000 A 
ENDROOT
BRANCH   1   7
ATOM      7  N   UNL     1       0.586  10.781  18.307  0.00  0.00    +0.000 N 
ATOM      8  H   UNL     1       1.106  11.222  17.556  0.00  0.00    +0.000 HD
BRANCH   7   9
ATOM      9  C   UNL     1      -0.718  11.208  18.489  0.00  0.00    +0.000 C 
ATOM     10  S   UNL     1      -1.909  10.693  17.443  0.00  0.00    +0.000 S 
BRANCH   9  11
ATOM     11  N   UNL     1      -0.845  12.156  19.485  0.00  0.00    +0.000 N 
ATOM     12  H   UNL     1      -0.317  13.003  19.304  0.00  0.00    +0.000 HD
BRANCH  11  16
ATOM     13  C   UNL     1      -3.274  12.324  22.917  0.00  0.00    +0.000 A 
ATOM     14  C   UNL     1      -1.979  11.812  23.011  0.00  0.00    +0.000 A 
ATOM     15  C   UNL     1      -1.161  11.725  21.881  0.00  0.00    +0.000 A 
ATOM     16  C   UNL     1      -1.636  12.155  20.644  0.00  0.00    +0.000 A 
ATOM     17  C   UNL     1      -2.913  12.717  20.558  0.00  0.00    +0.000 A 
ATOM     18  C   UNL     1      -3.741  12.777  21.683  0.00  0.00    +0.000 A 
BRANCH  13  20
ATOM     19  C   UNL     1      -3.911  13.486  24.881  0.00  0.00    +0.000 C 
ATOM     20  O   UNL     1      -3.984  12.311  24.083  0.00  0.00    +0.000 OA
ENDBRANCH  13  20
ENDBRANCH  11  16
ENDBRANCH   9  11
ENDBRANCH   7   9
ENDBRANCH   1   7
BRANCH   4  21
ATOM     21  O   UNL     1       2.565   5.960  20.351  0.00  0.00    +0.000 OA
BRANCH  21  22
ATOM     22  C   UNL     1       1.925   4.783  19.844  0.00  0.00    +0.000 C 
BRANCH  22  23
ATOM     23  C   UNL     1       2.922   3.836  19.173  0.00  0.00    +0.000 C 
ATOM     24  C   UNL     1       2.793   2.415  19.716  0.00  0.00    +0.000 C 
ATOM     25  C   UNL     1       2.799   3.877  17.623  0.00  0.00    +0.000 C 
ATOM     26  N   UNL     1       4.112   4.350  17.271  0.00  0.00    +0.000 N 
ATOM     27  C   UNL     1       4.818   4.640  16.167  0.00  0.00    +0.000 A 
ATOM     28  C   UNL     1       6.042   5.059  16.688  0.00  0.00    +0.000 A 
ATOM     29  N   UNL     1       6.055   5.021  18.084  0.00  0.00    +0.000 NA
ATOM     30  C   UNL     1       4.864   4.580  18.365  0.00  0.00    +0.000 A 
ATOM     31  O   UNL     1       4.269   4.317  19.515  0.00  0.00    +0.000 OA
BRANCH  28  32
ATOM     32  N   UNL     1       7.203   5.492  15.942  0.00  0.00    +0.000 N 
ATOM     33  O   UNL     1       7.688   6.588  16.264  0.00  0.00    +0.000 OA
ATOM     34  O   UNL     1       7.628   4.751  15.047  0.00  0.00    +0.000 OA
ENDBRANCH  28  32
ENDBRANCH  22  23
ENDBRANCH  21  22
ENDBRANCH   4  21
TORSDOF 9
ENDMDL
MODEL 6
REMARK VINA RESULT:      -8.3      1.160      1.688
REMARK  Name = 
REMARK  11 active torsions:
REMARK  status: ('A' for Active; 'I' for Inactive)
REMARK    1  A    between atoms: C_1  and  O_2
REMARK    2  A    between atoms: O_2  and  C_3
REMARK    3  A    between atoms: C_6  and  N_7
REMARK    4  A    between atoms: N_7  and  C_8
REMARK    5  A    between atoms: C_8  and  N_10
REMARK    6  A    between atoms: N_10  and  C_11
REMARK    7  A    between atoms: C_14  and  O_15
REMARK    8  A    between atoms: O_15  and  C_16
REMARK    9  A    between atoms: C_16  and  C_17
REMARK   10  A    between atoms: C_17  and  C_18
REMARK   11  A    between atoms: C_22  and  N_23
REMARK                            x       y       z     vdW  Elec       q    Type
REMARK                         _______ _______ _______ _____ _____    ______ ____
ROOT
ATOM      1  C   UNL     1       1.387   9.774  18.856  0.00  0.00    +0.000 A 
ATOM      2  C   UNL     1       1.998   8.767  18.107  0.00  0.00    +0.000 A 
ATOM      3  C   UNL     1       2.256   7.520  18.659  0.00  0.00    +0.000 A 
ATOM      4  C   UNL     1       1.924   7.254  19.985  0.00  0.00    +0.000 A 
ATOM      5  C   UNL     1       1.346   8.269  20.755  0.00  0.00    +0.000 A 
ATOM      6  C   UNL     1       1.094   9.535  20.196  0.00  0.00    +0.000 A 
ENDROOT
BRANCH   1   7
ATOM      7  N   UNL     1       1.116  11.036  18.281  0.00  0.00    +0.000 N 
ATOM      8  H   UNL     1       1.760  11.362  17.568  0.00  0.00    +0.000 HD
BRANCH   7   9
ATOM      9  C   UNL     1      -0.115  11.665  18.336  0.00  0.00    +0.000 C 
ATOM     10  S   UNL     1      -0.255  13.141  19.100  0.00  0.00    +0.000 S 
BRANCH   9  11
ATOM     11  N   UNL     1      -1.145  10.889  17.840  0.00  0.00    +0.000 N 
ATOM     12  H   UNL     1      -0.851   9.957  17.571  0.00  0.00    +0.000 HD
BRANCH  11  16
ATOM     13  C   UNL     1      -5.220  11.810  17.347  0.00  0.00    +0.000 A 
ATOM     14  C   UNL     1      -4.637  11.911  18.611  0.00  0.00    +0.000 A 
ATOM     15  C   UNL     1      -3.291  11.588  18.805  0.00  0.00    +0.000 A 
ATOM     16  C   UNL     1      -2.515  11.165  17.727  0.00  0.00    +0.000 A 
ATOM     17  C   UNL     1      -3.084  11.115  16.452  0.00  0.00    +0.000 A 
ATOM     18  C   UNL     1      -4.438  11.410  16.264  0.00  0.00    +0.000 A 
BRANCH  13  20
ATOM     19  C   UNL     1      -6.889  13.490  17.263  0.00  0.00    +0.000 C 
ATOM     20  O   UNL     1      -6.552  12.109  17.303  0.00  0.00    +0.000 OA
ENDBRANCH  13  20
ENDBRANCH  11  16
ENDBRANCH   9  11
ENDBRANCH   7   9
ENDBRANCH   1   7
BRANCH   4  21
ATOM     21  O   UNL     1       2.139   6.049  20.609  0.00  0.00    +0.000 OA
BRANCH  21  22
ATOM     22  C   UNL     1       1.721   4.910  19.847  0.00  0.00    +0.000 C 
BRANCH  22  23
ATOM     23  C   UNL     1       2.898   4.003  19.484  0.00  0.00    +0.000 C 
ATOM     24  C   UNL     1       2.942   2.763  20.374  0.00  0.00    +0.000 C 
ATOM     25  C   UNL     1       2.893   3.632  17.974  0.00  0.00    +0.000 C 
ATOM     26  N   UNL     1       4.143   4.212  17.559  0.00  0.00    +0.000 N 
ATOM     27  C   UNL     1       4.882   4.328  16.445  0.00  0.00    +0.000 A 
ATOM     28  C   UNL     1       5.985   5.061  16.884  0.00  0.00    +0.000 A 
ATOM     29  N   UNL     1       5.894   5.377  18.241  0.00  0.00    +0.000 NA
ATOM     30  C   UNL     1       4.764   4.830  18.583  0.00  0.00    +0.000 A 
ATOM     31  O   UNL     1       4.127   4.771  19.739  0.00  0.00    +0.000 OA
BRANCH  28  32
ATOM     32  N   UNL     1       7.123   5.479  16.095  0.00  0.00    +0.000 N 
ATOM     33  O   UNL     1       7.512   4.685  15.225  0.00  0.00    +0.000 OA
ATOM     34  O   UNL     1       7.624   6.583  16.339  0.00  0.00    +0.000 OA
ENDBRANCH  28  32
ENDBRANCH  22  23
ENDBRANCH  21  22
ENDBRANCH   4  21
TORSDOF 9
ENDMDL
MODEL 7
REMARK VINA RESULT:      -8.3      3.671     10.637
REMARK  Name = 
REMARK  11 active torsions:
REMARK  status: ('A' for Active; 'I' for Inactive)
REMARK    1  A    between atoms: C_1  and  O_2
REMARK    2  A    between atoms: O_2  and  C_3
REMARK    3  A    between atoms: C_6  and  N_7
REMARK    4  A    between atoms: N_7  and  C_8
REMARK    5  A    between atoms: C_8  and  N_10
REMARK    6  A    between atoms: N_10  and  C_11
REMARK    7  A    between atoms: C_14  and  O_15
REMARK    8  A    between atoms: O_15  and  C_16
REMARK    9  A    between atoms: C_16  and  C_17
REMARK   10  A    between atoms: C_17  and  C_18
REMARK   11  A    between atoms: C_22  and  N_23
REMARK                            x       y       z     vdW  Elec       q    Type
REMARK                         _______ _______ _______ _____ _____    ______ ____
ROOT
ATOM      1  C   UNL     1       2.611   6.726  19.753  0.00  0.00    +0.000 A 
ATOM      2  C   UNL     1       2.771   7.171  18.439  0.00  0.00    +0.000 A 
ATOM      3  C   UNL     1       2.199   8.362  18.011  0.00  0.00    +0.000 A 
ATOM      4  C   UNL     1       1.435   9.131  18.885  0.00  0.00    +0.000 A 
ATOM      5  C   UNL     1       1.238   8.675  20.193  0.00  0.00    +0.000 A 
ATOM      6  C   UNL     1       1.810   7.463  20.622  0.00  0.00    +0.000 A 
ENDROOT
BRANCH   1   7
ATOM      7  N   UNL     1       3.208   5.520  20.183  0.00  0.00    +0.000 N 
ATOM      8  H   UNL     1       3.175   5.322  21.177  0.00  0.00    +0.000 HD
BRANCH   7   9
ATOM      9  C   UNL     1       3.485   4.452  19.348  0.00  0.00    +0.000 C 
ATOM     10  S   UNL     1       2.313   3.300  19.064  0.00  0.00    +0.000 S 
BRANCH   9  11
ATOM     11  N   UNL     1       4.804   4.407  18.942  0.00  0.00    +0.000 N 
ATOM     12  H   UNL     1       5.456   4.289  19.709  0.00  0.00    +0.000 HD
BRANCH  11  16
ATOM     13  C   UNL     1       6.574   4.594  15.130  0.00  0.00    +0.000 A 
ATOM     14  C   UNL     1       5.191   4.441  15.242  0.00  0.00    +0.000 A 
ATOM     15  C   UNL     1       4.583   4.352  16.497  0.00  0.00    +0.000 A 
ATOM     16  C   UNL     1       5.358   4.422  17.653  0.00  0.00    +0.000 A 
ATOM     17  C   UNL     1       6.735   4.630  17.542  0.00  0.00    +0.000 A 
ATOM     18  C   UNL     1       7.347   4.689  16.286  0.00  0.00    +0.000 A 
BRANCH  13  20
ATOM     19  C   UNL     1       6.428   3.729  12.928  0.00  0.00    +0.000 C 
ATOM     20  O   UNL     1       7.047   4.620  13.848  0.00  0.00    +0.000 OA
ENDBRANCH  13  20
ENDBRANCH  11  16
ENDBRANCH   9  11
ENDBRANCH   7   9
ENDBRANCH   1   7
BRANCH   4  21
ATOM     21  O   UNL     1       0.839  10.322  18.547  0.00  0.00    +0.000 OA
BRANCH  21  22
ATOM     22  C   UNL     1      -0.453  10.520  19.133  0.00  0.00    +0.000 C 
BRANCH  22  23
ATOM     23  C   UNL     1      -0.533  11.838  19.905  0.00  0.00    +0.000 C 
ATOM     24  C   UNL     1       0.620  12.770  19.537  0.00  0.00    +0.000 C 
ATOM     25  C   UNL     1      -1.915  12.527  19.723  0.00  0.00    +0.000 C 
ATOM     26  N   UNL     1      -2.383  12.534  21.085  0.00  0.00    +0.000 N 
ATOM     27  C   UNL     1      -3.452  12.947  21.783  0.00  0.00    +0.000 A 
ATOM     28  C   UNL     1      -3.133  12.563  23.086  0.00  0.00    +0.000 A 
ATOM     29  N   UNL     1      -1.893  11.926  23.153  0.00  0.00    +0.000 NA
ATOM     30  C   UNL     1      -1.496  11.948  21.914  0.00  0.00    +0.000 A 
ATOM     31  O   UNL     1      -0.395  11.509  21.332  0.00  0.00    +0.000 OA
BRANCH  28  32
ATOM     32  N   UNL     1      -3.934  12.765  24.274  0.00  0.00    +0.000 N 
ATOM     33  O   UNL     1      -3.791  13.851  24.857  0.00  0.00    +0.000 OA
ATOM     34  O   UNL     1      -4.696  11.855  24.622  0.00  0.00    +0.000 OA
ENDBRANCH  28  32
ENDBRANCH  22  23
ENDBRANCH  21  22
ENDBRANCH   4  21
TORSDOF 9
ENDMDL
MODEL 8
REMARK VINA RESULT:      -8.3      2.265      2.881
REMARK  Name = 
REMARK  11 active torsions:
REMARK  status: ('A' for Active; 'I' for Inactive)
REMARK    1  A    between atoms: C_1  and  O_2
REMARK    2  A    between atoms: O_2  and  C_3
REMARK    3  A    between atoms: C_6  and  N_7
REMARK    4  A    between atoms: N_7  and  C_8
REMARK    5  A    between atoms: C_8  and  N_10
REMARK    6  A    between atoms: N_10  and  C_11
REMARK    7  A    between atoms: C_14  and  O_15
REMARK    8  A    between atoms: O_15  and  C_16
REMARK    9  A    between atoms: C_16  and  C_17
REMARK   10  A    between atoms: C_17  and  C_18
REMARK   11  A    between atoms: C_22  and  N_23
REMARK                            x       y       z     vdW  Elec       q    Type
REMARK                         _______ _______ _______ _____ _____    ______ ____
ROOT
ATOM      1  C   UNL     1       0.450  10.096  19.561  0.00  0.00    +0.000 A 
ATOM      2  C   UNL     1       1.235   9.511  18.565  0.00  0.00    +0.000 A 
ATOM      3  C   UNL     1       1.948   8.345  18.808  0.00  0.00    +0.000 A 
ATOM      4  C   UNL     1       1.908   7.742  20.063  0.00  0.00    +0.000 A 
ATOM      5  C   UNL     1       1.154   8.342  21.078  0.00  0.00    +0.000 A 
ATOM      6  C   UNL     1       0.440   9.529  20.832  0.00  0.00    +0.000 A 
ENDROOT
BRANCH   1   7
ATOM      7  N   UNL     1      -0.283  11.276  19.300  0.00  0.00    +0.000 N 
ATOM      8  H   UNL     1      -1.265  11.163  19.070  0.00  0.00    +0.000 HD
BRANCH   7   9
ATOM      9  C   UNL     1       0.121  12.541  19.688  0.00  0.00    +0.000 C 
ATOM     10  S   UNL     1       1.746  12.908  19.745  0.00  0.00    +0.000 S 
BRANCH   9  11
ATOM     11  N   UNL     1      -0.922  13.334  20.125  0.00  0.00    +0.000 N 
ATOM     12  H   UNL     1      -1.067  14.158  19.552  0.00  0.00    +0.000 HD
BRANCH  11  16
ATOM     13  C   UNL     1      -3.551  12.616  23.330  0.00  0.00    +0.000 A 
ATOM     14  C   UNL     1      -4.058  12.744  22.036  0.00  0.00    +0.000 A 
ATOM     15  C   UNL     1      -3.208  13.006  20.958  0.00  0.00    +0.000 A 
ATOM     16  C   UNL     1      -1.836  13.137  21.170  0.00  0.00    +0.000 A 
ATOM     17  C   UNL     1      -1.321  12.956  22.456  0.00  0.00    +0.000 A 
ATOM     18  C   UNL     1      -2.176  12.723  23.539  0.00  0.00    +0.000 A 
BRANCH  13  20
ATOM     19  C   UNL     1      -5.833  12.736  23.958  0.00  0.00    +0.000 C 
ATOM     20  O   UNL     1      -4.492  12.408  24.299  0.00  0.00    +0.000 OA
ENDBRANCH  13  20
ENDBRANCH  11  16
ENDBRANCH   9  11
ENDBRANCH   7   9
ENDBRANCH   1   7
BRANCH   4  21
ATOM     21  O   UNL     1       2.577   6.587  20.387  0.00  0.00    +0.000 OA
BRANCH  21  22
ATOM     22  C   UNL     1       1.771   5.404  20.329  0.00  0.00    +0.000 C 
BRANCH  22  23
ATOM     23  C   UNL     1       2.419   4.314  19.474  0.00  0.00    +0.000 C 
ATOM     24  C   UNL     1       1.713   2.972  19.653  0.00  0.00    +0.000 C 
ATOM     25  C   UNL     1       2.501   4.731  17.979  0.00  0.00    +0.000 C 
ATOM     26  N   UNL     1       3.928   4.725  17.785  0.00  0.00    +0.000 N 
ATOM     27  C   UNL     1       4.815   4.949  16.803  0.00  0.00    +0.000 A 
ATOM     28  C   UNL     1       6.038   4.741  17.442  0.00  0.00    +0.000 A 
ATOM     29  N   UNL     1       5.872   4.402  18.786  0.00  0.00    +0.000 NA
ATOM     30  C   UNL     1       4.579   4.405  18.921  0.00  0.00    +0.000 A 
ATOM     31  O   UNL     1       3.799   4.153  19.957  0.00  0.00    +0.000 OA
BRANCH  28  32
ATOM     32  N   UNL     1       7.355   4.841  16.854  0.00  0.00    +0.000 N 
ATOM     33  O   UNL     1       7.480   5.640  15.913  0.00  0.00    +0.000 OA
ATOM     34  O   UNL     1       8.255   4.133  17.322  0.00  0.00    +0.000 OA
ENDBRANCH  28  32
ENDBRANCH  22  23
ENDBRANCH  21  22
ENDBRANCH   4  21
TORSDOF 9
ENDMDL
MODEL 9
REMARK VINA RESULT:      -8.2      1.622      2.194
REMARK  Name = 
REMARK  11 active torsions:
REMARK  status: ('A' for Active; 'I' for Inactive)
REMARK    1  A    between atoms: C_1  and  O_2
REMARK    2  A    between atoms: O_2  and  C_3
REMARK    3  A    between atoms: C_6  and  N_7
REMARK    4  A    between atoms: N_7  and  C_8
REMARK    5  A    between atoms: C_8  and  N_10
REMARK    6  A    between atoms: N_10  and  C_11
REMARK    7  A    between atoms: C_14  and  O_15
REMARK    8  A    between atoms: O_15  and  C_16
REMARK    9  A    between atoms: C_16  and  C_17
REMARK   10  A    between atoms: C_17  and  C_18
REMARK   11  A    between atoms: C_22  and  N_23
REMARK                            x       y       z     vdW  Elec       q    Type
REMARK                         _______ _______ _______ _____ _____    ______ ____
ROOT
ATOM      1  C   UNL     1       1.163   9.325  19.959  0.00  0.00    +0.000 A 
ATOM      2  C   UNL     1       1.405   8.139  20.654  0.00  0.00    +0.000 A 
ATOM      3  C   UNL     1       2.078   7.082  20.054  0.00  0.00    +0.000 A 
ATOM      4  C   UNL     1       2.511   7.180  18.734  0.00  0.00    +0.000 A 
ATOM      5  C   UNL     1       2.240   8.351  18.018  0.00  0.00    +0.000 A 
ATOM      6  C   UNL     1       1.549   9.417  18.624  0.00  0.00    +0.000 A 
ENDROOT
BRANCH   1   7
ATOM      7  N   UNL     1       0.489  10.400  20.581  0.00  0.00    +0.000 N 
ATOM      8  H   UNL     1       0.401  10.361  21.591  0.00  0.00    +0.000 HD
BRANCH   7   9
ATOM      9  C   UNL     1       0.283  11.633  19.989  0.00  0.00    +0.000 C 
ATOM     10  S   UNL     1       0.654  13.025  20.829  0.00  0.00    +0.000 S 
BRANCH   9  11
ATOM     11  N   UNL     1      -0.357  11.550  18.768  0.00  0.00    +0.000 N 
ATOM     12  H   UNL     1       0.280  11.564  17.979  0.00  0.00    +0.000 HD
BRANCH  11  16
ATOM     13  C   UNL     1      -4.467  11.022  18.039  0.00  0.00    +0.000 A 
ATOM     14  C   UNL     1      -3.535  10.296  17.297  0.00  0.00    +0.000 A 
ATOM     15  C   UNL     1      -2.164  10.471  17.504  0.00  0.00    +0.000 A 
ATOM     16  C   UNL     1      -1.715  11.376  18.465  0.00  0.00    +0.000 A 
ATOM     17  C   UNL     1      -2.647  12.063  19.246  0.00  0.00    +0.000 A 
ATOM     18  C   UNL     1      -4.018  11.910  19.018  0.00  0.00    +0.000 A 
BRANCH  13  20
ATOM     19  C   UNL     1      -6.678  10.618  18.789  0.00  0.00    +0.000 C 
ATOM     20  O   UNL     1      -5.772  10.793  17.707  0.00  0.00    +0.000 OA
ENDBRANCH  13  20
ENDBRANCH  11  16
ENDBRANCH   9  11
ENDBRANCH   7   9
ENDBRANCH   1   7
BRANCH   4  21
ATOM     21  O   UNL     1       3.187   6.188  18.068  0.00  0.00    +0.000 OA
BRANCH  21  22
ATOM     22  C   UNL     1       4.175   5.516  18.857  0.00  0.00    +0.000 C 
BRANCH  22  23
ATOM     23  C   UNL     1       4.843   4.375  18.086  0.00  0.00    +0.000 C 
ATOM     24  C   UNL     1       4.902   3.098  18.921  0.00  0.00    +0.000 C 
ATOM     25  C   UNL     1       4.159   4.136  16.710  0.00  0.00    +0.000 C 
ATOM     26  N   UNL     1       5.257   4.417  15.822  0.00  0.00    +0.000 N 
ATOM     27  C   UNL     1       5.512   4.432  14.505  0.00  0.00    +0.000 A 
ATOM     28  C   UNL     1       6.848   4.831  14.456  0.00  0.00    +0.000 A 
ATOM     29  N   UNL     1       7.373   5.053  15.731  0.00  0.00    +0.000 NA
ATOM     30  C   UNL     1       6.362   4.780  16.503  0.00  0.00    +0.000 A 
ATOM     31  O   UNL     1       6.228   4.791  17.817  0.00  0.00    +0.000 OA
BRANCH  28  32
ATOM     32  N   UNL     1       7.660   5.012  13.273  0.00  0.00    +0.000 N 
ATOM     33  O   UNL     1       8.622   5.789  13.377  0.00  0.00    +0.000 OA
ATOM     34  O   UNL     1       7.346   4.388  12.252  0.00  0.00    +0.000 OA
ENDBRANCH  28  32
ENDBRANCH  22  23
ENDBRANCH  21  22
ENDBRANCH   4  21
TORSDOF 9
ENDMDL
