MODEL 1
REMARK VINA RESULT:      -6.5      0.000      0.000
REMARK  Name = 
REMARK  5 active torsions:
REMARK  status: ('A' for Active; 'I' for Inactive)
REMARK    1  A    between atoms: C_1  and  C_2
REMARK    2  A    between atoms: C_2  and  N_3
REMARK    3  A    between atoms: N_3  and  C_14
REMARK    4  A    between atoms: C_4  and  C_6
REMARK    5  A    between atoms: C_6  and  N_7
REMARK                            x       y       z     vdW  Elec       q    Type
REMARK                         _______ _______ _______ _____ _____    ______ ____
ROOT
ATOM      1  N   UNL     1       6.159   5.201  16.716  0.00  0.00    +0.000 N 
ATOM      2  C   UNL     1       5.594   4.369  17.699  0.00  0.00    +0.000 C 
ATOM      3  O   UNL     1       6.055   4.252  18.838  0.00  0.00    +0.000 OA
ENDROOT
BRANCH   1   4
ATOM      4  C   UNL     1       5.805   5.017  15.319  0.00  0.00    +0.000 C 
ATOM      5  C   UNL     1       6.850   5.078  14.233  0.00  0.00    +0.000 C 
ATOM      6  C   UNL     1       6.154   3.787  14.517  0.00  0.00    +0.000 C 
ENDBRANCH   1   4
BRANCH   1   8
ATOM      7  C   UNL     1       7.426   7.295  17.518  0.00  0.00    +0.000 C 
ATOM      8  C   UNL     1       7.449   5.881  16.951  0.00  0.00    +0.000 C 
ENDBRANCH   1   8
BRANCH   2   9
ATOM      9  C   UNL     1       4.301   3.614  17.329  0.00  0.00    +0.000 C 
BRANCH   9  10
ATOM     10  N   UNL     1       3.330   3.537  18.456  0.00  0.00    +0.000 NA
ATOM     11  C   UNL     1       2.698   4.840  18.695  0.00  0.00    +0.000 C 
ATOM     12  C   UNL     1       2.254   4.999  20.152  0.00  0.00    +0.000 C 
ATOM     13  C   UNL     1       0.936   4.321  20.509  0.00  0.00    +0.000 C 
ATOM     14  C   UNL     1       0.923   2.817  20.279  0.00  0.00    +0.000 C 
ATOM     15  C   UNL     1       0.987   2.464  18.802  0.00  0.00    +0.000 C 
ATOM     16  C   UNL     1       2.393   2.433  18.195  0.00  0.00    +0.000 C 
ENDBRANCH   9  10
ENDBRANCH   2   9
TORSDOF 4
ENDMDL
MODEL 2
REMARK VINA RESULT:      -6.3      0.951      1.061
REMARK  Name = 
REMARK  5 active torsions:
REMARK  status: ('A' for Active; 'I' for Inactive)
REMARK    1  A    between atoms: C_1  and  C_2
REMARK    2  A    between atoms: C_2  and  N_3
REMARK    3  A    between atoms: N_3  and  C_14
REMARK    4  A    between atoms: C_4  and  C_6
REMARK    5  A    between atoms: C_6  and  N_7
REMARK                            x       y       z     vdW  Elec       q    Type
REMARK                         _______ _______ _______ _____ _____    ______ ____
ROOT
ATOM      1  N   UNL     1       6.565   5.198  17.429  0.00  0.00    +0.000 N 
ATOM      2  C   UNL     1       6.056   4.641  18.616  0.00  0.00    +0.000 C 
ATOM      3  O   UNL     1       6.356   5.048  19.742  0.00  0.00    +0.000 OA
ENDROOT
BRANCH   1   4
ATOM      4  C   UNL     1       6.473   4.458  16.183  0.00  0.00    +0.000 C 
ATOM      5  C   UNL     1       5.584   4.928  15.058  0.00  0.00    +0.000 C 
ATOM      6  C   UNL     1       7.067   4.929  14.878  0.00  0.00    +0.000 C 
ENDBRANCH   1   4
BRANCH   1   8
ATOM      7  C   UNL     1       7.206   7.692  17.488  0.00  0.00    +0.000 C 
ATOM      8  C   UNL     1       7.624   6.226  17.470  0.00  0.00    +0.000 C 
ENDBRANCH   1   8
BRANCH   2   9
ATOM      9  C   UNL     1       5.030   3.497  18.478  0.00  0.00    +0.000 C 
BRANCH   9  10
ATOM     10  N   UNL     1       3.856   3.656  19.381  0.00  0.00    +0.000 NA
ATOM     11  C   UNL     1       3.008   4.773  18.947  0.00  0.00    +0.000 C 
ATOM     12  C   UNL     1       2.236   5.389  20.117  0.00  0.00    +0.000 C 
ATOM     13  C   UNL     1       0.982   4.633  20.541  0.00  0.00    +0.000 C 
ATOM     14  C   UNL     1       1.236   3.198  20.980  0.00  0.00    +0.000 C 
ATOM     15  C   UNL     1       1.672   2.315  19.821  0.00  0.00    +0.000 C 
ATOM     16  C   UNL     1       3.168   2.361  19.490  0.00  0.00    +0.000 C 
ENDBRANCH   9  10
ENDBRANCH   2   9
TORSDOF 4
ENDMDL
MODEL 3
REMARK VINA RESULT:      -6.2      1.207      1.887
REMARK  Name = 
REMARK  5 active torsions:
REMARK  status: ('A' for Active; 'I' for Inactive)
REMARK    1  A    between atoms: C_1  and  C_2
REMARK    2  A    between atoms: C_2  and  N_3
REMARK    3  A    between atoms: N_3  and  C_14
REMARK    4  A    between atoms: C_4  and  C_6
REMARK    5  A    between atoms: C_6  and  N_7
REMARK                            x       y       z     vdW  Elec       q    Type
REMARK                         _______ _______ _______ _____ _____    ______ ____
ROOT
ATOM      1  N   UNL     1       5.530   5.676  17.537  0.00  0.00    +0.000 N 
ATOM      2  C   UNL     1       5.722   5.061  18.788  0.00  0.00    +0.000 C 
ATOM      3  O   UNL     1       6.281   5.615  19.738  0.00  0.00    +0.000 OA
ENDROOT
BRANCH   1   4
ATOM      4  C   UNL     1       5.212   4.867  16.373  0.00  0.00    +0.000 C 
ATOM      5  C   UNL     1       5.591   5.314  14.983  0.00  0.00    +0.000 C 
ATOM      6  C   UNL     1       6.238   4.103  15.571  0.00  0.00    +0.000 C 
ENDBRANCH   1   4
BRANCH   1   8
ATOM      7  C   UNL     1       7.633   7.161  17.451  0.00  0.00    +0.000 C 
ATOM      8  C   UNL     1       6.133   6.990  17.240  0.00  0.00    +0.000 C 
ENDBRANCH   1   8
BRANCH   2   9
ATOM      9  C   UNL     1       5.148   3.642  18.974  0.00  0.00    +0.000 C 
BRANCH   9  10
ATOM     10  N   UNL     1       3.663   3.627  19.090  0.00  0.00    +0.000 NA
ATOM     11  C   UNL     1       3.121   2.309  18.734  0.00  0.00    +0.000 C 
ATOM     12  C   UNL     1       1.690   2.409  18.198  0.00  0.00    +0.000 C 
ATOM     13  C   UNL     1       0.604   2.541  19.260  0.00  0.00    +0.000 C 
ATOM     14  C   UNL     1       0.750   3.763  20.155  0.00  0.00    +0.000 C 
ATOM     15  C   UNL     1       1.967   3.665  21.061  0.00  0.00    +0.000 C 
ATOM     16  C   UNL     1       3.291   4.107  20.430  0.00  0.00    +0.000 C 
ENDBRANCH   9  10
ENDBRANCH   2   9
TORSDOF 4
ENDMDL
MODEL 4
REMARK VINA RESULT:      -6.2      1.261      2.824
REMARK  Name = 
REMARK  5 active torsions:
REMARK  status: ('A' for Active; 'I' for Inactive)
REMARK    1  A    between atoms: C_1  and  C_2
REMARK    2  A    between atoms: C_2  and  N_3
REMARK    3  A    between atoms: N_3  and  C_14
REMARK    4  A    between atoms: C_4  and  C_6
REMARK    5  A    between atoms: C_6  and  N_7
REMARK                            x       y       z     vdW  Elec       q    Type
REMARK                         _______ _______ _______ _____ _____    ______ ____
ROOT
ATOM      1  N   UNL     1       6.066   5.333  16.810  0.00  0.00    +0.000 N 
ATOM      2  C   UNL     1       5.233   4.282  17.232  0.00  0.00    +0.000 C 
ATOM      3  O   UNL     1       4.630   3.537  16.454  0.00  0.00    +0.000 OA
ENDROOT
BRANCH   1   4
ATOM      4  C   UNL     1       6.441   6.382  17.743  0.00  0.00    +0.000 C 
ATOM      5  C   UNL     1       7.711   6.292  18.551  0.00  0.00    +0.000 C 
ATOM      6  C   UNL     1       7.572   7.353  17.508  0.00  0.00    +0.000 C 
ENDBRANCH   1   4
BRANCH   1   8
ATOM      7  C   UNL     1       7.056   4.882  14.475  0.00  0.00    +0.000 C 
ATOM      8  C   UNL     1       6.150   5.705  15.383  0.00  0.00    +0.000 C 
ENDBRANCH   1   8
BRANCH   2   9
ATOM      9  C   UNL     1       5.124   4.032  18.751  0.00  0.00    +0.000 C 
BRANCH   9  10
ATOM     10  N   UNL     1       3.716   3.879  19.214  0.00  0.00    +0.000 NA
ATOM     11  C   UNL     1       3.600   2.785  20.187  0.00  0.00    +0.000 C 
ATOM     12  C   UNL     1       2.200   2.163  20.179  0.00  0.00    +0.000 C 
ATOM     13  C   UNL     1       1.140   2.935  20.957  0.00  0.00    +0.000 C 
ATOM     14  C   UNL     1       0.916   4.358  20.466  0.00  0.00    +0.000 C 
ATOM     15  C   UNL     1       2.116   5.251  20.737  0.00  0.00    +0.000 C 
ATOM     16  C   UNL     1       3.233   5.184  19.691  0.00  0.00    +0.000 C 
ENDBRANCH   9  10
ENDBRANCH   2   9
TORSDOF 4
ENDMDL
MODEL 5
REMARK VINA RESULT:      -6.0      1.632      2.884
REMARK  Name = 
REMARK  5 active torsions:
REMARK  status: ('A' for Active; 'I' for Inactive)
REMARK    1  A    between atoms: C_1  and  C_2
REMARK    2  A    between atoms: C_2  and  N_3
REMARK    3  A    between atoms: N_3  and  C_14
REMARK    4  A    between atoms: C_4  and  C_6
REMARK    5  A    between atoms: C_6  and  N_7
REMARK                            x       y       z     vdW  Elec       q    Type
REMARK                         _______ _______ _______ _____ _____    ______ ____
ROOT
ATOM      1  N   UNL     1       5.460   5.585  17.308  0.00  0.00    +0.000 N 
ATOM      2  C   UNL     1       4.356   6.269  17.849  0.00  0.00    +0.000 C 
ATOM      3  O   UNL     1       3.691   7.094  17.217  0.00  0.00    +0.000 OA
ENDROOT
BRANCH   1   4
ATOM      4  C   UNL     1       6.407   4.925  18.190  0.00  0.00    +0.000 C 
ATOM      5  C   UNL     1       7.797   4.572  17.720  0.00  0.00    +0.000 C 
ATOM      6  C   UNL     1       7.616   5.603  18.787  0.00  0.00    +0.000 C 
ENDBRANCH   1   4
BRANCH   1   8
ATOM      7  C   UNL     1       5.663   5.011  14.805  0.00  0.00    +0.000 C 
ATOM      8  C   UNL     1       5.986   5.935  15.973  0.00  0.00    +0.000 C 
ENDBRANCH   1   8
BRANCH   2   9
ATOM      9  C   UNL     1       3.942   5.913  19.292  0.00  0.00    +0.000 C 
BRANCH   9  10
ATOM     10  N   UNL     1       2.753   5.017  19.350  0.00  0.00    +0.000 NA
ATOM     11  C   UNL     1       2.918   3.866  18.455  0.00  0.00    +0.000 C 
ATOM     12  C   UNL     1       1.570   3.322  17.972  0.00  0.00    +0.000 C 
ATOM     13  C   UNL     1       0.840   2.419  18.960  0.00  0.00    +0.000 C 
ATOM     14  C   UNL     1       0.518   3.080  20.292  0.00  0.00    +0.000 C 
ATOM     15  C   UNL     1       1.770   3.369  21.105  0.00  0.00    +0.000 C 
ATOM     16  C   UNL     1       2.490   4.676  20.757  0.00  0.00    +0.000 C 
ENDBRANCH   9  10
ENDBRANCH   2   9
TORSDOF 4
ENDMDL
MODEL 6
REMARK VINA RESULT:      -6.0      1.195      2.400
REMARK  Name = 
REMARK  5 active torsions:
REMARK  status: ('A' for Active; 'I' for Inactive)
REMARK    1  A    between atoms: C_1  and  C_2
REMARK    2  A    between atoms: C_2  and  N_3
REMARK    3  A    between atoms: N_3  and  C_14
REMARK    4  A    between atoms: C_4  and  C_6
REMARK    5  A    between atoms: C_6  and  N_7
REMARK                            x       y       z     vdW  Elec       q    Type
REMARK                         _______ _______ _______ _____ _____    ______ ____
ROOT
ATOM      1  N   UNL     1       5.848   5.286  16.946  0.00  0.00    +0.000 N 
ATOM      2  C   UNL     1       5.154   4.199  17.506  0.00  0.00    +0.000 C 
ATOM      3  O   UNL     1       4.471   3.414  16.844  0.00  0.00    +0.000 OA
ENDROOT
BRANCH   1   4
ATOM      4  C   UNL     1       6.315   6.366  17.798  0.00  0.00    +0.000 C 
ATOM      5  C   UNL     1       7.648   6.287  18.501  0.00  0.00    +0.000 C 
ATOM      6  C   UNL     1       7.437   7.305  17.428  0.00  0.00    +0.000 C 
ENDBRANCH   1   4
BRANCH   1   8
ATOM      7  C   UNL     1       6.495   4.888  14.485  0.00  0.00    +0.000 C 
ATOM      8  C   UNL     1       5.673   5.642  15.524  0.00  0.00    +0.000 C 
ENDBRANCH   1   8
BRANCH   2   9
ATOM      9  C   UNL     1       5.312   3.965  19.023  0.00  0.00    +0.000 C 
BRANCH   9  10
ATOM     10  N   UNL     1       4.008   3.870  19.736  0.00  0.00    +0.000 NA
ATOM     11  C   UNL     1       3.084   4.918  19.283  0.00  0.00    +0.000 C 
ATOM     12  C   UNL     1       2.069   5.289  20.369  0.00  0.00    +0.000 C 
ATOM     13  C   UNL     1       0.885   4.339  20.507  0.00  0.00    +0.000 C 
ATOM     14  C   UNL     1       1.270   2.904  20.835  0.00  0.00    +0.000 C 
ATOM     15  C   UNL     1       1.992   2.227  19.680  0.00  0.00    +0.000 C 
ATOM     16  C   UNL     1       3.498   2.496  19.602  0.00  0.00    +0.000 C 
ENDBRANCH   9  10
ENDBRANCH   2   9
TORSDOF 4
ENDMDL
MODEL 7
REMARK VINA RESULT:      -6.0      0.590      1.573
REMARK  Name = 
REMARK  5 active torsions:
REMARK  status: ('A' for Active; 'I' for Inactive)
REMARK    1  A    between atoms: C_1  and  C_2
REMARK    2  A    between atoms: C_2  and  N_3
REMARK    3  A    between atoms: N_3  and  C_14
REMARK    4  A    between atoms: C_4  and  C_6
REMARK    5  A    between atoms: C_6  and  N_7
REMARK                            x       y       z     vdW  Elec       q    Type
REMARK                         _______ _______ _______ _____ _____    ______ ____
ROOT
ATOM      1  N   UNL     1       6.106   5.015  16.909  0.00  0.00    +0.000 N 
ATOM      2  C   UNL     1       5.415   4.159  17.784  0.00  0.00    +0.000 C 
ATOM      3  O   UNL     1       5.797   3.904  18.929  0.00  0.00    +0.000 OA
ENDROOT
BRANCH   1   4
ATOM      4  C   UNL     1       5.818   4.984  15.485  0.00  0.00    +0.000 C 
ATOM      5  C   UNL     1       6.920   5.108  14.462  0.00  0.00    +0.000 C 
ATOM      6  C   UNL     1       6.163   3.825  14.581  0.00  0.00    +0.000 C 
ENDBRANCH   1   4
BRANCH   1   8
ATOM      7  C   UNL     1       7.501   6.863  18.039  0.00  0.00    +0.000 C 
ATOM      8  C   UNL     1       7.435   5.550  17.267  0.00  0.00    +0.000 C 
ENDBRANCH   1   8
BRANCH   2   9
ATOM      9  C   UNL     1       4.083   3.562  17.284  0.00  0.00    +0.000 C 
BRANCH   9  10
ATOM     10  N   UNL     1       2.985   3.670  18.284  0.00  0.00    +0.000 NA
ATOM     11  C   UNL     1       3.049   2.571  19.256  0.00  0.00    +0.000 C 
ATOM     12  C   UNL     1       1.670   2.246  19.838  0.00  0.00    +0.000 C 
ATOM     13  C   UNL     1       1.199   3.173  20.954  0.00  0.00    +0.000 C 
ATOM     14  C   UNL     1       1.095   4.636  20.549  0.00  0.00    +0.000 C 
ATOM     15  C   UNL     1       2.458   5.253  20.279  0.00  0.00    +0.000 C 
ATOM     16  C   UNL     1       3.016   5.019  18.872  0.00  0.00    +0.000 C 
ENDBRANCH   9  10
ENDBRANCH   2   9
TORSDOF 4
ENDMDL
MODEL 8
REMARK VINA RESULT:      -5.9      1.136      1.913
REMARK  Name = 
REMARK  5 active torsions:
REMARK  status: ('A' for Active; 'I' for Inactive)
REMARK    1  A    between atoms: C_1  and  C_2
REMARK    2  A    between atoms: C_2  and  N_3
REMARK    3  A    between atoms: N_3  and  C_14
REMARK    4  A    between atoms: C_4  and  C_6
REMARK    5  A    between atoms: C_6  and  N_7
REMARK                            x       y       z     vdW  Elec       q    Type
REMARK                         _______ _______ _______ _____ _____    ______ ____
ROOT
ATOM      1  N   UNL     1       5.928   5.846  17.353  0.00  0.00    +0.000 N 
ATOM      2  C   UNL     1       4.876   5.793  18.285  0.00  0.00    +0.000 C 
ATOM      3  O   UNL     1       5.051   5.694  19.502  0.00  0.00    +0.000 OA
ENDROOT
BRANCH   1   4
ATOM      4  C   UNL     1       5.666   5.592  15.947  0.00  0.00    +0.000 C 
ATOM      5  C   UNL     1       6.734   5.032  15.041  0.00  0.00    +0.000 C 
ATOM      6  C   UNL     1       5.526   4.211  15.353  0.00  0.00    +0.000 C 
ENDBRANCH   1   4
BRANCH   1   8
ATOM      7  C   UNL     1       8.045   6.767  18.496  0.00  0.00    +0.000 C 
ATOM      8  C   UNL     1       7.326   5.631  17.778  0.00  0.00    +0.000 C 
ENDBRANCH   1   8
BRANCH   2   9
ATOM      9  C   UNL     1       3.440   5.921  17.738  0.00  0.00    +0.000 C 
BRANCH   9  10
ATOM     10  N   UNL     1       2.545   4.819  18.189  0.00  0.00    +0.000 NA
ATOM     11  C   UNL     1       3.226   3.521  18.102  0.00  0.00    +0.000 C 
ATOM     12  C   UNL     1       2.235   2.372  17.898  0.00  0.00    +0.000 C 
ATOM     13  C   UNL     1       1.528   1.889  19.159  0.00  0.00    +0.000 C 
ATOM     14  C   UNL     1       0.712   2.960  19.868  0.00  0.00    +0.000 C 
ATOM     15  C   UNL     1       1.592   4.038  20.479  0.00  0.00    +0.000 C 
ATOM     16  C   UNL     1       2.021   5.155  19.522  0.00  0.00    +0.000 C 
ENDBRANCH   9  10
ENDBRANCH   2   9
TORSDOF 4
ENDMDL
MODEL 9
REMARK VINA RESULT:      -5.9      1.529      2.672
REMARK  Name = 
REMARK  5 active torsions:
REMARK  status: ('A' for Active; 'I' for Inactive)
REMARK    1  A    between atoms: C_1  and  C_2
REMARK    2  A    between atoms: C_2  and  N_3
REMARK    3  A    between atoms: N_3  and  C_14
REMARK    4  A    between atoms: C_4  and  C_6
REMARK    5  A    between atoms: C_6  and  N_7
REMARK                            x       y       z     vdW  Elec       q    Type
REMARK                         _______ _______ _______ _____ _____    ______ ____
ROOT
ATOM      1  N   UNL     1       6.059   4.977  17.194  0.00  0.00    +0.000 N 
ATOM      2  C   UNL     1       4.723   4.635  16.918  0.00  0.00    +0.000 C 
ATOM      3  O   UNL     1       4.395   3.821  16.051  0.00  0.00    +0.000 OA
ENDROOT
BRANCH   1   4
ATOM      4  C   UNL     1       6.358   6.185  17.946  0.00  0.00    +0.000 C 
ATOM      5  C   UNL     1       7.776   6.674  18.106  0.00  0.00    +0.000 C 
ATOM      6  C   UNL     1       6.801   7.482  17.314  0.00  0.00    +0.000 C 
ENDBRANCH   1   4
BRANCH   1   8
ATOM      7  C   UNL     1       7.125   4.818  14.855  0.00  0.00    +0.000 C 
ATOM      8  C   UNL     1       7.158   4.483  16.341  0.00  0.00    +0.000 C 
ENDBRANCH   1   8
BRANCH   2   9
ATOM      9  C   UNL     1       3.631   5.283  17.795  0.00  0.00    +0.000 C 
BRANCH   9  10
ATOM     10  N   UNL     1       3.013   4.326  18.754  0.00  0.00    +0.000 NA
ATOM     11  C   UNL     1       3.947   3.989  19.836  0.00  0.00    +0.000 C 
ATOM     12  C   UNL     1       3.666   2.601  20.419  0.00  0.00    +0.000 C 
ATOM     13  C   UNL     1       2.520   2.536  21.422  0.00  0.00    +0.000 C 
ATOM     14  C   UNL     1       1.176   2.983  20.865  0.00  0.00    +0.000 C 
ATOM     15  C   UNL     1       1.150   4.473  20.563  0.00  0.00    +0.000 C 
ATOM     16  C   UNL     1       1.723   4.875  19.200  0.00  0.00    +0.000 C 
ENDBRANCH   9  10
ENDBRANCH   2   9
TORSDOF 4
ENDMDL
