MODEL 1
REMARK VINA RESULT:      -6.6      0.000      0.000
REMARK  Name = 
REMARK  8 active torsions:
REMARK  status: ('A' for Active; 'I' for Inactive)
REMARK    1  A    between atoms: C_2  and  O_3
REMARK    2  A    between atoms: C_2  and  C_4
REMARK    3  A    between atoms: C_6  and  O_7
REMARK    4  A    between atoms: O_7  and  C_8
REMARK    5  A    between atoms: C_8  and  C_9
REMARK    6  A    between atoms: C_9  and  C_10
REMARK    7  A    between atoms: C_16  and  N_17
REMARK    8  A    between atoms: C_24  and  O_25
REMARK                            x       y       z     vdW  Elec       q    Type
REMARK                         _______ _______ _______ _____ _____    ______ ____
ROOT
ATOM      1  C   UNL     1       5.972   5.907  17.340  0.00  0.00    +0.000 A 
ATOM      2  C   UNL     1       4.795   6.644  17.203  0.00  0.00    +0.000 A 
ATOM      3  C   UNL     1       3.601   6.244  17.825  0.00  0.00    +0.000 A 
ATOM      4  C   UNL     1       3.566   5.029  18.565  0.00  0.00    +0.000 A 
ATOM      5  C   UNL     1       4.752   4.256  18.656  0.00  0.00    +0.000 A 
ATOM      6  I   UNL     1       4.835   2.224  19.362  0.00  0.00    +0.000 I 
ATOM      7  C   UNL     1       5.953   4.725  18.075  0.00  0.00    +0.000 A 
ENDROOT
BRANCH   4   8
ATOM      8  N   UNL     1       2.348   4.627  19.207  0.00  0.00    +0.000 N 
ATOM      9  C   UNL     1       1.384   3.772  18.695  0.00  0.00    +0.000 A 
ATOM     10  C   UNL     1       0.389   3.585  19.628  0.00  0.00    +0.000 A 
ATOM     11  C   UNL     1       0.718   4.370  20.748  0.00  0.00    +0.000 A 
ATOM     12  C   UNL     1       1.882   5.041  20.443  0.00  0.00    +0.000 A 
ENDBRANCH   4   8
BRANCH   1  14
ATOM     13  O   UNL     1       7.677   5.826  15.687  0.00  0.00    +0.000 OA
ATOM     14  C   UNL     1       7.176   6.419  16.630  0.00  0.00    +0.000 C 
BRANCH  14  15
ATOM     15  O   UNL     1       7.615   7.618  17.061  0.00  0.00    +0.000 OA
ATOM     16  H   UNL     1       7.272   8.359  16.515  0.00  0.00    +0.000 HD
ENDBRANCH  14  15
ENDBRANCH   1  14
BRANCH   7  17
ATOM     17  O   UNL     1       7.134   4.029  18.207  0.00  0.00    +0.000 OA
ATOM     18  H   UNL     1       7.756   4.590  18.713  0.00  0.00    +0.000 HD
ENDBRANCH   7  17
BRANCH   3  19
ATOM     19  O   UNL     1       2.470   7.027  17.783  0.00  0.00    +0.000 OA
BRANCH  19  20
ATOM     20  C   UNL     1       2.594   8.417  18.107  0.00  0.00    +0.000 C 
BRANCH  20  21
ATOM     21  C   UNL     1       1.208   9.063  18.118  0.00  0.00    +0.000 C 
BRANCH  21  22
ATOM     22  C   UNL     1       0.782   9.430  19.519  0.00  0.00    +0.000 A 
ATOM     23  C   UNL     1       0.021  10.582  19.756  0.00  0.00    +0.000 A 
ATOM     24  C   UNL     1      -0.337  10.940  21.058  0.00  0.00    +0.000 A 
ATOM     25  C   UNL     1       0.063  10.152  22.134  0.00  0.00    +0.000 A 
ATOM     26  C   UNL     1       0.826   9.006  21.910  0.00  0.00    +0.000 A 
ATOM     27  C   UNL     1       1.184   8.647  20.609  0.00  0.00    +0.000 A 
ENDBRANCH  21  22
ENDBRANCH  20  21
ENDBRANCH  19  20
ENDBRANCH   3  19
TORSDOF 8
ENDMDL
MODEL 2
REMARK VINA RESULT:      -6.5      0.182      1.171
REMARK  Name = 
REMARK  8 active torsions:
REMARK  status: ('A' for Active; 'I' for Inactive)
REMARK    1  A    between atoms: C_2  and  O_3
REMARK    2  A    between atoms: C_2  and  C_4
REMARK    3  A    between atoms: C_6  and  O_7
REMARK    4  A    between atoms: O_7  and  C_8
REMARK    5  A    between atoms: C_8  and  C_9
REMARK    6  A    between atoms: C_9  and  C_10
REMARK    7  A    between atoms: C_16  and  N_17
REMARK    8  A    between atoms: C_24  and  O_25
REMARK                            x       y       z     vdW  Elec       q    Type
REMARK                         _______ _______ _______ _____ _____    ______ ____
ROOT
ATOM      1  C   UNL     1       5.966   6.034  17.473  0.00  0.00    +0.000 A 
ATOM      2  C   UNL     1       4.785   6.760  17.316  0.00  0.00    +0.000 A 
ATOM      3  C   UNL     1       3.581   6.345  17.909  0.00  0.00    +0.000 A 
ATOM      4  C   UNL     1       3.542   5.125  18.640  0.00  0.00    +0.000 A 
ATOM      5  C   UNL     1       4.733   4.362  18.751  0.00  0.00    +0.000 A 
ATOM      6  I   UNL     1       4.820   2.327  19.446  0.00  0.00    +0.000 I 
ATOM      7  C   UNL     1       5.942   4.846  18.200  0.00  0.00    +0.000 A 
ENDROOT
BRANCH   4   8
ATOM      8  N   UNL     1       2.314   4.707  19.252  0.00  0.00    +0.000 N 
ATOM      9  C   UNL     1       1.377   3.834  18.721  0.00  0.00    +0.000 A 
ATOM     10  C   UNL     1       0.362   3.636  19.630  0.00  0.00    +0.000 A 
ATOM     11  C   UNL     1       0.649   4.433  20.753  0.00  0.00    +0.000 A 
ATOM     12  C   UNL     1       1.810   5.120  20.474  0.00  0.00    +0.000 A 
ENDBRANCH   4   8
BRANCH   1  14
ATOM     13  O   UNL     1       7.712   7.607  17.130  0.00  0.00    +0.000 OA
ATOM     14  C   UNL     1       7.180   6.561  16.793  0.00  0.00    +0.000 C 
BRANCH  14  15
ATOM     15  O   UNL     1       7.682   5.756  15.836  0.00  0.00    +0.000 OA
ATOM     16  H   UNL     1       8.664   5.747  15.833  0.00  0.00    +0.000 HD
ENDBRANCH  14  15
ENDBRANCH   1  14
BRANCH   7  17
ATOM     17  O   UNL     1       7.126   4.160  18.353  0.00  0.00    +0.000 OA
ATOM     18  H   UNL     1       7.549   4.476  19.177  0.00  0.00    +0.000 HD
ENDBRANCH   7  17
BRANCH   3  19
ATOM     19  O   UNL     1       2.445   7.117  17.848  0.00  0.00    +0.000 OA
BRANCH  19  20
ATOM     20  C   UNL     1       2.581   8.539  17.977  0.00  0.00    +0.000 C 
BRANCH  20  21
ATOM     21  C   UNL     1       1.195   9.186  17.966  0.00  0.00    +0.000 C 
BRANCH  21  22
ATOM     22  C   UNL     1       0.731   9.516  19.363  0.00  0.00    +0.000 A 
ATOM     23  C   UNL     1       1.015   8.655  20.433  0.00  0.00    +0.000 A 
ATOM     24  C   UNL     1       0.548   8.943  21.718  0.00  0.00    +0.000 A 
ATOM     25  C   UNL     1      -0.205  10.091  21.946  0.00  0.00    +0.000 A 
ATOM     26  C   UNL     1      -0.500  10.952  20.889  0.00  0.00    +0.000 A 
ATOM     27  C   UNL     1      -0.034  10.665  19.604  0.00  0.00    +0.000 A 
ENDBRANCH  21  22
ENDBRANCH  20  21
ENDBRANCH  19  20
ENDBRANCH   3  19
TORSDOF 8
ENDMDL
MODEL 3
REMARK VINA RESULT:      -6.5      0.960      1.633
REMARK  Name = 
REMARK  8 active torsions:
REMARK  status: ('A' for Active; 'I' for Inactive)
REMARK    1  A    between atoms: C_2  and  O_3
REMARK    2  A    between atoms: C_2  and  C_4
REMARK    3  A    between atoms: C_6  and  O_7
REMARK    4  A    between atoms: O_7  and  C_8
REMARK    5  A    between atoms: C_8  and  C_9
REMARK    6  A    between atoms: C_9  and  C_10
REMARK    7  A    between atoms: C_16  and  N_17
REMARK    8  A    between atoms: C_24  and  O_25
REMARK                            x       y       z     vdW  Elec       q    Type
REMARK                         _______ _______ _______ _____ _____    ______ ____
ROOT
ATOM      1  C   UNL     1       5.909   5.902  17.440  0.00  0.00    +0.000 A 
ATOM      2  C   UNL     1       4.698   6.579  17.283  0.00  0.00    +0.000 A 
ATOM      3  C   UNL     1       3.514   6.117  17.880  0.00  0.00    +0.000 A 
ATOM      4  C   UNL     1       3.527   4.898  18.615  0.00  0.00    +0.000 A 
ATOM      5  C   UNL     1       4.749   4.186  18.727  0.00  0.00    +0.000 A 
ATOM      6  I   UNL     1       4.921   2.158  19.428  0.00  0.00    +0.000 I 
ATOM      7  C   UNL     1       5.935   4.718  18.171  0.00  0.00    +0.000 A 
ENDROOT
BRANCH   4   8
ATOM      8  N   UNL     1       2.319   4.433  19.232  0.00  0.00    +0.000 N 
ATOM      9  C   UNL     1       1.875   4.726  20.512  0.00  0.00    +0.000 A 
ATOM     10  C   UNL     1       0.646   4.140  20.722  0.00  0.00    +0.000 A 
ATOM     11  C   UNL     1       0.321   3.430  19.552  0.00  0.00    +0.000 A 
ATOM     12  C   UNL     1       1.381   3.574  18.684  0.00  0.00    +0.000 A 
ENDBRANCH   4   8
BRANCH   1  14
ATOM     13  O   UNL     1       7.614   7.524  17.114  0.00  0.00    +0.000 OA
ATOM     14  C   UNL     1       7.099   6.477  16.755  0.00  0.00    +0.000 C 
BRANCH  14  15
ATOM     15  O   UNL     1       7.601   5.712  15.766  0.00  0.00    +0.000 OA
ATOM     16  H   UNL     1       8.491   5.358  15.984  0.00  0.00    +0.000 HD
ENDBRANCH  14  15
ENDBRANCH   1  14
BRANCH   7  17
ATOM     17  O   UNL     1       7.147   4.082  18.324  0.00  0.00    +0.000 OA
ATOM     18  H   UNL     1       7.715   4.336  17.568  0.00  0.00    +0.000 HD
ENDBRANCH   7  17
BRANCH   3  19
ATOM     19  O   UNL     1       2.347   6.841  17.819  0.00  0.00    +0.000 OA
BRANCH  19  20
ATOM     20  C   UNL     1       2.238   8.025  18.620  0.00  0.00    +0.000 C 
BRANCH  20  21
ATOM     21  C   UNL     1       1.755   9.186  17.750  0.00  0.00    +0.000 C 
BRANCH  21  22
ATOM     22  C   UNL     1       0.593   9.906  18.390  0.00  0.00    +0.000 A 
ATOM     23  C   UNL     1      -0.668   9.914  17.777  0.00  0.00    +0.000 A 
ATOM     24  C   UNL     1      -1.731  10.616  18.352  0.00  0.00    +0.000 A 
ATOM     25  C   UNL     1      -1.545  11.315  19.541  0.00  0.00    +0.000 A 
ATOM     26  C   UNL     1      -0.293  11.319  20.156  0.00  0.00    +0.000 A 
ATOM     27  C   UNL     1       0.770  10.619  19.583  0.00  0.00    +0.000 A 
ENDBRANCH  21  22
ENDBRANCH  20  21
ENDBRANCH  19  20
ENDBRANCH   3  19
TORSDOF 8
ENDMDL
MODEL 4
REMARK VINA RESULT:      -6.4      0.773      1.553
REMARK  Name = 
REMARK  8 active torsions:
REMARK  status: ('A' for Active; 'I' for Inactive)
REMARK    1  A    between atoms: C_2  and  O_3
REMARK    2  A    between atoms: C_2  and  C_4
REMARK    3  A    between atoms: C_6  and  O_7
REMARK    4  A    between atoms: O_7  and  C_8
REMARK    5  A    between atoms: C_8  and  C_9
REMARK    6  A    between atoms: C_9  and  C_10
REMARK    7  A    between atoms: C_16  and  N_17
REMARK    8  A    between atoms: C_24  and  O_25
REMARK                            x       y       z     vdW  Elec       q    Type
REMARK                         _______ _______ _______ _____ _____    ______ ____
ROOT
ATOM      1  C   UNL     1       5.883   6.022  17.457  0.00  0.00    +0.000 A 
ATOM      2  C   UNL     1       4.666   6.678  17.271  0.00  0.00    +0.000 A 
ATOM      3  C   UNL     1       3.476   6.197  17.842  0.00  0.00    +0.000 A 
ATOM      4  C   UNL     1       3.492   4.980  18.579  0.00  0.00    +0.000 A 
ATOM      5  C   UNL     1       4.723   4.288  18.719  0.00  0.00    +0.000 A 
ATOM      6  I   UNL     1       4.912   2.264  19.427  0.00  0.00    +0.000 I 
ATOM      7  C   UNL     1       5.913   4.838  18.190  0.00  0.00    +0.000 A 
ENDROOT
BRANCH   4   8
ATOM      8  N   UNL     1       2.278   4.495  19.169  0.00  0.00    +0.000 N 
ATOM      9  C   UNL     1       1.372   3.615  18.597  0.00  0.00    +0.000 A 
ATOM     10  C   UNL     1       0.362   3.344  19.492  0.00  0.00    +0.000 A 
ATOM     11  C   UNL     1       0.621   4.100  20.650  0.00  0.00    +0.000 A 
ATOM     12  C   UNL     1       1.758   4.837  20.405  0.00  0.00    +0.000 A 
ENDBRANCH   4   8
BRANCH   1  14
ATOM     13  O   UNL     1       7.543   7.692  17.139  0.00  0.00    +0.000 OA
ATOM     14  C   UNL     1       7.079   6.615  16.798  0.00  0.00    +0.000 C 
BRANCH  14  15
ATOM     15  O   UNL     1       7.646   5.835  15.857  0.00  0.00    +0.000 OA
ATOM     16  H   UNL     1       8.601   5.681  16.026  0.00  0.00    +0.000 HD
ENDBRANCH  14  15
ENDBRANCH   1  14
BRANCH   7  17
ATOM     17  O   UNL     1       7.131   4.223  18.371  0.00  0.00    +0.000 OA
ATOM     18  H   UNL     1       7.573   4.653  19.131  0.00  0.00    +0.000 HD
ENDBRANCH   7  17
BRANCH   3  19
ATOM     19  O   UNL     1       2.298   6.902  17.753  0.00  0.00    +0.000 OA
BRANCH  19  20
ATOM     20  C   UNL     1       2.345   8.326  17.911  0.00  0.00    +0.000 C 
BRANCH  20  21
ATOM     21  C   UNL     1       1.816   8.702  19.296  0.00  0.00    +0.000 C 
BRANCH  21  22
ATOM     22  C   UNL     1       0.621   9.619  19.198  0.00  0.00    +0.000 A 
ATOM     23  C   UNL     1       0.190  10.353  20.312  0.00  0.00    +0.000 A 
ATOM     24  C   UNL     1      -0.940  11.169  20.228  0.00  0.00    +0.000 A 
ATOM     25  C   UNL     1      -1.651  11.259  19.035  0.00  0.00    +0.000 A 
ATOM     26  C   UNL     1      -1.235  10.528  17.922  0.00  0.00    +0.000 A 
ATOM     27  C   UNL     1      -0.105   9.712  18.004  0.00  0.00    +0.000 A 
ENDBRANCH  21  22
ENDBRANCH  20  21
ENDBRANCH  19  20
ENDBRANCH   3  19
TORSDOF 8
ENDMDL
MODEL 5
REMARK VINA RESULT:      -6.3      5.910      9.423
REMARK  Name = 
REMARK  8 active torsions:
REMARK  status: ('A' for Active; 'I' for Inactive)
REMARK    1  A    between atoms: C_2  and  O_3
REMARK    2  A    between atoms: C_2  and  C_4
REMARK    3  A    between atoms: C_6  and  O_7
REMARK    4  A    between atoms: O_7  and  C_8
REMARK    5  A    between atoms: C_8  and  C_9
REMARK    6  A    between atoms: C_9  and  C_10
REMARK    7  A    between atoms: C_16  and  N_17
REMARK    8  A    between atoms: C_24  and  O_25
REMARK                            x       y       z     vdW  Elec       q    Type
REMARK                         _______ _______ _______ _____ _____    ______ ____
ROOT
ATOM      1  C   UNL     1      -2.940  11.431  17.704  0.00  0.00    +0.000 A 
ATOM      2  C   UNL     1      -1.784  11.791  18.396  0.00  0.00    +0.000 A 
ATOM      3  C   UNL     1      -1.840  12.330  19.692  0.00  0.00    +0.000 A 
ATOM      4  C   UNL     1      -3.104  12.574  20.298  0.00  0.00    +0.000 A 
ATOM      5  C   UNL     1      -4.279  12.256  19.568  0.00  0.00    +0.000 A 
ATOM      6  I   UNL     1      -6.261  12.899  20.104  0.00  0.00    +0.000 I 
ATOM      7  C   UNL     1      -4.182  11.650  18.294  0.00  0.00    +0.000 A 
ENDROOT
BRANCH   4   8
ATOM      8  N   UNL     1      -3.160  13.116  21.625  0.00  0.00    +0.000 N 
ATOM      9  C   UNL     1      -3.120  14.457  21.975  0.00  0.00    +0.000 A 
ATOM     10  C   UNL     1      -3.254  14.583  23.340  0.00  0.00    +0.000 A 
ATOM     11  C   UNL     1      -3.348  13.283  23.869  0.00  0.00    +0.000 A 
ATOM     12  C   UNL     1      -3.227  12.407  22.812  0.00  0.00    +0.000 A 
ENDBRANCH   4   8
BRANCH   1  14
ATOM     13  O   UNL     1      -2.244   9.791  16.132  0.00  0.00    +0.000 OA
ATOM     14  C   UNL     1      -2.763  10.877  16.334  0.00  0.00    +0.000 C 
BRANCH  14  15
ATOM     15  O   UNL     1      -3.290  11.634  15.350  0.00  0.00    +0.000 OA
ATOM     16  H   UNL     1      -3.487  12.548  15.648  0.00  0.00    +0.000 HD
ENDBRANCH  14  15
ENDBRANCH   1  14
BRANCH   7  17
ATOM     17  O   UNL     1      -5.305  11.268  17.594  0.00  0.00    +0.000 OA
ATOM     18  H   UNL     1      -5.332  11.789  16.766  0.00  0.00    +0.000 HD
ENDBRANCH   7  17
BRANCH   3  19
ATOM     19  O   UNL     1      -0.698  12.582  20.417  0.00  0.00    +0.000 OA
BRANCH  19  20
ATOM     20  C   UNL     1       0.466  11.789  20.149  0.00  0.00    +0.000 C 
BRANCH  20  21
ATOM     21  C   UNL     1       0.278  10.392  20.743  0.00  0.00    +0.000 C 
BRANCH  21  22
ATOM     22  C   UNL     1       1.008   9.347  19.934  0.00  0.00    +0.000 A 
ATOM     23  C   UNL     1       1.501   8.186  20.545  0.00  0.00    +0.000 A 
ATOM     24  C   UNL     1       2.211   7.241  19.801  0.00  0.00    +0.000 A 
ATOM     25  C   UNL     1       2.436   7.447  18.443  0.00  0.00    +0.000 A 
ATOM     26  C   UNL     1       1.956   8.601  17.826  0.00  0.00    +0.000 A 
ATOM     27  C   UNL     1       1.245   9.546  18.568  0.00  0.00    +0.000 A 
ENDBRANCH  21  22
ENDBRANCH  20  21
ENDBRANCH  19  20
ENDBRANCH   3  19
TORSDOF 8
ENDMDL
MODEL 6
REMARK VINA RESULT:      -6.3      1.466      1.956
REMARK  Name = 
REMARK  8 active torsions:
REMARK  status: ('A' for Active; 'I' for Inactive)
REMARK    1  A    between atoms: C_2  and  O_3
REMARK    2  A    between atoms: C_2  and  C_4
REMARK    3  A    between atoms: C_6  and  O_7
REMARK    4  A    between atoms: O_7  and  C_8
REMARK    5  A    between atoms: C_8  and  C_9
REMARK    6  A    between atoms: C_9  and  C_10
REMARK    7  A    between atoms: C_16  and  N_17
REMARK    8  A    between atoms: C_24  and  O_25
REMARK                            x       y       z     vdW  Elec       q    Type
REMARK                         _______ _______ _______ _____ _____    ______ ____
ROOT
ATOM      1  C   UNL     1       5.135   5.577  17.024  0.00  0.00    +0.000 A 
ATOM      2  C   UNL     1       4.334   6.382  17.834  0.00  0.00    +0.000 A 
ATOM      3  C   UNL     1       3.499   5.833  18.821  0.00  0.00    +0.000 A 
ATOM      4  C   UNL     1       3.417   4.420  18.966  0.00  0.00    +0.000 A 
ATOM      5  C   UNL     1       4.193   3.603  18.104  0.00  0.00    +0.000 A 
ATOM      6  I   UNL     1       3.931   1.480  17.869  0.00  0.00    +0.000 I 
ATOM      7  C   UNL     1       5.075   4.193  17.168  0.00  0.00    +0.000 A 
ENDROOT
BRANCH   4   8
ATOM      8  N   UNL     1       2.571   3.861  19.981  0.00  0.00    +0.000 N 
ATOM      9  C   UNL     1       1.205   3.645  19.895  0.00  0.00    +0.000 A 
ATOM     10  C   UNL     1       0.758   3.042  21.049  0.00  0.00    +0.000 A 
ATOM     11  C   UNL     1       1.869   2.903  21.901  0.00  0.00    +0.000 A 
ATOM     12  C   UNL     1       2.947   3.464  21.252  0.00  0.00    +0.000 A 
ENDBRANCH   4   8
BRANCH   1  14
ATOM     13  O   UNL     1       7.179   6.089  15.927  0.00  0.00    +0.000 OA
ATOM     14  C   UNL     1       5.973   6.265  16.004  0.00  0.00    +0.000 C 
BRANCH  14  15
ATOM     15  O   UNL     1       5.284   7.029  15.134  0.00  0.00    +0.000 OA
ATOM     16  H   UNL     1       4.960   6.516  14.362  0.00  0.00    +0.000 HD
ENDBRANCH  14  15
ENDBRANCH   1  14
BRANCH   7  17
ATOM     17  O   UNL     1       5.890   3.425  16.367  0.00  0.00    +0.000 OA
ATOM     18  H   UNL     1       5.316   2.863  15.809  0.00  0.00    +0.000 HD
ENDBRANCH   7  17
BRANCH   3  19
ATOM     19  O   UNL     1       2.794   6.631  19.693  0.00  0.00    +0.000 OA
BRANCH  19  20
ATOM     20  C   UNL     1       2.139   7.794  19.172  0.00  0.00    +0.000 C 
BRANCH  20  21
ATOM     21  C   UNL     1       1.523   8.590  20.323  0.00  0.00    +0.000 C 
BRANCH  21  22
ATOM     22  C   UNL     1       0.515   9.595  19.821  0.00  0.00    +0.000 A 
ATOM     23  C   UNL     1      -0.140  10.457  20.711  0.00  0.00    +0.000 A 
ATOM     24  C   UNL     1      -1.102  11.357  20.248  0.00  0.00    +0.000 A 
ATOM     25  C   UNL     1      -1.419  11.404  18.893  0.00  0.00    +0.000 A 
ATOM     26  C   UNL     1      -0.779  10.547  17.999  0.00  0.00    +0.000 A 
ATOM     27  C   UNL     1       0.183   9.647  18.461  0.00  0.00    +0.000 A 
ENDBRANCH  21  22
ENDBRANCH  20  21
ENDBRANCH  19  20
ENDBRANCH   3  19
TORSDOF 8
ENDMDL
MODEL 7
REMARK VINA RESULT:      -6.2      1.231      1.739
REMARK  Name = 
REMARK  8 active torsions:
REMARK  status: ('A' for Active; 'I' for Inactive)
REMARK    1  A    between atoms: C_2  and  O_3
REMARK    2  A    between atoms: C_2  and  C_4
REMARK    3  A    between atoms: C_6  and  O_7
REMARK    4  A    between atoms: O_7  and  C_8
REMARK    5  A    between atoms: C_8  and  C_9
REMARK    6  A    between atoms: C_9  and  C_10
REMARK    7  A    between atoms: C_16  and  N_17
REMARK    8  A    between atoms: C_24  and  O_25
REMARK                            x       y       z     vdW  Elec       q    Type
REMARK                         _______ _______ _______ _____ _____    ______ ____
ROOT
ATOM      1  C   UNL     1       4.988   5.614  16.900  0.00  0.00    +0.000 A 
ATOM      2  C   UNL     1       3.915   6.359  17.392  0.00  0.00    +0.000 A 
ATOM      3  C   UNL     1       2.999   5.814  18.306  0.00  0.00    +0.000 A 
ATOM      4  C   UNL     1       3.125   4.452  18.701  0.00  0.00    +0.000 A 
ATOM      5  C   UNL     1       4.186   3.683  18.156  0.00  0.00    +0.000 A 
ATOM      6  I   UNL     1       4.333   1.540  18.286  0.00  0.00    +0.000 I 
ATOM      7  C   UNL     1       5.129   4.285  17.292  0.00  0.00    +0.000 A 
ENDROOT
BRANCH   4   8
ATOM      8  N   UNL     1       2.194   3.900  19.642  0.00  0.00    +0.000 N 
ATOM      9  C   UNL     1       0.940   3.381  19.360  0.00  0.00    +0.000 A 
ATOM     10  C   UNL     1       0.370   2.895  20.516  0.00  0.00    +0.000 A 
ATOM     11  C   UNL     1       1.277   3.144  21.562  0.00  0.00    +0.000 A 
ATOM     12  C   UNL     1       2.351   3.810  21.014  0.00  0.00    +0.000 A 
ENDBRANCH   4   8
BRANCH   1  14
ATOM     13  O   UNL     1       7.106   6.184  15.988  0.00  0.00    +0.000 OA
ATOM     14  C   UNL     1       5.891   6.289  15.929  0.00  0.00    +0.000 C 
BRANCH  14  15
ATOM     15  O   UNL     1       5.258   6.956  14.943  0.00  0.00    +0.000 OA
ATOM     16  H   UNL     1       5.793   7.700  14.593  0.00  0.00    +0.000 HD
ENDBRANCH  14  15
ENDBRANCH   1  14
BRANCH   7  17
ATOM     17  O   UNL     1       6.207   3.581  16.804  0.00  0.00    +0.000 OA
ATOM     18  H   UNL     1       6.726   4.186  16.235  0.00  0.00    +0.000 HD
ENDBRANCH   7  17
BRANCH   3  19
ATOM     19  O   UNL     1       2.008   6.579  18.876  0.00  0.00    +0.000 OA
BRANCH  19  20
ATOM     20  C   UNL     1       2.365   7.465  19.946  0.00  0.00    +0.000 C 
BRANCH  20  21
ATOM     21  C   UNL     1       1.308   7.383  21.048  0.00  0.00    +0.000 C 
BRANCH  21  22
ATOM     22  C   UNL     1       0.678   8.730  21.308  0.00  0.00    +0.000 A 
ATOM     23  C   UNL     1       0.144   9.039  22.567  0.00  0.00    +0.000 A 
ATOM     24  C   UNL     1      -0.474  10.271  22.791  0.00  0.00    +0.000 A 
ATOM     25  C   UNL     1      -0.564  11.205  21.763  0.00  0.00    +0.000 A 
ATOM     26  C   UNL     1      -0.041  10.907  20.505  0.00  0.00    +0.000 A 
ATOM     27  C   UNL     1       0.577   9.676  20.279  0.00  0.00    +0.000 A 
ENDBRANCH  21  22
ENDBRANCH  20  21
ENDBRANCH  19  20
ENDBRANCH   3  19
TORSDOF 8
ENDMDL
MODEL 8
REMARK VINA RESULT:      -6.2      0.886      1.344
REMARK  Name = 
REMARK  8 active torsions:
REMARK  status: ('A' for Active; 'I' for Inactive)
REMARK    1  A    between atoms: C_2  and  O_3
REMARK    2  A    between atoms: C_2  and  C_4
REMARK    3  A    between atoms: C_6  and  O_7
REMARK    4  A    between atoms: O_7  and  C_8
REMARK    5  A    between atoms: C_8  and  C_9
REMARK    6  A    between atoms: C_9  and  C_10
REMARK    7  A    between atoms: C_16  and  N_17
REMARK    8  A    between atoms: C_24  and  O_25
REMARK                            x       y       z     vdW  Elec       q    Type
REMARK                         _______ _______ _______ _____ _____    ______ ____
ROOT
ATOM      1  C   UNL     1       5.640   5.941  17.614  0.00  0.00    +0.000 A 
ATOM      2  C   UNL     1       4.449   6.647  17.787  0.00  0.00    +0.000 A 
ATOM      3  C   UNL     1       3.346   6.081  18.446  0.00  0.00    +0.000 A 
ATOM      4  C   UNL     1       3.415   4.733  18.899  0.00  0.00    +0.000 A 
ATOM      5  C   UNL     1       4.608   4.001  18.673  0.00  0.00    +0.000 A 
ATOM      6  I   UNL     1       4.796   1.869  18.900  0.00  0.00    +0.000 I 
ATOM      7  C   UNL     1       5.723   4.627  18.068  0.00  0.00    +0.000 A 
ENDROOT
BRANCH   4   8
ATOM      8  N   UNL     1       2.290   4.159  19.580  0.00  0.00    +0.000 N 
ATOM      9  C   UNL     1       1.142   3.646  18.998  0.00  0.00    +0.000 A 
ATOM     10  C   UNL     1       0.317   3.133  19.974  0.00  0.00    +0.000 A 
ATOM     11  C   UNL     1       0.949   3.359  21.211  0.00  0.00    +0.000 A 
ATOM     12  C   UNL     1       2.118   4.038  20.948  0.00  0.00    +0.000 A 
ENDBRANCH   4   8
BRANCH   1  14
ATOM     13  O   UNL     1       7.086   7.773  17.173  0.00  0.00    +0.000 OA
ATOM     14  C   UNL     1       6.741   6.636  16.893  0.00  0.00    +0.000 C 
BRANCH  14  15
ATOM     15  O   UNL     1       7.369   5.884  15.968  0.00  0.00    +0.000 OA
ATOM     16  H   UNL     1       7.190   4.925  16.082  0.00  0.00    +0.000 HD
ENDBRANCH  14  15
ENDBRANCH   1  14
BRANCH   7  17
ATOM     17  O   UNL     1       6.916   3.961  17.899  0.00  0.00    +0.000 OA
ATOM     18  H   UNL     1       6.808   3.340  17.151  0.00  0.00    +0.000 HD
ENDBRANCH   7  17
BRANCH   3  19
ATOM     19  O   UNL     1       2.213   6.813  18.715  0.00  0.00    +0.000 OA
BRANCH  19  20
ATOM     20  C   UNL     1       2.300   7.866  19.683  0.00  0.00    +0.000 C 
BRANCH  20  21
ATOM     21  C   UNL     1       1.332   7.581  20.833  0.00  0.00    +0.000 C 
BRANCH  21  22
ATOM     22  C   UNL     1       0.548   8.814  21.212  0.00  0.00    +0.000 A 
ATOM     23  C   UNL     1       0.174   9.751  20.238  0.00  0.00    +0.000 A 
ATOM     24  C   UNL     1      -0.515  10.911  20.598  0.00  0.00    +0.000 A 
ATOM     25  C   UNL     1      -0.836  11.147  21.932  0.00  0.00    +0.000 A 
ATOM     26  C   UNL     1      -0.464  10.226  22.911  0.00  0.00    +0.000 A 
ATOM     27  C   UNL     1       0.225   9.065  22.551  0.00  0.00    +0.000 A 
ENDBRANCH  21  22
ENDBRANCH  20  21
ENDBRANCH  19  20
ENDBRANCH   3  19
TORSDOF 8
ENDMDL
MODEL 9
REMARK VINA RESULT:      -6.2      0.998      1.290
REMARK  Name = 
REMARK  8 active torsions:
REMARK  status: ('A' for Active; 'I' for Inactive)
REMARK    1  A    between atoms: C_2  and  O_3
REMARK    2  A    between atoms: C_2  and  C_4
REMARK    3  A    between atoms: C_6  and  O_7
REMARK    4  A    between atoms: O_7  and  C_8
REMARK    5  A    between atoms: C_8  and  C_9
REMARK    6  A    between atoms: C_9  and  C_10
REMARK    7  A    between atoms: C_16  and  N_17
REMARK    8  A    between atoms: C_24  and  O_25
REMARK                            x       y       z     vdW  Elec       q    Type
REMARK                         _______ _______ _______ _____ _____    ______ ____
ROOT
ATOM      1  C   UNL     1       5.914   5.974  17.443  0.00  0.00    +0.000 A 
ATOM      2  C   UNL     1       4.717   6.679  17.310  0.00  0.00    +0.000 A 
ATOM      3  C   UNL     1       3.527   6.228  17.905  0.00  0.00    +0.000 A 
ATOM      4  C   UNL     1       3.520   4.993  18.613  0.00  0.00    +0.000 A 
ATOM      5  C   UNL     1       4.727   4.254  18.699  0.00  0.00    +0.000 A 
ATOM      6  I   UNL     1       4.862   2.208  19.354  0.00  0.00    +0.000 I 
ATOM      7  C   UNL     1       5.921   4.773  18.147  0.00  0.00    +0.000 A 
ENDROOT
BRANCH   4   8
ATOM      8  N   UNL     1       2.306   4.539  19.228  0.00  0.00    +0.000 N 
ATOM      9  C   UNL     1       1.359   3.695  18.669  0.00  0.00    +0.000 A 
ATOM     10  C   UNL     1       0.364   3.444  19.587  0.00  0.00    +0.000 A 
ATOM     11  C   UNL     1       0.675   4.176  20.747  0.00  0.00    +0.000 A 
ATOM     12  C   UNL     1       1.829   4.881  20.481  0.00  0.00    +0.000 A 
ENDBRANCH   4   8
BRANCH   1  14
ATOM     13  O   UNL     1       7.674   5.960  15.848  0.00  0.00    +0.000 OA
ATOM     14  C   UNL     1       7.111   6.540  16.763  0.00  0.00    +0.000 C 
BRANCH  14  15
ATOM     15  O   UNL     1       7.468   7.769  17.186  0.00  0.00    +0.000 OA
ATOM     16  H   UNL     1       7.068   8.481  16.643  0.00  0.00    +0.000 HD
ENDBRANCH  14  15
ENDBRANCH   1  14
BRANCH   7  17
ATOM     17  O   UNL     1       7.120   4.109  18.276  0.00  0.00    +0.000 OA
ATOM     18  H   UNL     1       7.632   4.553  18.983  0.00  0.00    +0.000 HD
ENDBRANCH   7  17
BRANCH   3  19
ATOM     19  O   UNL     1       2.374   6.978  17.868  0.00  0.00    +0.000 OA
BRANCH  19  20
ATOM     20  C   UNL     1       2.444   8.351  18.273  0.00  0.00    +0.000 C 
BRANCH  20  21
ATOM     21  C   UNL     1       1.255   9.115  17.688  0.00  0.00    +0.000 C 
BRANCH  21  22
ATOM     22  C   UNL     1       0.816  10.234  18.601  0.00  0.00    +0.000 A 
ATOM     23  C   UNL     1      -0.369  10.128  19.343  0.00  0.00    +0.000 A 
ATOM     24  C   UNL     1      -0.792  11.182  20.156  0.00  0.00    +0.000 A 
ATOM     25  C   UNL     1      -0.039  12.350  20.235  0.00  0.00    +0.000 A 
ATOM     26  C   UNL     1       1.139  12.469  19.496  0.00  0.00    +0.000 A 
ATOM     27  C   UNL     1       1.563  11.416  18.684  0.00  0.00    +0.000 A 
ENDBRANCH  21  22
ENDBRANCH  20  21
ENDBRANCH  19  20
ENDBRANCH   3  19
TORSDOF 8
ENDMDL
