MODEL 1
REMARK VINA RESULT:      -8.1      0.000      0.000
REMARK  Name = 
REMARK  11 active torsions:
REMARK  status: ('A' for Active; 'I' for Inactive)
REMARK    1  A    between atoms: C_2  and  O_3
REMARK    2  A    between atoms: C_2  and  C_4
REMARK    3  A    between atoms: C_4  and  C_5
REMARK    4  A    between atoms: C_5  and  C_6
REMARK    5  A    between atoms: C_8  and  C_9
REMARK    6  A    between atoms: C_9  and  C_10
REMARK    7  A    between atoms: C_10  and  N_11
REMARK    8  A    between atoms: N_11  and  S_12
REMARK    9  A    between atoms: S_12  and  C_15
REMARK   10  A    between atoms: C_23  and  O_24
REMARK   11  A    between atoms: O_24  and  C_25
REMARK                            x       y       z     vdW  Elec       q    Type
REMARK                         _______ _______ _______ _____ _____    ______ ____
ROOT
ATOM      1  C   UNL     1       5.089   5.977  17.082  0.00  0.00    +0.000 A 
ATOM      2  C   UNL     1       4.297   7.121  17.222  0.00  0.00    +0.000 A 
ATOM      3  C   UNL     1       2.952   7.044  17.620  0.00  0.00    +0.000 A 
ATOM      4  C   UNL     1       2.382   5.782  17.838  0.00  0.00    +0.000 A 
ATOM      5  C   UNL     1       3.153   4.628  17.687  0.00  0.00    +0.000 A 
ATOM      6  C   UNL     1       4.479   4.730  17.249  0.00  0.00    +0.000 A 
ENDROOT
BRANCH   1   7
ATOM      7  C   UNL     1       6.562   6.018  16.745  0.00  0.00    +0.000 C 
BRANCH   7   8
ATOM      8  C   UNL     1       7.508   5.251  17.659  0.00  0.00    +0.000 C 
BRANCH   8  10
ATOM      9  O   UNL     1       7.294   5.387  20.071  0.00  0.00    +0.000 OA
ATOM     10  C   UNL     1       7.658   5.871  19.012  0.00  0.00    +0.000 C 
BRANCH  10  11
ATOM     11  O   UNL     1       8.364   7.025  18.936  0.00  0.00    +0.000 OA
ATOM     12  H   UNL     1       8.004   7.747  19.491  0.00  0.00    +0.000 HD
ENDBRANCH  10  11
ENDBRANCH   8  10
ENDBRANCH   7   8
ENDBRANCH   1   7
BRANCH   3  13
ATOM     13  C   UNL     1       2.158   8.316  17.821  0.00  0.00    +0.000 C 
BRANCH  13  14
ATOM     14  C   UNL     1       1.853   8.671  19.293  0.00  0.00    +0.000 C 
BRANCH  14  15
ATOM     15  N   UNL     1       1.504  10.099  19.483  0.00  0.00    +0.000 NA
ATOM     16  H   UNL     1       1.489  10.661  18.637  0.00  0.00    +0.000 HD
BRANCH  15  17
ATOM     17  S   UNL     1       0.126  10.467  20.405  0.00  0.00    +0.000 S 
ATOM     18  O   UNL     1      -0.142   9.259  21.148  0.00  0.00    +0.000 OA
ATOM     19  O   UNL     1       0.366  11.731  21.070  0.00  0.00    +0.000 OA
BRANCH  17  20
ATOM     20  C   UNL     1      -1.204  10.672  19.232  0.00  0.00    +0.000 A 
ATOM     21  C   UNL     1      -2.184  11.575  19.552  0.00  0.00    +0.000 A 
ATOM     22  C   UNL     1      -3.254  11.876  18.704  0.00  0.00    +0.000 A 
ATOM     23  C   UNL     1      -3.313  11.257  17.480  0.00  0.00    +0.000 A 
ATOM     24 CL   UNL     1      -4.619  11.606  16.421  0.00  0.00    +0.000 Cl
ATOM     25  C   UNL     1      -2.306  10.381  17.114  0.00  0.00    +0.000 A 
ATOM     26  C   UNL     1      -1.239  10.070  17.976  0.00  0.00    +0.000 A 
ENDBRANCH  17  20
ENDBRANCH  15  17
ENDBRANCH  14  15
ENDBRANCH  13  14
ENDBRANCH   3  13
BRANCH   5  27
ATOM     27  O   UNL     1       2.537   3.427  17.976  0.00  0.00    +0.000 OA
BRANCH  27  28
ATOM     28  C   UNL     1       2.292   3.103  19.290  0.00  0.00    +0.000 A 
ATOM     29  C   UNL     1       1.039   3.147  19.903  0.00  0.00    +0.000 A 
ATOM     30  C   UNL     1       0.931   2.897  21.267  0.00  0.00    +0.000 A 
ATOM     31  C   UNL     1       2.073   2.535  21.960  0.00  0.00    +0.000 A 
ATOM     32  N   UNL     1       3.290   2.398  21.384  0.00  0.00    +0.000 NA
ATOM     33  C   UNL     1       3.368   2.684  20.061  0.00  0.00    +0.000 A 
ENDBRANCH  27  28
ENDBRANCH   5  27
TORSDOF 11
ENDMDL
MODEL 2
REMARK VINA RESULT:      -7.9      1.646      1.860
REMARK  Name = 
REMARK  11 active torsions:
REMARK  status: ('A' for Active; 'I' for Inactive)
REMARK    1  A    between atoms: C_2  and  O_3
REMARK    2  A    between atoms: C_2  and  C_4
REMARK    3  A    between atoms: C_4  and  C_5
REMARK    4  A    between atoms: C_5  and  C_6
REMARK    5  A    between atoms: C_8  and  C_9
REMARK    6  A    between atoms: C_9  and  C_10
REMARK    7  A    between atoms: C_10  and  N_11
REMARK    8  A    between atoms: N_11  and  S_12
REMARK    9  A    between atoms: S_12  and  C_15
REMARK   10  A    between atoms: C_23  and  O_24
REMARK   11  A    between atoms: O_24  and  C_25
REMARK                            x       y       z     vdW  Elec       q    Type
REMARK                         _______ _______ _______ _____ _____    ______ ____
ROOT
ATOM      1  C   UNL     1       4.852   6.265  17.186  0.00  0.00    +0.000 A 
ATOM      2  C   UNL     1       3.984   7.352  17.317  0.00  0.00    +0.000 A 
ATOM      3  C   UNL     1       2.640   7.184  17.690  0.00  0.00    +0.000 A 
ATOM      4  C   UNL     1       2.151   5.886  17.891  0.00  0.00    +0.000 A 
ATOM      5  C   UNL     1       3.000   4.786  17.748  0.00  0.00    +0.000 A 
ATOM      6  C   UNL     1       4.324   4.979  17.335  0.00  0.00    +0.000 A 
ENDROOT
BRANCH   1   7
ATOM      7  C   UNL     1       6.326   6.405  16.877  0.00  0.00    +0.000 C 
BRANCH   7   8
ATOM      8  C   UNL     1       7.092   5.132  16.544  0.00  0.00    +0.000 C 
BRANCH   8  10
ATOM      9  O   UNL     1       7.779   5.470  14.243  0.00  0.00    +0.000 OA
ATOM     10  C   UNL     1       7.150   4.841  15.078  0.00  0.00    +0.000 C 
BRANCH  10  11
ATOM     11  O   UNL     1       6.485   3.695  14.789  0.00  0.00    +0.000 OA
ATOM     12  H   UNL     1       6.389   3.090  15.554  0.00  0.00    +0.000 HD
ENDBRANCH  10  11
ENDBRANCH   8  10
ENDBRANCH   7   8
ENDBRANCH   1   7
BRANCH   3  13
ATOM     13  C   UNL     1       1.760   8.400  17.881  0.00  0.00    +0.000 C 
BRANCH  13  14
ATOM     14  C   UNL     1       2.518   9.735  18.056  0.00  0.00    +0.000 C 
BRANCH  14  15
ATOM     15  N   UNL     1       1.646  10.921  17.886  0.00  0.00    +0.000 NA
ATOM     16  H   UNL     1       1.049  10.910  17.064  0.00  0.00    +0.000 HD
BRANCH  15  17
ATOM     17  S   UNL     1       0.725  11.432  19.219  0.00  0.00    +0.000 S 
ATOM     18  O   UNL     1       1.038  10.480  20.258  0.00  0.00    +0.000 OA
ATOM     19  O   UNL     1       0.955  12.851  19.394  0.00  0.00    +0.000 OA
BRANCH  17  20
ATOM     20  C   UNL     1      -0.980  11.172  18.760  0.00  0.00    +0.000 A 
ATOM     21  C   UNL     1      -1.900  12.064  19.248  0.00  0.00    +0.000 A 
ATOM     22  C   UNL     1      -3.260  12.014  18.927  0.00  0.00    +0.000 A 
ATOM     23  C   UNL     1      -3.692  11.041  18.060  0.00  0.00    +0.000 A 
ATOM     24 CL   UNL     1      -5.358  10.955  17.652  0.00  0.00    +0.000 Cl
ATOM     25  C   UNL     1      -2.773  10.162  17.514  0.00  0.00    +0.000 A 
ATOM     26  C   UNL     1      -1.408  10.207  17.851  0.00  0.00    +0.000 A 
ENDBRANCH  17  20
ENDBRANCH  15  17
ENDBRANCH  14  15
ENDBRANCH  13  14
ENDBRANCH   3  13
BRANCH   5  27
ATOM     27  O   UNL     1       2.460   3.545  18.019  0.00  0.00    +0.000 OA
BRANCH  27  28
ATOM     28  C   UNL     1       2.326   3.149  19.329  0.00  0.00    +0.000 A 
ATOM     29  C   UNL     1       1.131   3.167  20.051  0.00  0.00    +0.000 A 
ATOM     30  C   UNL     1       1.139   2.841  21.403  0.00  0.00    +0.000 A 
ATOM     31  C   UNL     1       2.333   2.432  21.972  0.00  0.00    +0.000 A 
ATOM     32  N   UNL     1       3.493   2.320  21.286  0.00  0.00    +0.000 NA
ATOM     33  C   UNL     1       3.460   2.679  19.979  0.00  0.00    +0.000 A 
ENDBRANCH  27  28
ENDBRANCH   5  27
TORSDOF 11
ENDMDL
MODEL 3
REMARK VINA RESULT:      -7.9      2.833      5.182
REMARK  Name = 
REMARK  11 active torsions:
REMARK  status: ('A' for Active; 'I' for Inactive)
REMARK    1  A    between atoms: C_2  and  O_3
REMARK    2  A    between atoms: C_2  and  C_4
REMARK    3  A    between atoms: C_4  and  C_5
REMARK    4  A    between atoms: C_5  and  C_6
REMARK    5  A    between atoms: C_8  and  C_9
REMARK    6  A    between atoms: C_9  and  C_10
REMARK    7  A    between atoms: C_10  and  N_11
REMARK    8  A    between atoms: N_11  and  S_12
REMARK    9  A    between atoms: S_12  and  C_15
REMARK   10  A    between atoms: C_23  and  O_24
REMARK   11  A    between atoms: O_24  and  C_25
REMARK                            x       y       z     vdW  Elec       q    Type
REMARK                         _______ _______ _______ _____ _____    ______ ____
ROOT
ATOM      1  C   UNL     1       2.172   5.323  19.670  0.00  0.00    +0.000 A 
ATOM      2  C   UNL     1       1.822   6.595  19.212  0.00  0.00    +0.000 A 
ATOM      3  C   UNL     1       2.703   7.372  18.443  0.00  0.00    +0.000 A 
ATOM      4  C   UNL     1       3.983   6.872  18.169  0.00  0.00    +0.000 A 
ATOM      5  C   UNL     1       4.358   5.609  18.633  0.00  0.00    +0.000 A 
ATOM      6  C   UNL     1       3.476   4.873  19.433  0.00  0.00    +0.000 A 
ENDROOT
BRANCH   1   7
ATOM      7  C   UNL     1       1.225   4.415  20.422  0.00  0.00    +0.000 C 
BRANCH   7   8
ATOM      8  C   UNL     1       1.551   2.927  20.439  0.00  0.00    +0.000 C 
BRANCH   8  10
ATOM      9  O   UNL     1       0.205   2.349  18.506  0.00  0.00    +0.000 OA
ATOM     10  C   UNL     1       1.235   2.237  19.151  0.00  0.00    +0.000 C 
BRANCH  10  11
ATOM     11  O   UNL     1       2.304   1.529  18.711  0.00  0.00    +0.000 OA
ATOM     12  H   UNL     1       2.199   1.176  17.803  0.00  0.00    +0.000 HD
ENDBRANCH  10  11
ENDBRANCH   8  10
ENDBRANCH   7   8
ENDBRANCH   1   7
BRANCH   3  13
ATOM     13  C   UNL     1       2.250   8.716  17.915  0.00  0.00    +0.000 C 
BRANCH  13  14
ATOM     14  C   UNL     1       0.920   9.235  18.506  0.00  0.00    +0.000 C 
BRANCH  14  15
ATOM     15  N   UNL     1       1.107  10.026  19.745  0.00  0.00    +0.000 NA
ATOM     16  H   UNL     1       2.017   9.935  20.187  0.00  0.00    +0.000 HD
BRANCH  15  17
ATOM     17  S   UNL     1       0.678  11.669  19.715  0.00  0.00    +0.000 S 
ATOM     18  O   UNL     1       1.824  12.349  20.272  0.00  0.00    +0.000 OA
ATOM     19  O   UNL     1       0.186  11.972  18.387  0.00  0.00    +0.000 OA
BRANCH  17  20
ATOM     20  C   UNL     1      -0.659  11.845  20.884  0.00  0.00    +0.000 A 
ATOM     21  C   UNL     1      -0.513  11.222  22.097  0.00  0.00    +0.000 A 
ATOM     22  C   UNL     1      -1.455  11.320  23.126  0.00  0.00    +0.000 A 
ATOM     23  C   UNL     1      -2.567  12.097  22.923  0.00  0.00    +0.000 A 
ATOM     24 CL   UNL     1      -3.741  12.231  24.169  0.00  0.00    +0.000 Cl
ATOM     25  C   UNL     1      -2.710  12.778  21.726  0.00  0.00    +0.000 A 
ATOM     26  C   UNL     1      -1.767  12.666  20.688  0.00  0.00    +0.000 A 
ENDBRANCH  17  20
ENDBRANCH  15  17
ENDBRANCH  14  15
ENDBRANCH  13  14
ENDBRANCH   3  13
BRANCH   5  27
ATOM     27  O   UNL     1       5.613   5.162  18.274  0.00  0.00    +0.000 OA
BRANCH  27  28
ATOM     28  C   UNL     1       5.911   5.012  16.940  0.00  0.00    +0.000 A 
ATOM     29  C   UNL     1       5.120   4.327  16.016  0.00  0.00    +0.000 A 
ATOM     30  C   UNL     1       5.576   4.152  14.714  0.00  0.00    +0.000 A 
ATOM     31  C   UNL     1       6.779   4.738  14.357  0.00  0.00    +0.000 A 
ATOM     32  N   UNL     1       7.532   5.481  15.200  0.00  0.00    +0.000 NA
ATOM     33  C   UNL     1       7.078   5.602  16.471  0.00  0.00    +0.000 A 
ENDBRANCH  27  28
ENDBRANCH   5  27
TORSDOF 11
ENDMDL
MODEL 4
REMARK VINA RESULT:      -7.9      5.794      7.688
REMARK  Name = 
REMARK  11 active torsions:
REMARK  status: ('A' for Active; 'I' for Inactive)
REMARK    1  A    between atoms: C_2  and  O_3
REMARK    2  A    between atoms: C_2  and  C_4
REMARK    3  A    between atoms: C_4  and  C_5
REMARK    4  A    between atoms: C_5  and  C_6
REMARK    5  A    between atoms: C_8  and  C_9
REMARK    6  A    between atoms: C_9  and  C_10
REMARK    7  A    between atoms: C_10  and  N_11
REMARK    8  A    between atoms: N_11  and  S_12
REMARK    9  A    between atoms: S_12  and  C_15
REMARK   10  A    between atoms: C_23  and  O_24
REMARK   11  A    between atoms: O_24  and  C_25
REMARK                            x       y       z     vdW  Elec       q    Type
REMARK                         _______ _______ _______ _____ _____    ______ ____
ROOT
ATOM      1  C   UNL     1       5.841   5.531  16.363  0.00  0.00    +0.000 A 
ATOM      2  C   UNL     1       6.805   6.419  16.846  0.00  0.00    +0.000 A 
ATOM      3  C   UNL     1       7.213   6.407  18.190  0.00  0.00    +0.000 A 
ATOM      4  C   UNL     1       6.601   5.510  19.075  0.00  0.00    +0.000 A 
ATOM      5  C   UNL     1       5.623   4.626  18.615  0.00  0.00    +0.000 A 
ATOM      6  C   UNL     1       5.205   4.687  17.280  0.00  0.00    +0.000 A 
ENDROOT
BRANCH   1   7
ATOM      7  C   UNL     1       5.437   5.445  14.908  0.00  0.00    +0.000 C 
BRANCH   7   8
ATOM      8  C   UNL     1       6.021   4.303  14.088  0.00  0.00    +0.000 C 
BRANCH   8  10
ATOM      9  O   UNL     1       8.072   5.487  13.568  0.00  0.00    +0.000 OA
ATOM     10  C   UNL     1       7.186   4.713  13.245  0.00  0.00    +0.000 C 
BRANCH  10  11
ATOM     11  O   UNL     1       7.203   4.021  12.080  0.00  0.00    +0.000 OA
ATOM     12  H   UNL     1       7.708   3.182  12.126  0.00  0.00    +0.000 HD
ENDBRANCH  10  11
ENDBRANCH   8  10
ENDBRANCH   7   8
ENDBRANCH   1   7
BRANCH   3  13
ATOM     13  C   UNL     1       8.309   7.346  18.647  0.00  0.00    +0.000 C 
BRANCH  13  14
ATOM     14  C   UNL     1       8.254   8.763  18.034  0.00  0.00    +0.000 C 
BRANCH  14  15
ATOM     15  N   UNL     1       8.964   9.775  18.852  0.00  0.00    +0.000 NA
ATOM     16  H   UNL     1       9.842   9.468  19.259  0.00  0.00    +0.000 HD
BRANCH  15  17
ATOM     17  S   UNL     1       9.183  11.323  18.191  0.00  0.00    +0.000 S 
ATOM     18  O   UNL     1      10.512  11.290  17.629  0.00  0.00    +0.000 OA
ATOM     19  O   UNL     1       8.021  11.624  17.379  0.00  0.00    +0.000 OA
BRANCH  17  20
ATOM     20  C   UNL     1       9.225  12.444  19.581  0.00  0.00    +0.000 A 
ATOM     21  C   UNL     1       9.279  11.884  20.831  0.00  0.00    +0.000 A 
ATOM     22  C   UNL     1       9.371  12.639  22.004  0.00  0.00    +0.000 A 
ATOM     23  C   UNL     1       9.438  14.006  21.899  0.00  0.00    +0.000 A 
ATOM     24 CL   UNL     1       9.548  14.958  23.324  0.00  0.00    +0.000 Cl
ATOM     25  C   UNL     1       9.440  14.591  20.644  0.00  0.00    +0.000 A 
ATOM     26  C   UNL     1       9.332  13.828  19.467  0.00  0.00    +0.000 A 
ENDBRANCH  17  20
ENDBRANCH  15  17
ENDBRANCH  14  15
ENDBRANCH  13  14
ENDBRANCH   3  13
BRANCH   5  27
ATOM     27  O   UNL     1       5.108   3.734  19.533  0.00  0.00    +0.000 OA
BRANCH  27  28
ATOM     28  C   UNL     1       3.743   3.624  19.662  0.00  0.00    +0.000 A 
ATOM     29  C   UNL     1       2.897   4.644  20.100  0.00  0.00    +0.000 A 
ATOM     30  C   UNL     1       1.544   4.382  20.290  0.00  0.00    +0.000 A 
ATOM     31  C   UNL     1       1.067   3.124  19.963  0.00  0.00    +0.000 A 
ATOM     32  N   UNL     1       1.840   2.136  19.456  0.00  0.00    +0.000 NA
ATOM     33  C   UNL     1       3.160   2.412  19.316  0.00  0.00    +0.000 A 
ENDBRANCH  27  28
ENDBRANCH   5  27
TORSDOF 11
ENDMDL
MODEL 5
REMARK VINA RESULT:      -7.9      2.106      4.689
REMARK  Name = 
REMARK  11 active torsions:
REMARK  status: ('A' for Active; 'I' for Inactive)
REMARK    1  A    between atoms: C_2  and  O_3
REMARK    2  A    between atoms: C_2  and  C_4
REMARK    3  A    between atoms: C_4  and  C_5
REMARK    4  A    between atoms: C_5  and  C_6
REMARK    5  A    between atoms: C_8  and  C_9
REMARK    6  A    between atoms: C_9  and  C_10
REMARK    7  A    between atoms: C_10  and  N_11
REMARK    8  A    between atoms: N_11  and  S_12
REMARK    9  A    between atoms: S_12  and  C_15
REMARK   10  A    between atoms: C_23  and  O_24
REMARK   11  A    between atoms: O_24  and  C_25
REMARK                            x       y       z     vdW  Elec       q    Type
REMARK                         _______ _______ _______ _____ _____    ______ ____
ROOT
ATOM      1  C   UNL     1       2.551   5.446  19.857  0.00  0.00    +0.000 A 
ATOM      2  C   UNL     1       1.977   6.580  19.276  0.00  0.00    +0.000 A 
ATOM      3  C   UNL     1       2.652   7.333  18.302  0.00  0.00    +0.000 A 
ATOM      4  C   UNL     1       3.954   6.961  17.941  0.00  0.00    +0.000 A 
ATOM      5  C   UNL     1       4.552   5.840  18.524  0.00  0.00    +0.000 A 
ATOM      6  C   UNL     1       3.872   5.132  19.522  0.00  0.00    +0.000 A 
ENDROOT
BRANCH   1   7
ATOM      7  C   UNL     1       1.828   4.554  20.840  0.00  0.00    +0.000 C 
BRANCH   7   8
ATOM      8  C   UNL     1       0.706   3.680  20.295  0.00  0.00    +0.000 C 
BRANCH   8  10
ATOM      9  O   UNL     1       2.281   2.020  19.491  0.00  0.00    +0.000 OA
ATOM     10  C   UNL     1       1.192   2.567  19.422  0.00  0.00    +0.000 C 
BRANCH  10  11
ATOM     11  O   UNL     1       0.211   2.150  18.585  0.00  0.00    +0.000 OA
ATOM     12  H   UNL     1       0.399   2.320  17.639  0.00  0.00    +0.000 HD
ENDBRANCH  10  11
ENDBRANCH   8  10
ENDBRANCH   7   8
ENDBRANCH   1   7
BRANCH   3  13
ATOM     13  C   UNL     1       1.960   8.513  17.655  0.00  0.00    +0.000 C 
BRANCH  13  14
ATOM     14  C   UNL     1       1.918   9.797  18.514  0.00  0.00    +0.000 C 
BRANCH  14  15
ATOM     15  N   UNL     1       1.024   9.678  19.690  0.00  0.00    +0.000 NA
ATOM     16  H   UNL     1       1.403   9.157  20.475  0.00  0.00    +0.000 HD
BRANCH  15  17
ATOM     17  S   UNL     1       0.289  11.091  20.279  0.00  0.00    +0.000 S 
ATOM     18  O   UNL     1      -0.013  10.790  21.658  0.00  0.00    +0.000 OA
ATOM     19  O   UNL     1       1.129  12.211  19.911  0.00  0.00    +0.000 OA
BRANCH  17  20
ATOM     20  C   UNL     1      -1.268  11.225  19.415  0.00  0.00    +0.000 A 
ATOM     21  C   UNL     1      -1.538  10.275  18.465  0.00  0.00    +0.000 A 
ATOM     22  C   UNL     1      -2.740  10.227  17.751  0.00  0.00    +0.000 A 
ATOM     23  C   UNL     1      -3.707  11.158  18.034  0.00  0.00    +0.000 A 
ATOM     24 CL   UNL     1      -5.190  11.123  17.169  0.00  0.00    +0.000 Cl
ATOM     25  C   UNL     1      -3.477  12.094  19.027  0.00  0.00    +0.000 A 
ATOM     26  C   UNL     1      -2.262  12.149  19.733  0.00  0.00    +0.000 A 
ENDBRANCH  17  20
ENDBRANCH  15  17
ENDBRANCH  14  15
ENDBRANCH  13  14
ENDBRANCH   3  13
BRANCH   5  27
ATOM     27  O   UNL     1       5.812   5.503  18.075  0.00  0.00    +0.000 OA
BRANCH  27  28
ATOM     28  C   UNL     1       5.986   5.197  16.745  0.00  0.00    +0.000 A 
ATOM     29  C   UNL     1       5.107   4.429  15.980  0.00  0.00    +0.000 A 
ATOM     30  C   UNL     1       5.442   4.098  14.671  0.00  0.00    +0.000 A 
ATOM     31  C   UNL     1       6.614   4.614  14.144  0.00  0.00    +0.000 A 
ATOM     32  N   UNL     1       7.449   5.431  14.826  0.00  0.00    +0.000 NA
ATOM     33  C   UNL     1       7.112   5.705  16.110  0.00  0.00    +0.000 A 
ENDBRANCH  27  28
ENDBRANCH   5  27
TORSDOF 11
ENDMDL
MODEL 6
REMARK VINA RESULT:      -7.8      2.120      2.500
REMARK  Name = 
REMARK  11 active torsions:
REMARK  status: ('A' for Active; 'I' for Inactive)
REMARK    1  A    between atoms: C_2  and  O_3
REMARK    2  A    between atoms: C_2  and  C_4
REMARK    3  A    between atoms: C_4  and  C_5
REMARK    4  A    between atoms: C_5  and  C_6
REMARK    5  A    between atoms: C_8  and  C_9
REMARK    6  A    between atoms: C_9  and  C_10
REMARK    7  A    between atoms: C_10  and  N_11
REMARK    8  A    between atoms: N_11  and  S_12
REMARK    9  A    between atoms: S_12  and  C_15
REMARK   10  A    between atoms: C_23  and  O_24
REMARK   11  A    between atoms: O_24  and  C_25
REMARK                            x       y       z     vdW  Elec       q    Type
REMARK                         _______ _______ _______ _____ _____    ______ ____
ROOT
ATOM      1  C   UNL     1       5.494   4.962  16.372  0.00  0.00    +0.000 A 
ATOM      2  C   UNL     1       5.090   6.258  16.702  0.00  0.00    +0.000 A 
ATOM      3  C   UNL     1       3.893   6.504  17.396  0.00  0.00    +0.000 A 
ATOM      4  C   UNL     1       3.065   5.421  17.722  0.00  0.00    +0.000 A 
ATOM      5  C   UNL     1       3.445   4.120  17.384  0.00  0.00    +0.000 A 
ATOM      6  C   UNL     1       4.622   3.906  16.657  0.00  0.00    +0.000 A 
ENDROOT
BRANCH   1   7
ATOM      7  C   UNL     1       6.815   4.643  15.708  0.00  0.00    +0.000 C 
BRANCH   7   8
ATOM      8  C   UNL     1       7.029   5.165  14.293  0.00  0.00    +0.000 C 
BRANCH   8  10
ATOM      9  O   UNL     1       5.720   3.378  13.306  0.00  0.00    +0.000 OA
ATOM     10  C   UNL     1       6.630   4.188  13.234  0.00  0.00    +0.000 C 
BRANCH  10  11
ATOM     11  O   UNL     1       7.352   4.384  12.103  0.00  0.00    +0.000 OA
ATOM     12  H   UNL     1       8.062   5.053  12.198  0.00  0.00    +0.000 HD
ENDBRANCH  10  11
ENDBRANCH   8  10
ENDBRANCH   7   8
ENDBRANCH   1   7
BRANCH   3  13
ATOM     13  C   UNL     1       3.534   7.920  17.788  0.00  0.00    +0.000 C 
BRANCH  13  14
ATOM     14  C   UNL     1       2.025   8.248  17.741  0.00  0.00    +0.000 C 
BRANCH  14  15
ATOM     15  N   UNL     1       1.505   8.767  19.029  0.00  0.00    +0.000 NA
ATOM     16  H   UNL     1       2.051   8.521  19.850  0.00  0.00    +0.000 HD
BRANCH  15  17
ATOM     17  S   UNL     1       1.099  10.413  19.120  0.00  0.00    +0.000 S 
ATOM     18  O   UNL     1       1.098  10.705  20.534  0.00  0.00    +0.000 OA
ATOM     19  O   UNL     1       1.952  11.129  18.196  0.00  0.00    +0.000 OA
BRANCH  17  20
ATOM     20  C   UNL     1      -0.592  10.528  18.558  0.00  0.00    +0.000 A 
ATOM     21  C   UNL     1      -1.382  11.480  19.148  0.00  0.00    +0.000 A 
ATOM     22  C   UNL     1      -2.706  11.718  18.769  0.00  0.00    +0.000 A 
ATOM     23  C   UNL     1      -3.235  10.981  17.738  0.00  0.00    +0.000 A 
ATOM     24 CL   UNL     1      -4.860  11.251  17.255  0.00  0.00    +0.000 Cl
ATOM     25  C   UNL     1      -2.439  10.051  17.092  0.00  0.00    +0.000 A 
ATOM     26  C   UNL     1      -1.111   9.804  17.486  0.00  0.00    +0.000 A 
ENDBRANCH  17  20
ENDBRANCH  15  17
ENDBRANCH  14  15
ENDBRANCH  13  14
ENDBRANCH   3  13
BRANCH   5  27
ATOM     27  O   UNL     1       2.606   3.102  17.790  0.00  0.00    +0.000 OA
BRANCH  27  28
ATOM     28  C   UNL     1       2.372   2.927  19.134  0.00  0.00    +0.000 A 
ATOM     29  C   UNL     1       1.129   3.065  19.753  0.00  0.00    +0.000 A 
ATOM     30  C   UNL     1       1.035   2.967  21.138  0.00  0.00    +0.000 A 
ATOM     31  C   UNL     1       2.179   2.656  21.853  0.00  0.00    +0.000 A 
ATOM     32  N   UNL     1       3.384   2.431  21.280  0.00  0.00    +0.000 NA
ATOM     33  C   UNL     1       3.450   2.570  19.934  0.00  0.00    +0.000 A 
ENDBRANCH  27  28
ENDBRANCH   5  27
TORSDOF 11
ENDMDL
MODEL 7
REMARK VINA RESULT:      -7.8      0.629      1.243
REMARK  Name = 
REMARK  11 active torsions:
REMARK  status: ('A' for Active; 'I' for Inactive)
REMARK    1  A    between atoms: C_2  and  O_3
REMARK    2  A    between atoms: C_2  and  C_4
REMARK    3  A    between atoms: C_4  and  C_5
REMARK    4  A    between atoms: C_5  and  C_6
REMARK    5  A    between atoms: C_8  and  C_9
REMARK    6  A    between atoms: C_9  and  C_10
REMARK    7  A    between atoms: C_10  and  N_11
REMARK    8  A    between atoms: N_11  and  S_12
REMARK    9  A    between atoms: S_12  and  C_15
REMARK   10  A    between atoms: C_23  and  O_24
REMARK   11  A    between atoms: O_24  and  C_25
REMARK                            x       y       z     vdW  Elec       q    Type
REMARK                         _______ _______ _______ _____ _____    ______ ____
ROOT
ATOM      1  C   UNL     1       4.933   5.928  16.862  0.00  0.00    +0.000 A 
ATOM      2  C   UNL     1       4.242   7.097  17.191  0.00  0.00    +0.000 A 
ATOM      3  C   UNL     1       2.972   7.061  17.789  0.00  0.00    +0.000 A 
ATOM      4  C   UNL     1       2.366   5.818  18.018  0.00  0.00    +0.000 A 
ATOM      5  C   UNL     1       3.034   4.639  17.680  0.00  0.00    +0.000 A 
ATOM      6  C   UNL     1       4.282   4.704  17.047  0.00  0.00    +0.000 A 
ENDROOT
BRANCH   1   7
ATOM      7  C   UNL     1       6.337   5.916  16.302  0.00  0.00    +0.000 C 
BRANCH   7   8
ATOM      8  C   UNL     1       7.418   5.248  17.142  0.00  0.00    +0.000 C 
BRANCH   8  10
ATOM      9  O   UNL     1       8.095   7.023  18.648  0.00  0.00    +0.000 OA
ATOM     10  C   UNL     1       7.633   5.909  18.466  0.00  0.00    +0.000 C 
BRANCH  10  11
ATOM     11  O   UNL     1       7.142   5.143  19.471  0.00  0.00    +0.000 OA
ATOM     12  H   UNL     1       7.559   4.259  19.534  0.00  0.00    +0.000 HD
ENDBRANCH  10  11
ENDBRANCH   8  10
ENDBRANCH   7   8
ENDBRANCH   1   7
BRANCH   3  13
ATOM     13  C   UNL     1       2.296   8.355  18.187  0.00  0.00    +0.000 C 
BRANCH  13  14
ATOM     14  C   UNL     1       1.932   8.470  19.684  0.00  0.00    +0.000 C 
BRANCH  14  15
ATOM     15  N   UNL     1       0.588   9.051  19.910  0.00  0.00    +0.000 NA
ATOM     16  H   UNL     1       0.083   8.683  20.711  0.00  0.00    +0.000 HD
BRANCH  15  17
ATOM     17  S   UNL     1       0.438  10.742  19.903  0.00  0.00    +0.000 S 
ATOM     18  O   UNL     1       0.319  11.098  21.297  0.00  0.00    +0.000 OA
ATOM     19  O   UNL     1       1.497  11.275  19.071  0.00  0.00    +0.000 OA
BRANCH  17  20
ATOM     20  C   UNL     1      -1.135  11.088  19.134  0.00  0.00    +0.000 A 
ATOM     21  C   UNL     1      -1.449  10.372  18.008  0.00  0.00    +0.000 A 
ATOM     22  C   UNL     1      -2.668  10.500  17.335  0.00  0.00    +0.000 A 
ATOM     23  C   UNL     1      -3.607  11.366  17.840  0.00  0.00    +0.000 A 
ATOM     24 CL   UNL     1      -5.111  11.544  17.030  0.00  0.00    +0.000 Cl
ATOM     25  C   UNL     1      -3.332  12.060  19.006  0.00  0.00    +0.000 A 
ATOM     26  C   UNL     1      -2.099  11.939  19.672  0.00  0.00    +0.000 A 
ENDBRANCH  17  20
ENDBRANCH  15  17
ENDBRANCH  14  15
ENDBRANCH  13  14
ENDBRANCH   3  13
BRANCH   5  27
ATOM     27  O   UNL     1       2.399   3.454  17.989  0.00  0.00    +0.000 OA
BRANCH  27  28
ATOM     28  C   UNL     1       2.245   3.105  19.310  0.00  0.00    +0.000 A 
ATOM     29  C   UNL     1       1.040   3.146  20.013  0.00  0.00    +0.000 A 
ATOM     30  C   UNL     1       1.027   2.869  21.376  0.00  0.00    +0.000 A 
ATOM     31  C   UNL     1       2.213   2.484  21.978  0.00  0.00    +0.000 A 
ATOM     32  N   UNL     1       3.384   2.350  21.313  0.00  0.00    +0.000 NA
ATOM     33  C   UNL     1       3.370   2.661  19.994  0.00  0.00    +0.000 A 
ENDBRANCH  27  28
ENDBRANCH   5  27
TORSDOF 11
ENDMDL
MODEL 8
REMARK VINA RESULT:      -7.7      3.420      5.476
REMARK  Name = 
REMARK  11 active torsions:
REMARK  status: ('A' for Active; 'I' for Inactive)
REMARK    1  A    between atoms: C_2  and  O_3
REMARK    2  A    between atoms: C_2  and  C_4
REMARK    3  A    between atoms: C_4  and  C_5
REMARK    4  A    between atoms: C_5  and  C_6
REMARK    5  A    between atoms: C_8  and  C_9
REMARK    6  A    between atoms: C_9  and  C_10
REMARK    7  A    between atoms: C_10  and  N_11
REMARK    8  A    between atoms: N_11  and  S_12
REMARK    9  A    between atoms: S_12  and  C_15
REMARK   10  A    between atoms: C_23  and  O_24
REMARK   11  A    between atoms: O_24  and  C_25
REMARK                            x       y       z     vdW  Elec       q    Type
REMARK                         _______ _______ _______ _____ _____    ______ ____
ROOT
ATOM      1  C   UNL     1       2.497   4.263  17.989  0.00  0.00    +0.000 A 
ATOM      2  C   UNL     1       2.285   5.642  18.075  0.00  0.00    +0.000 A 
ATOM      3  C   UNL     1       3.293   6.565  17.752  0.00  0.00    +0.000 A 
ATOM      4  C   UNL     1       4.555   6.085  17.377  0.00  0.00    +0.000 A 
ATOM      5  C   UNL     1       4.790   4.711  17.301  0.00  0.00    +0.000 A 
ATOM      6  C   UNL     1       3.781   3.812  17.669  0.00  0.00    +0.000 A 
ENDROOT
BRANCH   1   7
ATOM      7  C   UNL     1       1.416   3.235  18.239  0.00  0.00    +0.000 C 
BRANCH   7   8
ATOM      8  C   UNL     1       1.747   2.093  19.190  0.00  0.00    +0.000 C 
BRANCH   8  10
ATOM      9  O   UNL     1       2.954   2.578  21.236  0.00  0.00    +0.000 OA
ATOM     10  C   UNL     1       1.908   2.532  20.610  0.00  0.00    +0.000 C 
BRANCH  10  11
ATOM     11  O   UNL     1       0.733   2.990  21.108  0.00  0.00    +0.000 OA
ATOM     12  H   UNL     1       0.268   2.346  21.680  0.00  0.00    +0.000 HD
ENDBRANCH  10  11
ENDBRANCH   8  10
ENDBRANCH   7   8
ENDBRANCH   1   7
BRANCH   3  13
ATOM     13  C   UNL     1       2.992   8.047  17.798  0.00  0.00    +0.000 C 
BRANCH  13  14
ATOM     14  C   UNL     1       1.567   8.410  18.271  0.00  0.00    +0.000 C 
BRANCH  14  15
ATOM     15  N   UNL     1       1.156   9.777  17.871  0.00  0.00    +0.000 NA
ATOM     16  H   UNL     1       1.045   9.925  16.873  0.00  0.00    +0.000 HD
BRANCH  15  17
ATOM     17  S   UNL     1      -0.166  10.479  18.674  0.00  0.00    +0.000 S 
ATOM     18  O   UNL     1      -1.212  10.516  17.680  0.00  0.00    +0.000 OA
ATOM     19  O   UNL     1      -0.337   9.783  19.933  0.00  0.00    +0.000 OA
BRANCH  17  20
ATOM     20  C   UNL     1       0.308  12.169  19.005  0.00  0.00    +0.000 A 
ATOM     21  C   UNL     1       1.480  12.365  19.688  0.00  0.00    +0.000 A 
ATOM     22  C   UNL     1       1.999  13.633  19.968  0.00  0.00    +0.000 A 
ATOM     23  C   UNL     1       1.317  14.734  19.514  0.00  0.00    +0.000 A 
ATOM     24 CL   UNL     1       1.931  16.303  19.847  0.00  0.00    +0.000 Cl
ATOM     25  C   UNL     1       0.159  14.559  18.776  0.00  0.00    +0.000 A 
ATOM     26  C   UNL     1      -0.368  13.282  18.509  0.00  0.00    +0.000 A 
ENDBRANCH  17  20
ENDBRANCH  15  17
ENDBRANCH  14  15
ENDBRANCH  13  14
ENDBRANCH   3  13
BRANCH   5  27
ATOM     27  O   UNL     1       6.040   4.316  16.869  0.00  0.00    +0.000 OA
BRANCH  27  28
ATOM     28  C   UNL     1       6.340   4.404  15.529  0.00  0.00    +0.000 A 
ATOM     29  C   UNL     1       5.715   3.669  14.520  0.00  0.00    +0.000 A 
ATOM     30  C   UNL     1       6.176   3.766  13.211  0.00  0.00    +0.000 A 
ATOM     31  C   UNL     1       7.201   4.657  12.942  0.00  0.00    +0.000 A 
ATOM     32  N   UNL     1       7.774   5.448  13.877  0.00  0.00    +0.000 NA
ATOM     33  C   UNL     1       7.327   5.304  15.149  0.00  0.00    +0.000 A 
ENDBRANCH  27  28
ENDBRANCH   5  27
TORSDOF 11
ENDMDL
MODEL 9
REMARK VINA RESULT:      -7.7      5.687      7.824
REMARK  Name = 
REMARK  11 active torsions:
REMARK  status: ('A' for Active; 'I' for Inactive)
REMARK    1  A    between atoms: C_2  and  O_3
REMARK    2  A    between atoms: C_2  and  C_4
REMARK    3  A    between atoms: C_4  and  C_5
REMARK    4  A    between atoms: C_5  and  C_6
REMARK    5  A    between atoms: C_8  and  C_9
REMARK    6  A    between atoms: C_9  and  C_10
REMARK    7  A    between atoms: C_10  and  N_11
REMARK    8  A    between atoms: N_11  and  S_12
REMARK    9  A    between atoms: S_12  and  C_15
REMARK   10  A    between atoms: C_23  and  O_24
REMARK   11  A    between atoms: O_24  and  C_25
REMARK                            x       y       z     vdW  Elec       q    Type
REMARK                         _______ _______ _______ _____ _____    ______ ____
ROOT
ATOM      1  C   UNL     1       6.276   5.275  15.628  0.00  0.00    +0.000 A 
ATOM      2  C   UNL     1       7.209   6.052  16.320  0.00  0.00    +0.000 A 
ATOM      3  C   UNL     1       6.861   6.766  17.479  0.00  0.00    +0.000 A 
ATOM      4  C   UNL     1       5.532   6.731  17.922  0.00  0.00    +0.000 A 
ATOM      5  C   UNL     1       4.582   5.974  17.232  0.00  0.00    +0.000 A 
ATOM      6  C   UNL     1       4.946   5.305  16.057  0.00  0.00    +0.000 A 
ENDROOT
BRANCH   1   7
ATOM      7  C   UNL     1       6.626   4.420  14.431  0.00  0.00    +0.000 C 
BRANCH   7   8
ATOM      8  C   UNL     1       5.483   3.688  13.740  0.00  0.00    +0.000 C 
BRANCH   8  10
ATOM      9  O   UNL     1       6.872   3.172  11.820  0.00  0.00    +0.000 OA
ATOM     10  C   UNL     1       5.770   3.356  12.310  0.00  0.00    +0.000 C 
BRANCH  10  11
ATOM     11  O   UNL     1       4.619   3.172  11.619  0.00  0.00    +0.000 OA
ATOM     12  H   UNL     1       4.562   3.702  10.797  0.00  0.00    +0.000 HD
ENDBRANCH  10  11
ENDBRANCH   8  10
ENDBRANCH   7   8
ENDBRANCH   1   7
BRANCH   3  13
ATOM     13  C   UNL     1       7.925   7.538  18.229  0.00  0.00    +0.000 C 
BRANCH  13  14
ATOM     14  C   UNL     1       8.005   9.042  17.885  0.00  0.00    +0.000 C 
BRANCH  14  15
ATOM     15  N   UNL     1       8.995   9.772  18.712  0.00  0.00    +0.000 NA
ATOM     16  H   UNL     1       9.872   9.286  18.873  0.00  0.00    +0.000 HD
BRANCH  15  17
ATOM     17  S   UNL     1       9.335  11.386  18.308  0.00  0.00    +0.000 S 
ATOM     18  O   UNL     1      10.692  11.355  17.815  0.00  0.00    +0.000 OA
ATOM     19  O   UNL     1       8.242  11.877  17.495  0.00  0.00    +0.000 OA
BRANCH  17  20
ATOM     20  C   UNL     1       9.356  12.280  19.853  0.00  0.00    +0.000 A 
ATOM     21  C   UNL     1       9.308  13.648  19.783  0.00  0.00    +0.000 A 
ATOM     22  C   UNL     1       9.263  14.472  20.912  0.00  0.00    +0.000 A 
ATOM     23  C   UNL     1       9.238  13.882  22.151  0.00  0.00    +0.000 A 
ATOM     24 CL   UNL     1       9.186  14.871  23.555  0.00  0.00    +0.000 Cl
ATOM     25  C   UNL     1       9.232  12.501  22.246  0.00  0.00    +0.000 A 
ATOM     26  C   UNL     1       9.292  11.676  21.107  0.00  0.00    +0.000 A 
ENDBRANCH  17  20
ENDBRANCH  15  17
ENDBRANCH  14  15
ENDBRANCH  13  14
ENDBRANCH   3  13
BRANCH   5  27
ATOM     27  O   UNL     1       3.308   5.942  17.762  0.00  0.00    +0.000 OA
BRANCH  27  28
ATOM     28  C   UNL     1       2.848   4.774  18.323  0.00  0.00    +0.000 A 
ATOM     29  C   UNL     1       2.042   3.838  17.673  0.00  0.00    +0.000 A 
ATOM     30  C   UNL     1       1.552   2.743  18.377  0.00  0.00    +0.000 A 
ATOM     31  C   UNL     1       1.950   2.579  19.693  0.00  0.00    +0.000 A 
ATOM     32  N   UNL     1       2.798   3.418  20.332  0.00  0.00    +0.000 NA
ATOM     33  C   UNL     1       3.228   4.494  19.629  0.00  0.00    +0.000 A 
ENDBRANCH  27  28
ENDBRANCH   5  27
TORSDOF 11
ENDMDL
