MODEL 1
REMARK VINA RESULT:      -7.5      0.000      0.000
REMARK  Name = 
REMARK  19 active torsions:
REMARK  status: ('A' for Active; 'I' for Inactive)
REMARK    1  A    between atoms: C_1  and  C_2
REMARK    2  A    between atoms: C_2  and  C_3
REMARK    3  A    between atoms: C_3  and  C_4
REMARK    4  A    between atoms: C_4  and  C_5
REMARK    5  A    between atoms: C_5  and  C_6
REMARK    6  A    between atoms: C_6  and  C_7
REMARK    7  A    between atoms: C_7  and  C_8
REMARK    8  A    between atoms: C_8  and  C_9
REMARK    9  A    between atoms: C_8  and  C_31
REMARK   10  A    between atoms: N_11  and  C_12
REMARK   11  A    between atoms: C_12  and  C_13
REMARK   12  A    between atoms: C_12  and  C_20
REMARK   13  A    between atoms: C_13  and  C_14
REMARK   14  A    between atoms: N_22  and  C_23
REMARK   15  A    between atoms: C_23  and  C_24
REMARK   16  A    between atoms: C_24  and  N_25
REMARK   17  A    between atoms: C_31  and  O_32
REMARK   18  A    between atoms: C_31  and  C_33
REMARK   19  A    between atoms: C_33  and  S_34
REMARK                            x       y       z     vdW  Elec       q    Type
REMARK                         _______ _______ _______ _____ _____    ______ ____
ROOT
ATOM      1  C   UNL     1       2.589   6.056  19.474  0.00  0.00    +0.000 C 
ENDROOT
BRANCH   1   4
ATOM      2  C   UNL     1       4.728   6.114  18.201  0.00  0.00    +0.000 C 
ATOM      3  O   UNL     1       4.174   6.165  17.106  0.00  0.00    +0.000 OA
ATOM      4  N   UNL     1       4.042   6.007  19.387  0.00  0.00    +0.000 N 
ATOM      5  H   UNL     1       4.556   6.286  20.230  0.00  0.00    +0.000 HD
BRANCH   2   6
ATOM      6  C   UNL     1       6.255   6.078  18.329  0.00  0.00    +0.000 C 
BRANCH   6   7
ATOM      7  C   UNL     1       6.797   4.672  18.006  0.00  0.00    +0.000 C 
BRANCH   7   8
ATOM      8  O   UNL     1       5.780   3.700  18.304  0.00  0.00    +0.000 OA
ATOM      9  H   UNL     1       6.052   3.192  19.090  0.00  0.00    +0.000 HD
ENDBRANCH   7   8
BRANCH   7  10
ATOM     10  C   UNL     1       7.265   4.557  16.539  0.00  0.00    +0.000 C 
BRANCH  10  11
ATOM     11  S   UNL     1       6.021   3.769  15.466  0.00  0.00    +0.000 S 
ATOM     12  H   UNL     1       4.952   4.035  16.232  0.00  0.00    +0.000 HD
ENDBRANCH  10  11
ENDBRANCH   7  10
ENDBRANCH   6   7
BRANCH   6  13
ATOM     13  C   UNL     1       6.870   7.195  17.458  0.00  0.00    +0.000 C 
BRANCH  13  14
ATOM     14  C   UNL     1       8.114   7.852  18.076  0.00  0.00    +0.000 C 
BRANCH  14  15
ATOM     15  C   UNL     1       8.205   9.365  17.877  0.00  0.00    +0.000 C 
BRANCH  15  16
ATOM     16  C   UNL     1       9.122  10.017  18.906  0.00  0.00    +0.000 C 
BRANCH  16  17
ATOM     17  C   UNL     1       9.370  11.489  18.595  0.00  0.00    +0.000 C 
BRANCH  17  19
ATOM     18  C   UNL     1      11.785  11.600  19.278  0.00  0.00    +0.000 C 
ATOM     19  C   UNL     1      10.809  11.687  18.120  0.00  0.00    +0.000 C 
ENDBRANCH  17  19
ENDBRANCH  16  17
ENDBRANCH  15  16
ENDBRANCH  14  15
ENDBRANCH  13  14
ENDBRANCH   6  13
ENDBRANCH   2   6
ENDBRANCH   1   4
BRANCH   1  20
ATOM     20  C   UNL     1       2.153   7.528  19.637  0.00  0.00    +0.000 C 
ATOM     21  O   UNL     1       2.229   8.332  18.714  0.00  0.00    +0.000 OA
ATOM     22  N   UNL     1       1.692   7.854  20.905  0.00  0.00    +0.000 N 
ATOM     23  H   UNL     1       1.740   7.144  21.618  0.00  0.00    +0.000 HD
BRANCH  22  24
ATOM     24  C   UNL     1       1.512   9.226  21.364  0.00  0.00    +0.000 C 
BRANCH  24  25
ATOM     25  C   UNL     1       0.075   9.622  21.762  0.00  0.00    +0.000 C 
BRANCH  25  26
ATOM     26  N   UNL     1      -0.598  10.522  20.803  0.00  0.00    +0.000 NA
ATOM     27  C   UNL     1       0.411  11.207  19.959  0.00  0.00    +0.000 C 
ATOM     28  C   UNL     1       1.174  12.345  20.664  0.00  0.00    +0.000 C 
ATOM     29  O   UNL     1       0.281  13.302  21.246  0.00  0.00    +0.000 OA
ATOM     30  C   UNL     1      -0.620  12.666  22.159  0.00  0.00    +0.000 C 
ATOM     31  C   UNL     1      -1.427  11.564  21.451  0.00  0.00    +0.000 C 
ENDBRANCH  25  26
ENDBRANCH  24  25
ENDBRANCH  22  24
ENDBRANCH   1  20
BRANCH   1  32
ATOM     32  C   UNL     1       2.004   5.129  20.566  0.00  0.00    +0.000 C 
BRANCH  32  33
ATOM     33  C   UNL     1       1.154   3.911  20.109  0.00  0.00    +0.000 C 
ATOM     34  C   UNL     1       1.038   3.712  18.589  0.00  0.00    +0.000 C 
ATOM     35  C   UNL     1       2.339   3.242  17.942  0.00  0.00    +0.000 C 
ATOM     36  C   UNL     1       2.812   1.938  18.571  0.00  0.00    +0.000 C 
ATOM     37  C   UNL     1       2.970   2.081  20.080  0.00  0.00    +0.000 C 
ATOM     38  C   UNL     1       1.696   2.609  20.745  0.00  0.00    +0.000 C 
ENDBRANCH  32  33
ENDBRANCH   1  32
TORSDOF 18
ENDMDL
MODEL 2
REMARK VINA RESULT:      -7.2      1.551      2.015
REMARK  Name = 
REMARK  19 active torsions:
REMARK  status: ('A' for Active; 'I' for Inactive)
REMARK    1  A    between atoms: C_1  and  C_2
REMARK    2  A    between atoms: C_2  and  C_3
REMARK    3  A    between atoms: C_3  and  C_4
REMARK    4  A    between atoms: C_4  and  C_5
REMARK    5  A    between atoms: C_5  and  C_6
REMARK    6  A    between atoms: C_6  and  C_7
REMARK    7  A    between atoms: C_7  and  C_8
REMARK    8  A    between atoms: C_8  and  C_9
REMARK    9  A    between atoms: C_8  and  C_31
REMARK   10  A    between atoms: N_11  and  C_12
REMARK   11  A    between atoms: C_12  and  C_13
REMARK   12  A    between atoms: C_12  and  C_20
REMARK   13  A    between atoms: C_13  and  C_14
REMARK   14  A    between atoms: N_22  and  C_23
REMARK   15  A    between atoms: C_23  and  C_24
REMARK   16  A    between atoms: C_24  and  N_25
REMARK   17  A    between atoms: C_31  and  O_32
REMARK   18  A    between atoms: C_31  and  C_33
REMARK   19  A    between atoms: C_33  and  S_34
REMARK                            x       y       z     vdW  Elec       q    Type
REMARK                         _______ _______ _______ _____ _____    ______ ____
ROOT
ATOM      1  C   UNL     1       2.914   6.439  17.692  0.00  0.00    +0.000 C 
ENDROOT
BRANCH   1   4
ATOM      2  C   UNL     1       5.303   6.561  17.003  0.00  0.00    +0.000 C 
ATOM      3  O   UNL     1       5.047   7.013  15.889  0.00  0.00    +0.000 OA
ATOM      4  N   UNL     1       4.335   6.209  17.913  0.00  0.00    +0.000 N 
ATOM      5  H   UNL     1       4.637   6.149  18.891  0.00  0.00    +0.000 HD
BRANCH   2   6
ATOM      6  C   UNL     1       6.742   6.269  17.441  0.00  0.00    +0.000 C 
BRANCH   6   7
ATOM      7  C   UNL     1       7.234   4.936  16.844  0.00  0.00    +0.000 C 
BRANCH   7   8
ATOM      8  O   UNL     1       7.862   4.164  17.882  0.00  0.00    +0.000 OA
ATOM      9  H   UNL     1       7.566   4.503  18.747  0.00  0.00    +0.000 HD
ENDBRANCH   7   8
BRANCH   7  10
ATOM     10  C   UNL     1       6.090   4.145  16.176  0.00  0.00    +0.000 C 
BRANCH  10  11
ATOM     11  S   UNL     1       6.282   4.030  14.367  0.00  0.00    +0.000 S 
ATOM     12  H   UNL     1       6.219   2.692  14.281  0.00  0.00    +0.000 HD
ENDBRANCH  10  11
ENDBRANCH   7  10
ENDBRANCH   6   7
BRANCH   6  13
ATOM     13  C   UNL     1       7.641   7.475  17.090  0.00  0.00    +0.000 C 
BRANCH  13  14
ATOM     14  C   UNL     1       8.281   8.151  18.312  0.00  0.00    +0.000 C 
BRANCH  14  15
ATOM     15  C   UNL     1       8.535   9.651  18.155  0.00  0.00    +0.000 C 
BRANCH  15  16
ATOM     16  C   UNL     1       9.292  10.224  19.348  0.00  0.00    +0.000 C 
BRANCH  16  17
ATOM     17  C   UNL     1      10.441  11.127  18.913  0.00  0.00    +0.000 C 
BRANCH  17  19
ATOM     18  C   UNL     1       9.857  11.978  21.203  0.00  0.00    +0.000 C 
ATOM     19  C   UNL     1      10.637  12.249  19.931  0.00  0.00    +0.000 C 
ENDBRANCH  17  19
ENDBRANCH  16  17
ENDBRANCH  15  16
ENDBRANCH  14  15
ENDBRANCH  13  14
ENDBRANCH   6  13
ENDBRANCH   2   6
ENDBRANCH   1   4
BRANCH   1  20
ATOM     20  C   UNL     1       2.479   7.671  18.517  0.00  0.00    +0.000 C 
ATOM     21  O   UNL     1       2.230   7.593  19.715  0.00  0.00    +0.000 OA
ATOM     22  N   UNL     1       2.382   8.846  17.785  0.00  0.00    +0.000 N 
ATOM     23  H   UNL     1       2.532   8.794  16.791  0.00  0.00    +0.000 HD
BRANCH  22  24
ATOM     24  C   UNL     1       1.716  10.045  18.279  0.00  0.00    +0.000 C 
BRANCH  24  25
ATOM     25  C   UNL     1       0.182   9.958  18.417  0.00  0.00    +0.000 C 
BRANCH  25  26
ATOM     26  N   UNL     1      -0.505  11.266  18.436  0.00  0.00    +0.000 NA
ATOM     27  C   UNL     1       0.466  12.343  18.753  0.00  0.00    +0.000 C 
ATOM     28  C   UNL     1       0.886  12.415  20.234  0.00  0.00    +0.000 C 
ATOM     29  O   UNL     1      -0.250  12.498  21.104  0.00  0.00    +0.000 OA
ATOM     30  C   UNL     1      -1.135  11.392  20.890  0.00  0.00    +0.000 C 
ATOM     31  C   UNL     1      -1.603  11.343  19.426  0.00  0.00    +0.000 C 
ENDBRANCH  25  26
ENDBRANCH  24  25
ENDBRANCH  22  24
ENDBRANCH   1  20
BRANCH   1  32
ATOM     32  C   UNL     1       2.037   5.193  17.962  0.00  0.00    +0.000 C 
BRANCH  32  33
ATOM     33  C   UNL     1       2.718   3.946  18.591  0.00  0.00    +0.000 C 
ATOM     34  C   UNL     1       3.172   4.099  20.051  0.00  0.00    +0.000 C 
ATOM     35  C   UNL     1       2.010   4.153  21.041  0.00  0.00    +0.000 C 
ATOM     36  C   UNL     1       1.147   2.903  20.925  0.00  0.00    +0.000 C 
ATOM     37  C   UNL     1       0.645   2.711  19.500  0.00  0.00    +0.000 C 
ATOM     38  C   UNL     1       1.788   2.714  18.482  0.00  0.00    +0.000 C 
ENDBRANCH  32  33
ENDBRANCH   1  32
TORSDOF 18
ENDMDL
MODEL 3
REMARK VINA RESULT:      -7.2      1.619      2.000
REMARK  Name = 
REMARK  19 active torsions:
REMARK  status: ('A' for Active; 'I' for Inactive)
REMARK    1  A    between atoms: C_1  and  C_2
REMARK    2  A    between atoms: C_2  and  C_3
REMARK    3  A    between atoms: C_3  and  C_4
REMARK    4  A    between atoms: C_4  and  C_5
REMARK    5  A    between atoms: C_5  and  C_6
REMARK    6  A    between atoms: C_6  and  C_7
REMARK    7  A    between atoms: C_7  and  C_8
REMARK    8  A    between atoms: C_8  and  C_9
REMARK    9  A    between atoms: C_8  and  C_31
REMARK   10  A    between atoms: N_11  and  C_12
REMARK   11  A    between atoms: C_12  and  C_13
REMARK   12  A    between atoms: C_12  and  C_20
REMARK   13  A    between atoms: C_13  and  C_14
REMARK   14  A    between atoms: N_22  and  C_23
REMARK   15  A    between atoms: C_23  and  C_24
REMARK   16  A    between atoms: C_24  and  N_25
REMARK   17  A    between atoms: C_31  and  O_32
REMARK   18  A    between atoms: C_31  and  C_33
REMARK   19  A    between atoms: C_33  and  S_34
REMARK                            x       y       z     vdW  Elec       q    Type
REMARK                         _______ _______ _______ _____ _____    ______ ____
ROOT
ATOM      1  C   UNL     1       2.798   6.295  18.279  0.00  0.00    +0.000 C 
ENDROOT
BRANCH   1   4
ATOM      2  C   UNL     1       5.139   6.594  17.483  0.00  0.00    +0.000 C 
ATOM      3  O   UNL     1       4.804   6.839  16.327  0.00  0.00    +0.000 OA
ATOM      4  N   UNL     1       4.242   6.270  18.473  0.00  0.00    +0.000 N 
ATOM      5  H   UNL     1       4.571   6.394  19.436  0.00  0.00    +0.000 HD
BRANCH   2   6
ATOM      6  C   UNL     1       6.612   6.543  17.901  0.00  0.00    +0.000 C 
BRANCH   6   7
ATOM      7  C   UNL     1       7.144   5.098  17.850  0.00  0.00    +0.000 C 
BRANCH   7   8
ATOM      8  O   UNL     1       6.158   4.217  18.414  0.00  0.00    +0.000 OA
ATOM      9  H   UNL     1       6.514   3.310  18.422  0.00  0.00    +0.000 HD
ENDBRANCH   7   8
BRANCH   7  10
ATOM     10  C   UNL     1       7.519   4.670  16.416  0.00  0.00    +0.000 C 
BRANCH  10  11
ATOM     11  S   UNL     1       6.158   3.807  15.564  0.00  0.00    +0.000 S 
ATOM     12  H   UNL     1       6.332   2.611  16.147  0.00  0.00    +0.000 HD
ENDBRANCH  10  11
ENDBRANCH   7  10
ENDBRANCH   6   7
BRANCH   6  13
ATOM     13  C   UNL     1       7.425   7.534  17.038  0.00  0.00    +0.000 C 
BRANCH  13  14
ATOM     14  C   UNL     1       7.704   8.877  17.730  0.00  0.00    +0.000 C 
BRANCH  14  15
ATOM     15  C   UNL     1       8.743   8.816  18.851  0.00  0.00    +0.000 C 
BRANCH  15  16
ATOM     16  C   UNL     1       9.389  10.174  19.098  0.00  0.00    +0.000 C 
BRANCH  16  17
ATOM     17  C   UNL     1       8.964  11.204  18.056  0.00  0.00    +0.000 C 
BRANCH  17  19
ATOM     18  C   UNL     1      11.417  11.660  18.348  0.00  0.00    +0.000 C 
ATOM     19  C   UNL     1      10.105  12.186  17.797  0.00  0.00    +0.000 C 
ENDBRANCH  17  19
ENDBRANCH  16  17
ENDBRANCH  15  16
ENDBRANCH  14  15
ENDBRANCH  13  14
ENDBRANCH   6  13
ENDBRANCH   2   6
ENDBRANCH   1   4
BRANCH   1  20
ATOM     20  C   UNL     1       2.257   7.656  18.769  0.00  0.00    +0.000 C 
ATOM     21  O   UNL     1       2.114   7.905  19.961  0.00  0.00    +0.000 OA
ATOM     22  N   UNL     1       1.938   8.546  17.753  0.00  0.00    +0.000 N 
ATOM     23  H   UNL     1       2.017   8.221  16.803  0.00  0.00    +0.000 HD
BRANCH  22  24
ATOM     24  C   UNL     1       1.148   9.752  17.964  0.00  0.00    +0.000 C 
BRANCH  24  25
ATOM     25  C   UNL     1       1.937  11.017  18.358  0.00  0.00    +0.000 C 
BRANCH  25  26
ATOM     26  N   UNL     1       1.389  11.742  19.523  0.00  0.00    +0.000 NA
ATOM     27  C   UNL     1      -0.069  11.953  19.347  0.00  0.00    +0.000 C 
ATOM     28  C   UNL     1      -0.443  13.059  18.342  0.00  0.00    +0.000 C 
ATOM     29  O   UNL     1       0.205  14.299  18.652  0.00  0.00    +0.000 OA
ATOM     30  C   UNL     1       1.626  14.131  18.702  0.00  0.00    +0.000 C 
ATOM     31  C   UNL     1       2.013  13.066  19.743  0.00  0.00    +0.000 C 
ENDBRANCH  25  26
ENDBRANCH  24  25
ENDBRANCH  22  24
ENDBRANCH   1  20
BRANCH   1  32
ATOM     32  C   UNL     1       2.068   5.090  18.919  0.00  0.00    +0.000 C 
BRANCH  32  33
ATOM     33  C   UNL     1       1.569   3.958  17.979  0.00  0.00    +0.000 C 
ATOM     34  C   UNL     1       2.637   3.322  17.074  0.00  0.00    +0.000 C 
ATOM     35  C   UNL     1       3.636   2.456  17.839  0.00  0.00    +0.000 C 
ATOM     36  C   UNL     1       2.916   1.349  18.598  0.00  0.00    +0.000 C 
ATOM     37  C   UNL     1       1.858   1.921  19.533  0.00  0.00    +0.000 C 
ATOM     38  C   UNL     1       0.879   2.842  18.800  0.00  0.00    +0.000 C 
ENDBRANCH  32  33
ENDBRANCH   1  32
TORSDOF 18
ENDMDL
MODEL 4
REMARK VINA RESULT:      -7.1      1.811      2.282
REMARK  Name = 
REMARK  19 active torsions:
REMARK  status: ('A' for Active; 'I' for Inactive)
REMARK    1  A    between atoms: C_1  and  C_2
REMARK    2  A    between atoms: C_2  and  C_3
REMARK    3  A    between atoms: C_3  and  C_4
REMARK    4  A    between atoms: C_4  and  C_5
REMARK    5  A    between atoms: C_5  and  C_6
REMARK    6  A    between atoms: C_6  and  C_7
REMARK    7  A    between atoms: C_7  and  C_8
REMARK    8  A    between atoms: C_8  and  C_9
REMARK    9  A    between atoms: C_8  and  C_31
REMARK   10  A    between atoms: N_11  and  C_12
REMARK   11  A    between atoms: C_12  and  C_13
REMARK   12  A    between atoms: C_12  and  C_20
REMARK   13  A    between atoms: C_13  and  C_14
REMARK   14  A    between atoms: N_22  and  C_23
REMARK   15  A    between atoms: C_23  and  C_24
REMARK   16  A    between atoms: C_24  and  N_25
REMARK   17  A    between atoms: C_31  and  O_32
REMARK   18  A    between atoms: C_31  and  C_33
REMARK   19  A    between atoms: C_33  and  S_34
REMARK                            x       y       z     vdW  Elec       q    Type
REMARK                         _______ _______ _______ _____ _____    ______ ____
ROOT
ATOM      1  C   UNL     1       2.943   6.506  17.908  0.00  0.00    +0.000 C 
ENDROOT
BRANCH   1   4
ATOM      2  C   UNL     1       5.341   6.732  17.277  0.00  0.00    +0.000 C 
ATOM      3  O   UNL     1       5.093   7.193  16.165  0.00  0.00    +0.000 OA
ATOM      4  N   UNL     1       4.367   6.327  18.158  0.00  0.00    +0.000 N 
ATOM      5  H   UNL     1       4.649   6.261  19.141  0.00  0.00    +0.000 HD
BRANCH   2   6
ATOM      6  C   UNL     1       6.780   6.487  17.744  0.00  0.00    +0.000 C 
BRANCH   6   7
ATOM      7  C   UNL     1       7.245   5.069  17.357  0.00  0.00    +0.000 C 
BRANCH   7   8
ATOM      8  O   UNL     1       6.443   4.107  18.061  0.00  0.00    +0.000 OA
ATOM      9  H   UNL     1       5.758   3.767  17.456  0.00  0.00    +0.000 HD
ENDBRANCH   7   8
BRANCH   7  10
ATOM     10  C   UNL     1       7.186   4.837  15.833  0.00  0.00    +0.000 C 
BRANCH  10  11
ATOM     11  S   UNL     1       5.811   3.746  15.344  0.00  0.00    +0.000 S 
ATOM     12  H   UNL     1       4.814   4.586  15.660  0.00  0.00    +0.000 HD
ENDBRANCH  10  11
ENDBRANCH   7  10
ENDBRANCH   6   7
BRANCH   6  13
ATOM     13  C   UNL     1       7.694   7.609  17.203  0.00  0.00    +0.000 C 
BRANCH  13  14
ATOM     14  C   UNL     1       8.384   8.432  18.301  0.00  0.00    +0.000 C 
BRANCH  14  15
ATOM     15  C   UNL     1       8.304   9.948  18.111  0.00  0.00    +0.000 C 
BRANCH  15  16
ATOM     16  C   UNL     1       9.664  10.613  18.291  0.00  0.00    +0.000 C 
BRANCH  16  17
ATOM     17  C   UNL     1       9.550  12.133  18.348  0.00  0.00    +0.000 C 
BRANCH  17  19
ATOM     18  C   UNL     1      11.170  12.105  20.268  0.00  0.00    +0.000 C 
ATOM     19  C   UNL     1      10.831  12.730  18.928  0.00  0.00    +0.000 C 
ENDBRANCH  17  19
ENDBRANCH  16  17
ENDBRANCH  15  16
ENDBRANCH  14  15
ENDBRANCH  13  14
ENDBRANCH   6  13
ENDBRANCH   2   6
ENDBRANCH   1   4
BRANCH   1  20
ATOM     20  C   UNL     1       2.417   7.626  18.832  0.00  0.00    +0.000 C 
ATOM     21  O   UNL     1       2.211   7.437  20.027  0.00  0.00    +0.000 OA
ATOM     22  N   UNL     1       2.188   8.837  18.194  0.00  0.00    +0.000 N 
ATOM     23  H   UNL     1       2.314   8.872  17.196  0.00  0.00    +0.000 HD
BRANCH  22  24
ATOM     24  C   UNL     1       1.425   9.927  18.791  0.00  0.00    +0.000 C 
BRANCH  24  25
ATOM     25  C   UNL     1       0.088  10.271  18.105  0.00  0.00    +0.000 C 
BRANCH  25  26
ATOM     26  N   UNL     1      -1.103  10.093  18.962  0.00  0.00    +0.000 NA
ATOM     27  C   UNL     1      -2.313   9.929  18.118  0.00  0.00    +0.000 C 
ATOM     28  C   UNL     1      -2.831  11.230  17.476  0.00  0.00    +0.000 C 
ATOM     29  O   UNL     1      -3.042  12.257  18.452  0.00  0.00    +0.000 OA
ATOM     30  C   UNL     1      -1.841  12.509  19.191  0.00  0.00    +0.000 C 
ATOM     31  C   UNL     1      -1.345  11.227  19.881  0.00  0.00    +0.000 C 
ENDBRANCH  25  26
ENDBRANCH  24  25
ENDBRANCH  22  24
ENDBRANCH   1  20
BRANCH   1  32
ATOM     32  C   UNL     1       2.126   5.198  18.022  0.00  0.00    +0.000 C 
BRANCH  32  33
ATOM     33  C   UNL     1       2.815   3.962  18.666  0.00  0.00    +0.000 C 
ATOM     34  C   UNL     1       3.221   4.118  20.140  0.00  0.00    +0.000 C 
ATOM     35  C   UNL     1       2.029   4.143  21.094  0.00  0.00    +0.000 C 
ATOM     36  C   UNL     1       1.198   2.875  20.947  0.00  0.00    +0.000 C 
ATOM     37  C   UNL     1       0.744   2.678  19.506  0.00  0.00    +0.000 C 
ATOM     38  C   UNL     1       1.916   2.711  18.523  0.00  0.00    +0.000 C 
ENDBRANCH  32  33
ENDBRANCH   1  32
TORSDOF 18
ENDMDL
MODEL 5
REMARK VINA RESULT:      -7.1      0.958      1.423
REMARK  Name = 
REMARK  19 active torsions:
REMARK  status: ('A' for Active; 'I' for Inactive)
REMARK    1  A    between atoms: C_1  and  C_2
REMARK    2  A    between atoms: C_2  and  C_3
REMARK    3  A    between atoms: C_3  and  C_4
REMARK    4  A    between atoms: C_4  and  C_5
REMARK    5  A    between atoms: C_5  and  C_6
REMARK    6  A    between atoms: C_6  and  C_7
REMARK    7  A    between atoms: C_7  and  C_8
REMARK    8  A    between atoms: C_8  and  C_9
REMARK    9  A    between atoms: C_8  and  C_31
REMARK   10  A    between atoms: N_11  and  C_12
REMARK   11  A    between atoms: C_12  and  C_13
REMARK   12  A    between atoms: C_12  and  C_20
REMARK   13  A    between atoms: C_13  and  C_14
REMARK   14  A    between atoms: N_22  and  C_23
REMARK   15  A    between atoms: C_23  and  C_24
REMARK   16  A    between atoms: C_24  and  N_25
REMARK   17  A    between atoms: C_31  and  O_32
REMARK   18  A    between atoms: C_31  and  C_33
REMARK   19  A    between atoms: C_33  and  S_34
REMARK                            x       y       z     vdW  Elec       q    Type
REMARK                         _______ _______ _______ _____ _____    ______ ____
ROOT
ATOM      1  C   UNL     1       2.637   5.964  19.294  0.00  0.00    +0.000 C 
ENDROOT
BRANCH   1   4
ATOM      2  C   UNL     1       4.670   5.751  17.872  0.00  0.00    +0.000 C 
ATOM      3  O   UNL     1       4.031   5.578  16.837  0.00  0.00    +0.000 OA
ATOM      4  N   UNL     1       4.079   5.892  19.105  0.00  0.00    +0.000 N 
ATOM      5  H   UNL     1       4.654   6.335  19.830  0.00  0.00    +0.000 HD
BRANCH   2   6
ATOM      6  C   UNL     1       6.201   5.735  17.884  0.00  0.00    +0.000 C 
BRANCH   6   7
ATOM      7  C   UNL     1       6.741   4.519  17.106  0.00  0.00    +0.000 C 
BRANCH   7   8
ATOM      8  O   UNL     1       5.732   3.495  17.081  0.00  0.00    +0.000 OA
ATOM      9  H   UNL     1       5.312   3.448  17.959  0.00  0.00    +0.000 HD
ENDBRANCH   7   8
BRANCH   7  10
ATOM     10  C   UNL     1       7.185   4.898  15.677  0.00  0.00    +0.000 C 
BRANCH  10  11
ATOM     11  S   UNL     1       6.205   4.056  14.392  0.00  0.00    +0.000 S 
ATOM     12  H   UNL     1       5.035   4.655  14.660  0.00  0.00    +0.000 HD
ENDBRANCH  10  11
ENDBRANCH   7  10
ENDBRANCH   6   7
BRANCH   6  13
ATOM     13  C   UNL     1       6.734   7.089  17.365  0.00  0.00    +0.000 C 
BRANCH  13  14
ATOM     14  C   UNL     1       7.948   7.619  18.141  0.00  0.00    +0.000 C 
BRANCH  14  15
ATOM     15  C   UNL     1       8.204   9.119  17.985  0.00  0.00    +0.000 C 
BRANCH  15  16
ATOM     16  C   UNL     1       9.178   9.639  19.035  0.00  0.00    +0.000 C 
BRANCH  16  17
ATOM     17  C   UNL     1       9.333  11.155  18.966  0.00  0.00    +0.000 C 
BRANCH  17  19
ATOM     18  C   UNL     1       8.500  13.215  17.795  0.00  0.00    +0.000 C 
ATOM     19  C   UNL     1       8.582  11.701  17.753  0.00  0.00    +0.000 C 
ENDBRANCH  17  19
ENDBRANCH  16  17
ENDBRANCH  15  16
ENDBRANCH  14  15
ENDBRANCH  13  14
ENDBRANCH   6  13
ENDBRANCH   2   6
ENDBRANCH   1   4
BRANCH   1  20
ATOM     20  C   UNL     1       2.181   7.423  19.071  0.00  0.00    +0.000 C 
ATOM     21  O   UNL     1       2.335   7.991  17.995  0.00  0.00    +0.000 OA
ATOM     22  N   UNL     1       1.609   8.022  20.184  0.00  0.00    +0.000 N 
ATOM     23  H   UNL     1       1.598   7.499  21.045  0.00  0.00    +0.000 HD
BRANCH  22  24
ATOM     24  C   UNL     1       1.383   9.458  20.294  0.00  0.00    +0.000 C 
BRANCH  24  25
ATOM     25  C   UNL     1       0.240   9.892  21.234  0.00  0.00    +0.000 C 
BRANCH  25  26
ATOM     26  N   UNL     1       0.385  11.256  21.783  0.00  0.00    +0.000 NA
ATOM     27  C   UNL     1      -0.905  11.709  22.359  0.00  0.00    +0.000 C 
ATOM     28  C   UNL     1      -1.966  12.119  21.320  0.00  0.00    +0.000 C 
ATOM     29  O   UNL     1      -1.461  13.097  20.403  0.00  0.00    +0.000 OA
ATOM     30  C   UNL     1      -0.281  12.618  19.748  0.00  0.00    +0.000 C 
ATOM     31  C   UNL     1       0.805  12.257  20.776  0.00  0.00    +0.000 C 
ENDBRANCH  25  26
ENDBRANCH  24  25
ENDBRANCH  22  24
ENDBRANCH   1  20
BRANCH   1  32
ATOM     32  C   UNL     1       2.162   5.384  20.648  0.00  0.00    +0.000 C 
BRANCH  32  33
ATOM     33  C   UNL     1       1.458   3.999  20.639  0.00  0.00    +0.000 C 
ATOM     34  C   UNL     1       0.930   3.527  19.274  0.00  0.00    +0.000 C 
ATOM     35  C   UNL     1       2.041   3.140  18.301  0.00  0.00    +0.000 C 
ATOM     36  C   UNL     1       2.916   2.042  18.893  0.00  0.00    +0.000 C 
ATOM     37  C   UNL     1       3.490   2.463  20.240  0.00  0.00    +0.000 C 
ATOM     38  C   UNL     1       2.399   2.914  21.215  0.00  0.00    +0.000 C 
ENDBRANCH  32  33
ENDBRANCH   1  32
TORSDOF 18
ENDMDL
MODEL 6
REMARK VINA RESULT:      -7.1      3.135      5.355
REMARK  Name = 
REMARK  19 active torsions:
REMARK  status: ('A' for Active; 'I' for Inactive)
REMARK    1  A    between atoms: C_1  and  C_2
REMARK    2  A    between atoms: C_2  and  C_3
REMARK    3  A    between atoms: C_3  and  C_4
REMARK    4  A    between atoms: C_4  and  C_5
REMARK    5  A    between atoms: C_5  and  C_6
REMARK    6  A    between atoms: C_6  and  C_7
REMARK    7  A    between atoms: C_7  and  C_8
REMARK    8  A    between atoms: C_8  and  C_9
REMARK    9  A    between atoms: C_8  and  C_31
REMARK   10  A    between atoms: N_11  and  C_12
REMARK   11  A    between atoms: C_12  and  C_13
REMARK   12  A    between atoms: C_12  and  C_20
REMARK   13  A    between atoms: C_13  and  C_14
REMARK   14  A    between atoms: N_22  and  C_23
REMARK   15  A    between atoms: C_23  and  C_24
REMARK   16  A    between atoms: C_24  and  N_25
REMARK   17  A    between atoms: C_31  and  O_32
REMARK   18  A    between atoms: C_31  and  C_33
REMARK   19  A    between atoms: C_33  and  S_34
REMARK                            x       y       z     vdW  Elec       q    Type
REMARK                         _______ _______ _______ _____ _____    ______ ____
ROOT
ATOM      1  C   UNL     1       3.051   6.072  18.517  0.00  0.00    +0.000 C 
ENDROOT
BRANCH   1   4
ATOM      2  C   UNL     1       4.622   5.470  16.681  0.00  0.00    +0.000 C 
ATOM      3  O   UNL     1       4.237   4.305  16.619  0.00  0.00    +0.000 OA
ATOM      4  N   UNL     1       4.142   6.373  17.600  0.00  0.00    +0.000 N 
ATOM      5  H   UNL     1       4.282   7.363  17.373  0.00  0.00    +0.000 HD
BRANCH   2   6
ATOM      6  C   UNL     1       5.747   5.995  15.783  0.00  0.00    +0.000 C 
BRANCH   6   7
ATOM      7  C   UNL     1       7.126   5.693  16.402  0.00  0.00    +0.000 C 
BRANCH   7   8
ATOM      8  O   UNL     1       7.808   6.934  16.648  0.00  0.00    +0.000 OA
ATOM      9  H   UNL     1       7.911   7.050  17.610  0.00  0.00    +0.000 HD
ENDBRANCH   7   8
BRANCH   7  10
ATOM     10  C   UNL     1       7.008   4.856  17.693  0.00  0.00    +0.000 C 
BRANCH  10  11
ATOM     11  S   UNL     1       7.668   5.724  19.153  0.00  0.00    +0.000 S 
ATOM     12  H   UNL     1       6.595   6.495  19.384  0.00  0.00    +0.000 HD
ENDBRANCH  10  11
ENDBRANCH   7  10
ENDBRANCH   6   7
BRANCH   6  13
ATOM     13  C   UNL     1       5.571   5.430  14.356  0.00  0.00    +0.000 C 
BRANCH  13  14
ATOM     14  C   UNL     1       6.749   4.569  13.877  0.00  0.00    +0.000 C 
BRANCH  14  15
ATOM     15  C   UNL     1       6.357   3.370  13.013  0.00  0.00    +0.000 C 
BRANCH  15  16
ATOM     16  C   UNL     1       4.894   3.431  12.591  0.00  0.00    +0.000 C 
BRANCH  16  17
ATOM     17  C   UNL     1       4.743   3.587  11.081  0.00  0.00    +0.000 C 
BRANCH  17  19
ATOM     18  C   UNL     1       2.851   4.184   9.540  0.00  0.00    +0.000 C 
ATOM     19  C   UNL     1       3.306   3.275  10.666  0.00  0.00    +0.000 C 
ENDBRANCH  17  19
ENDBRANCH  16  17
ENDBRANCH  15  16
ENDBRANCH  14  15
ENDBRANCH  13  14
ENDBRANCH   6  13
ENDBRANCH   2   6
ENDBRANCH   1   4
BRANCH   1  20
ATOM     20  C   UNL     1       2.374   7.397  18.931  0.00  0.00    +0.000 C 
ATOM     21  O   UNL     1       2.126   7.659  20.103  0.00  0.00    +0.000 OA
ATOM     22  N   UNL     1       2.065   8.239  17.872  0.00  0.00    +0.000 N 
ATOM     23  H   UNL     1       2.238   7.902  16.939  0.00  0.00    +0.000 HD
BRANCH  22  24
ATOM     24  C   UNL     1       1.172   9.385  17.994  0.00  0.00    +0.000 C 
BRANCH  24  25
ATOM     25  C   UNL     1       1.843  10.731  18.336  0.00  0.00    +0.000 C 
BRANCH  25  26
ATOM     26  N   UNL     1       1.247  11.436  19.490  0.00  0.00    +0.000 NA
ATOM     27  C   UNL     1      -0.214  11.597  19.284  0.00  0.00    +0.000 C 
ATOM     28  C   UNL     1      -0.604  12.691  18.271  0.00  0.00    +0.000 C 
ATOM     29  O   UNL     1      -0.005  13.952  18.594  0.00  0.00    +0.000 OA
ATOM     30  C   UNL     1       1.420  13.832  18.674  0.00  0.00    +0.000 C 
ATOM     31  C   UNL     1       1.821  12.780  19.723  0.00  0.00    +0.000 C 
ENDBRANCH  25  26
ENDBRANCH  24  25
ENDBRANCH  22  24
ENDBRANCH   1  20
BRANCH   1  32
ATOM     32  C   UNL     1       3.482   5.211  19.728  0.00  0.00    +0.000 C 
BRANCH  32  33
ATOM     33  C   UNL     1       3.333   3.668  19.615  0.00  0.00    +0.000 C 
ATOM     34  C   UNL     1       3.485   2.886  20.930  0.00  0.00    +0.000 C 
ATOM     35  C   UNL     1       2.312   3.083  21.887  0.00  0.00    +0.000 C 
ATOM     36  C   UNL     1       1.003   2.675  21.224  0.00  0.00    +0.000 C 
ATOM     37  C   UNL     1       0.784   3.438  19.924  0.00  0.00    +0.000 C 
ATOM     38  C   UNL     1       1.974   3.305  18.971  0.00  0.00    +0.000 C 
ENDBRANCH  32  33
ENDBRANCH   1  32
TORSDOF 18
ENDMDL
MODEL 7
REMARK VINA RESULT:      -7.0      1.307      1.892
REMARK  Name = 
REMARK  19 active torsions:
REMARK  status: ('A' for Active; 'I' for Inactive)
REMARK    1  A    between atoms: C_1  and  C_2
REMARK    2  A    between atoms: C_2  and  C_3
REMARK    3  A    between atoms: C_3  and  C_4
REMARK    4  A    between atoms: C_4  and  C_5
REMARK    5  A    between atoms: C_5  and  C_6
REMARK    6  A    between atoms: C_6  and  C_7
REMARK    7  A    between atoms: C_7  and  C_8
REMARK    8  A    between atoms: C_8  and  C_9
REMARK    9  A    between atoms: C_8  and  C_31
REMARK   10  A    between atoms: N_11  and  C_12
REMARK   11  A    between atoms: C_12  and  C_13
REMARK   12  A    between atoms: C_12  and  C_20
REMARK   13  A    between atoms: C_13  and  C_14
REMARK   14  A    between atoms: N_22  and  C_23
REMARK   15  A    between atoms: C_23  and  C_24
REMARK   16  A    between atoms: C_24  and  N_25
REMARK   17  A    between atoms: C_31  and  O_32
REMARK   18  A    between atoms: C_31  and  C_33
REMARK   19  A    between atoms: C_33  and  S_34
REMARK                            x       y       z     vdW  Elec       q    Type
REMARK                         _______ _______ _______ _____ _____    ______ ____
ROOT
ATOM      1  C   UNL     1       3.318   5.968  17.833  0.00  0.00    +0.000 C 
ENDROOT
BRANCH   1   4
ATOM      2  C   UNL     1       5.732   5.648  18.353  0.00  0.00    +0.000 C 
ATOM      3  O   UNL     1       5.543   5.517  19.560  0.00  0.00    +0.000 OA
ATOM      4  N   UNL     1       4.725   5.919  17.458  0.00  0.00    +0.000 N 
ATOM      5  H   UNL     1       4.924   5.700  16.476  0.00  0.00    +0.000 HD
BRANCH   2   6
ATOM      6  C   UNL     1       7.141   5.606  17.751  0.00  0.00    +0.000 C 
BRANCH   6   7
ATOM      7  C   UNL     1       7.236   4.522  16.659  0.00  0.00    +0.000 C 
BRANCH   7   8
ATOM      8  O   UNL     1       6.151   3.594  16.827  0.00  0.00    +0.000 OA
ATOM      9  H   UNL     1       5.658   3.532  15.989  0.00  0.00    +0.000 HD
ENDBRANCH   7   8
BRANCH   7  10
ATOM     10  C   UNL     1       7.235   5.129  15.240  0.00  0.00    +0.000 C 
BRANCH  10  11
ATOM     11  S   UNL     1       6.362   4.083  14.031  0.00  0.00    +0.000 S 
ATOM     12  H   UNL     1       5.273   3.844  14.777  0.00  0.00    +0.000 HD
ENDBRANCH  10  11
ENDBRANCH   7  10
ENDBRANCH   6   7
BRANCH   6  13
ATOM     13  C   UNL     1       7.532   7.017  17.259  0.00  0.00    +0.000 C 
BRANCH  13  14
ATOM     14  C   UNL     1       8.217   7.881  18.329  0.00  0.00    +0.000 C 
BRANCH  14  15
ATOM     15  C   UNL     1       8.351   9.361  17.968  0.00  0.00    +0.000 C 
BRANCH  15  16
ATOM     16  C   UNL     1       9.178  10.122  18.997  0.00  0.00    +0.000 C 
BRANCH  16  17
ATOM     17  C   UNL     1       9.465  11.552  18.552  0.00  0.00    +0.000 C 
BRANCH  17  19
ATOM     18  C   UNL     1      11.959  11.709  18.814  0.00  0.00    +0.000 C 
ATOM     19  C   UNL     1      10.809  11.614  17.829  0.00  0.00    +0.000 C 
ENDBRANCH  17  19
ENDBRANCH  16  17
ENDBRANCH  15  16
ENDBRANCH  14  15
ENDBRANCH  13  14
ENDBRANCH   6  13
ENDBRANCH   2   6
ENDBRANCH   1   4
BRANCH   1  20
ATOM     20  C   UNL     1       2.890   7.447  17.956  0.00  0.00    +0.000 C 
ATOM     21  O   UNL     1       3.405   8.328  17.276  0.00  0.00    +0.000 OA
ATOM     22  N   UNL     1       1.902   7.682  18.901  0.00  0.00    +0.000 N 
ATOM     23  H   UNL     1       1.597   6.905  19.464  0.00  0.00    +0.000 HD
BRANCH  22  24
ATOM     24  C   UNL     1       1.560   9.012  19.390  0.00  0.00    +0.000 C 
BRANCH  24  25
ATOM     25  C   UNL     1       0.555   9.810  18.534  0.00  0.00    +0.000 C 
BRANCH  25  26
ATOM     26  N   UNL     1      -0.561  10.405  19.298  0.00  0.00    +0.000 NA
ATOM     27  C   UNL     1      -1.069  11.609  18.594  0.00  0.00    +0.000 C 
ATOM     28  C   UNL     1      -0.171  12.854  18.719  0.00  0.00    +0.000 C 
ATOM     29  O   UNL     1       0.119  13.164  20.088  0.00  0.00    +0.000 OA
ATOM     30  C   UNL     1       0.725  12.045  20.744  0.00  0.00    +0.000 C 
ATOM     31  C   UNL     1      -0.188  10.809  20.672  0.00  0.00    +0.000 C 
ENDBRANCH  25  26
ENDBRANCH  24  25
ENDBRANCH  22  24
ENDBRANCH   1  20
BRANCH   1  32
ATOM     32  C   UNL     1       2.986   5.137  19.095  0.00  0.00    +0.000 C 
BRANCH  32  33
ATOM     33  C   UNL     1       2.618   3.639  18.906  0.00  0.00    +0.000 C 
ATOM     34  C   UNL     1       3.410   2.644  19.769  0.00  0.00    +0.000 C 
ATOM     35  C   UNL     1       3.043   2.705  21.250  0.00  0.00    +0.000 C 
ATOM     36  C   UNL     1       1.554   2.446  21.445  0.00  0.00    +0.000 C 
ATOM     37  C   UNL     1       0.714   3.422  20.630  0.00  0.00    +0.000 C 
ATOM     38  C   UNL     1       1.106   3.422  19.151  0.00  0.00    +0.000 C 
ENDBRANCH  32  33
ENDBRANCH   1  32
TORSDOF 18
ENDMDL
MODEL 8
REMARK VINA RESULT:      -7.0      1.782      2.422
REMARK  Name = 
REMARK  19 active torsions:
REMARK  status: ('A' for Active; 'I' for Inactive)
REMARK    1  A    between atoms: C_1  and  C_2
REMARK    2  A    between atoms: C_2  and  C_3
REMARK    3  A    between atoms: C_3  and  C_4
REMARK    4  A    between atoms: C_4  and  C_5
REMARK    5  A    between atoms: C_5  and  C_6
REMARK    6  A    between atoms: C_6  and  C_7
REMARK    7  A    between atoms: C_7  and  C_8
REMARK    8  A    between atoms: C_8  and  C_9
REMARK    9  A    between atoms: C_8  and  C_31
REMARK   10  A    between atoms: N_11  and  C_12
REMARK   11  A    between atoms: C_12  and  C_13
REMARK   12  A    between atoms: C_12  and  C_20
REMARK   13  A    between atoms: C_13  and  C_14
REMARK   14  A    between atoms: N_22  and  C_23
REMARK   15  A    between atoms: C_23  and  C_24
REMARK   16  A    between atoms: C_24  and  N_25
REMARK   17  A    between atoms: C_31  and  O_32
REMARK   18  A    between atoms: C_31  and  C_33
REMARK   19  A    between atoms: C_33  and  S_34
REMARK                            x       y       z     vdW  Elec       q    Type
REMARK                         _______ _______ _______ _____ _____    ______ ____
ROOT
ATOM      1  C   UNL     1       2.995   6.535  17.776  0.00  0.00    +0.000 C 
ENDROOT
BRANCH   1   4
ATOM      2  C   UNL     1       5.427   6.737  17.281  0.00  0.00    +0.000 C 
ATOM      3  O   UNL     1       5.247   7.128  16.131  0.00  0.00    +0.000 OA
ATOM      4  N   UNL     1       4.401   6.379  18.123  0.00  0.00    +0.000 N 
ATOM      5  H   UNL     1       4.623   6.375  19.124  0.00  0.00    +0.000 HD
BRANCH   2   6
ATOM      6  C   UNL     1       6.835   6.529  17.849  0.00  0.00    +0.000 C 
BRANCH   6   7
ATOM      7  C   UNL     1       7.295   5.071  17.649  0.00  0.00    +0.000 C 
BRANCH   7   8
ATOM      8  O   UNL     1       6.433   4.203  18.403  0.00  0.00    +0.000 OA
ATOM      9  H   UNL     1       5.548   4.606  18.455  0.00  0.00    +0.000 HD
ENDBRANCH   7   8
BRANCH   7  10
ATOM     10  C   UNL     1       7.321   4.673  16.158  0.00  0.00    +0.000 C 
BRANCH  10  11
ATOM     11  S   UNL     1       5.868   3.687  15.671  0.00  0.00    +0.000 S 
ATOM     12  H   UNL     1       5.257   4.641  14.951  0.00  0.00    +0.000 HD
ENDBRANCH  10  11
ENDBRANCH   7  10
ENDBRANCH   6   7
BRANCH   6  13
ATOM     13  C   UNL     1       7.796   7.572  17.236  0.00  0.00    +0.000 C 
BRANCH  13  14
ATOM     14  C   UNL     1       7.720   8.954  17.902  0.00  0.00    +0.000 C 
BRANCH  14  15
ATOM     15  C   UNL     1       9.072   9.552  18.294  0.00  0.00    +0.000 C 
BRANCH  15  16
ATOM     16  C   UNL     1       8.913  10.758  19.212  0.00  0.00    +0.000 C 
BRANCH  16  17
ATOM     17  C   UNL     1      10.214  11.102  19.930  0.00  0.00    +0.000 C 
BRANCH  17  19
ATOM     18  C   UNL     1       9.498  12.554  21.852  0.00  0.00    +0.000 C 
ATOM     19  C   UNL     1      10.145  12.525  20.480  0.00  0.00    +0.000 C 
ENDBRANCH  17  19
ENDBRANCH  16  17
ENDBRANCH  15  16
ENDBRANCH  14  15
ENDBRANCH  13  14
ENDBRANCH   6  13
ENDBRANCH   2   6
ENDBRANCH   1   4
BRANCH   1  20
ATOM     20  C   UNL     1       2.403   7.686  18.619  0.00  0.00    +0.000 C 
ATOM     21  O   UNL     1       2.211   7.573  19.825  0.00  0.00    +0.000 OA
ATOM     22  N   UNL     1       2.100   8.830  17.895  0.00  0.00    +0.000 N 
ATOM     23  H   UNL     1       2.221   8.799  16.896  0.00  0.00    +0.000 HD
BRANCH  22  24
ATOM     24  C   UNL     1       1.273   9.912  18.415  0.00  0.00    +0.000 C 
BRANCH  24  25
ATOM     25  C   UNL     1       1.902  11.320  18.381  0.00  0.00    +0.000 C 
BRANCH  25  26
ATOM     26  N   UNL     1       1.609  12.149  19.568  0.00  0.00    +0.000 NA
ATOM     27  C   UNL     1       0.177  12.540  19.571  0.00  0.00    +0.000 C 
ATOM     28  C   UNL     1      -0.189  13.650  18.566  0.00  0.00    +0.000 C 
ATOM     29  O   UNL     1       0.642  14.806  18.726  0.00  0.00    +0.000 OA
ATOM     30  C   UNL     1       2.025  14.458  18.602  0.00  0.00    +0.000 C 
ATOM     31  C   UNL     1       2.415  13.389  19.638  0.00  0.00    +0.000 C 
ENDBRANCH  25  26
ENDBRANCH  24  25
ENDBRANCH  22  24
ENDBRANCH   1  20
BRANCH   1  32
ATOM     32  C   UNL     1       2.182   5.224  17.891  0.00  0.00    +0.000 C 
BRANCH  32  33
ATOM     33  C   UNL     1       2.848   4.014  18.603  0.00  0.00    +0.000 C 
ATOM     34  C   UNL     1       3.054   4.163  20.119  0.00  0.00    +0.000 C 
ATOM     35  C   UNL     1       1.750   4.109  20.912  0.00  0.00    +0.000 C 
ATOM     36  C   UNL     1       1.012   2.803  20.645  0.00  0.00    +0.000 C 
ATOM     37  C   UNL     1       0.757   2.610  19.156  0.00  0.00    +0.000 C 
ATOM     38  C   UNL     1       2.042   2.721  18.332  0.00  0.00    +0.000 C 
ENDBRANCH  32  33
ENDBRANCH   1  32
TORSDOF 18
ENDMDL
MODEL 9
REMARK VINA RESULT:      -6.9      2.596      4.740
REMARK  Name = 
REMARK  19 active torsions:
REMARK  status: ('A' for Active; 'I' for Inactive)
REMARK    1  A    between atoms: C_1  and  C_2
REMARK    2  A    between atoms: C_2  and  C_3
REMARK    3  A    between atoms: C_3  and  C_4
REMARK    4  A    between atoms: C_4  and  C_5
REMARK    5  A    between atoms: C_5  and  C_6
REMARK    6  A    between atoms: C_6  and  C_7
REMARK    7  A    between atoms: C_7  and  C_8
REMARK    8  A    between atoms: C_8  and  C_9
REMARK    9  A    between atoms: C_8  and  C_31
REMARK   10  A    between atoms: N_11  and  C_12
REMARK   11  A    between atoms: C_12  and  C_13
REMARK   12  A    between atoms: C_12  and  C_20
REMARK   13  A    between atoms: C_13  and  C_14
REMARK   14  A    between atoms: N_22  and  C_23
REMARK   15  A    between atoms: C_23  and  C_24
REMARK   16  A    between atoms: C_24  and  N_25
REMARK   17  A    between atoms: C_31  and  O_32
REMARK   18  A    between atoms: C_31  and  C_33
REMARK   19  A    between atoms: C_33  and  S_34
REMARK                            x       y       z     vdW  Elec       q    Type
REMARK                         _______ _______ _______ _____ _____    ______ ____
ROOT
ATOM      1  C   UNL     1       2.575   6.110  19.422  0.00  0.00    +0.000 C 
ENDROOT
BRANCH   1   4
ATOM      2  C   UNL     1       4.243   5.444  17.698  0.00  0.00    +0.000 C 
ATOM      3  O   UNL     1       3.432   4.795  17.041  0.00  0.00    +0.000 OA
ATOM      4  N   UNL     1       3.927   6.065  18.883  0.00  0.00    +0.000 N 
ATOM      5  H   UNL     1       4.557   6.817  19.178  0.00  0.00    +0.000 HD
BRANCH   2   6
ATOM      6  C   UNL     1       5.716   5.542  17.287  0.00  0.00    +0.000 C 
BRANCH   6   7
ATOM      7  C   UNL     1       6.638   5.253  18.487  0.00  0.00    +0.000 C 
BRANCH   7   8
ATOM      8  O   UNL     1       7.315   4.004  18.266  0.00  0.00    +0.000 OA
ATOM      9  H   UNL     1       7.971   4.124  17.555  0.00  0.00    +0.000 HD
ENDBRANCH   7   8
BRANCH   7  10
ATOM     10  C   UNL     1       7.645   6.397  18.730  0.00  0.00    +0.000 C 
BRANCH  10  11
ATOM     11  S   UNL     1       7.544   7.700  17.459  0.00  0.00    +0.000 S 
ATOM     12  H   UNL     1       8.784   7.548  16.970  0.00  0.00    +0.000 HD
ENDBRANCH  10  11
ENDBRANCH   7  10
ENDBRANCH   6   7
BRANCH   6  13
ATOM     13  C   UNL     1       5.973   4.623  16.072  0.00  0.00    +0.000 C 
BRANCH  13  14
ATOM     14  C   UNL     1       6.025   5.367  14.729  0.00  0.00    +0.000 C 
BRANCH  14  15
ATOM     15  C   UNL     1       6.938   4.730  13.680  0.00  0.00    +0.000 C 
BRANCH  15  16
ATOM     16  C   UNL     1       6.327   3.464  13.092  0.00  0.00    +0.000 C 
BRANCH  16  17
ATOM     17  C   UNL     1       4.959   3.727  12.471  0.00  0.00    +0.000 C 
BRANCH  17  19
ATOM     18  C   UNL     1       5.775   1.670  11.283  0.00  0.00    +0.000 C 
ATOM     19  C   UNL     1       4.705   2.744  11.330  0.00  0.00    +0.000 C 
ENDBRANCH  17  19
ENDBRANCH  16  17
ENDBRANCH  15  16
ENDBRANCH  14  15
ENDBRANCH  13  14
ENDBRANCH   6  13
ENDBRANCH   2   6
ENDBRANCH   1   4
BRANCH   1  20
ATOM     20  C   UNL     1       2.154   7.588  19.577  0.00  0.00    +0.000 C 
ATOM     21  O   UNL     1       1.632   8.009  20.604  0.00  0.00    +0.000 OA
ATOM     22  N   UNL     1       2.402   8.376  18.461  0.00  0.00    +0.000 N 
ATOM     23  H   UNL     1       2.763   7.922  17.638  0.00  0.00    +0.000 HD
BRANCH  22  24
ATOM     24  C   UNL     1       1.829   9.703  18.274  0.00  0.00    +0.000 C 
BRANCH  24  25
ATOM     25  C   UNL     1       0.323   9.748  17.944  0.00  0.00    +0.000 C 
BRANCH  25  26
ATOM     26  N   UNL     1      -0.542  10.117  19.083  0.00  0.00    +0.000 NA
ATOM     27  C   UNL     1      -1.871  10.555  18.588  0.00  0.00    +0.000 C 
ATOM     28  C   UNL     1      -1.894  11.966  17.969  0.00  0.00    +0.000 C 
ATOM     29  O   UNL     1      -1.348  12.946  18.860  0.00  0.00    +0.000 OA
ATOM     30  C   UNL     1      -0.015  12.593  19.246  0.00  0.00    +0.000 C 
ATOM     31  C   UNL     1       0.011  11.209  19.916  0.00  0.00    +0.000 C 
ENDBRANCH  25  26
ENDBRANCH  24  25
ENDBRANCH  22  24
ENDBRANCH   1  20
BRANCH   1  32
ATOM     32  C   UNL     1       2.401   5.294  20.725  0.00  0.00    +0.000 C 
BRANCH  32  33
ATOM     33  C   UNL     1       1.272   4.227  20.771  0.00  0.00    +0.000 C 
ATOM     34  C   UNL     1       0.751   3.749  19.406  0.00  0.00    +0.000 C 
ATOM     35  C   UNL     1       1.753   2.880  18.649  0.00  0.00    +0.000 C 
ATOM     36  C   UNL     1       2.142   1.662  19.477  0.00  0.00    +0.000 C 
ATOM     37  C   UNL     1       2.691   2.075  20.837  0.00  0.00    +0.000 C 
ATOM     38  C   UNL     1       1.729   2.997  21.591  0.00  0.00    +0.000 C 
ENDBRANCH  32  33
ENDBRANCH   1  32
TORSDOF 18
ENDMDL
