MODEL 1
REMARK VINA RESULT:      -6.4      0.000      0.000
REMARK  Name = 
REMARK  9 active torsions:
REMARK  status: ('A' for Active; 'I' for Inactive)
REMARK    1  A    between atoms: C_1  and  O_2
REMARK    2  A    between atoms: O_2  and  C_3
REMARK    3  A    between atoms: C_5  and  O_6
REMARK    4  A    between atoms: O_6  and  C_7
REMARK    5  A    between atoms: C_12  and  N_13
REMARK    6  A    between atoms: C_14  and  C_15
REMARK    7  A    between atoms: C_17  and  C_18
REMARK    8  A    between atoms: C_20  and  O_21
REMARK    9  A    between atoms: O_21  and  C_22
REMARK                            x       y       z     vdW  Elec       q    Type
REMARK                         _______ _______ _______ _____ _____    ______ ____
ROOT
ATOM      1  C   UNL     1      -5.251  11.091  18.400  0.00  0.00    +0.000 A 
ATOM      2  C   UNL     1      -4.303  10.542  17.590  0.00  0.00    +0.000 A 
ATOM      3  C   UNL     1      -2.950  10.888  17.620  0.00  0.00    +0.000 A 
ATOM      4  C   UNL     1      -2.472  11.775  18.641  0.00  0.00    +0.000 A 
ATOM      5  C   UNL     1      -3.474  12.365  19.436  0.00  0.00    +0.000 A 
ATOM      6  C   UNL     1      -4.832  12.032  19.319  0.00  0.00    +0.000 A 
ATOM      7  O   UNL     1      -3.258  13.362  20.359  0.00  0.00    +0.000 OA
ATOM      8  C   UNL     1      -1.990  13.864  20.569  0.00  0.00    +0.000 C 
ATOM      9  C   UNL     1      -0.921  13.350  19.954  0.00  0.00    +0.000 C 
ATOM     10  C   UNL     1      -1.023  12.237  18.899  0.00  0.00    +0.000 C 
ENDROOT
BRANCH  10  11
ATOM     11  C   UNL     1      -0.030  11.112  19.209  0.00  0.00    +0.000 A 
ATOM     12  C   UNL     1      -0.053  10.415  20.443  0.00  0.00    +0.000 A 
ATOM     13  C   UNL     1       0.696   9.242  20.636  0.00  0.00    +0.000 A 
ATOM     14  C   UNL     1       1.452   8.782  19.569  0.00  0.00    +0.000 A 
ATOM     15  C   UNL     1       1.556   9.517  18.409  0.00  0.00    +0.000 A 
ATOM     16  C   UNL     1       0.884  10.706  18.220  0.00  0.00    +0.000 A 
ATOM     17  O   UNL     1       2.280   8.883  17.445  0.00  0.00    +0.000 OA
ATOM     18  C   UNL     1       2.642   7.670  18.128  0.00  0.00    +0.000 C 
ATOM     19  O   UNL     1       2.113   7.594  19.463  0.00  0.00    +0.000 OA
BRANCH  13  20
ATOM     20  O   UNL     1       0.535   8.656  21.860  0.00  0.00    +0.000 OA
ATOM     21  C   UNL     1      -0.119   9.432  22.856  0.00  0.00    +0.000 C 
ENDBRANCH  13  20
ENDBRANCH  10  11
BRANCH   8  22
ATOM     22  N   UNL     1      -1.998  14.932  21.443  0.00  0.00    +0.000 N 
ATOM     23  H   UNL     1      -2.720  14.881  22.154  0.00  0.00    +0.000 HD
ATOM     24  H   UNL     1      -1.097  15.275  21.768  0.00  0.00    +0.000 HD
ENDBRANCH   8  22
BRANCH   1  26
ATOM     25  C   UNL     1      -7.355  11.362  19.423  0.00  0.00    +0.000 C 
ATOM     26  O   UNL     1      -6.602  10.846  18.320  0.00  0.00    +0.000 OA
ENDBRANCH   1  26
BRANCH   3  27
ATOM     27  O   UNL     1      -2.179  10.350  16.589  0.00  0.00    +0.000 OA
ATOM     28  C   UNL     1      -2.814  10.403  15.285  0.00  0.00    +0.000 C 
ENDBRANCH   3  27
BRANCH   9  29
ATOM     29  C   UNL     1       0.386  13.873  20.259  0.00  0.00    +0.000 C 
ATOM     30  N   UNL     1       1.430  14.269  20.537  0.00  0.00    +0.000 NA
ENDBRANCH   9  29
TORSDOF 6
ENDMDL
MODEL 2
REMARK VINA RESULT:      -6.2      5.986      8.578
REMARK  Name = 
REMARK  9 active torsions:
REMARK  status: ('A' for Active; 'I' for Inactive)
REMARK    1  A    between atoms: C_1  and  O_2
REMARK    2  A    between atoms: O_2  and  C_3
REMARK    3  A    between atoms: C_5  and  O_6
REMARK    4  A    between atoms: O_6  and  C_7
REMARK    5  A    between atoms: C_12  and  N_13
REMARK    6  A    between atoms: C_14  and  C_15
REMARK    7  A    between atoms: C_17  and  C_18
REMARK    8  A    between atoms: C_20  and  O_21
REMARK    9  A    between atoms: O_21  and  C_22
REMARK                            x       y       z     vdW  Elec       q    Type
REMARK                         _______ _______ _______ _____ _____    ______ ____
ROOT
ATOM      1  C   UNL     1       2.207   2.789  21.089  0.00  0.00    +0.000 A 
ATOM      2  C   UNL     1       2.523   2.472  19.802  0.00  0.00    +0.000 A 
ATOM      3  C   UNL     1       2.636   3.406  18.770  0.00  0.00    +0.000 A 
ATOM      4  C   UNL     1       2.553   4.805  19.073  0.00  0.00    +0.000 A 
ATOM      5  C   UNL     1       2.181   5.108  20.398  0.00  0.00    +0.000 A 
ATOM      6  C   UNL     1       2.012   4.123  21.384  0.00  0.00    +0.000 A 
ATOM      7  O   UNL     1       1.884   6.368  20.862  0.00  0.00    +0.000 OA
ATOM      8  C   UNL     1       1.936   7.459  20.018  0.00  0.00    +0.000 C 
ATOM      9  C   UNL     1       2.353   7.348  18.754  0.00  0.00    +0.000 C 
ATOM     10  C   UNL     1       2.711   5.999  18.110  0.00  0.00    +0.000 C 
ENDROOT
BRANCH  10  11
ATOM     11  C   UNL     1       4.069   6.085  17.405  0.00  0.00    +0.000 A 
ATOM     12  C   UNL     1       5.248   6.457  18.097  0.00  0.00    +0.000 A 
ATOM     13  C   UNL     1       6.518   6.313  17.513  0.00  0.00    +0.000 A 
ATOM     14  C   UNL     1       6.578   5.782  16.234  0.00  0.00    +0.000 A 
ATOM     15  C   UNL     1       5.427   5.522  15.524  0.00  0.00    +0.000 A 
ATOM     16  C   UNL     1       4.168   5.719  16.050  0.00  0.00    +0.000 A 
ATOM     17  O   UNL     1       5.671   4.940  14.316  0.00  0.00    +0.000 OA
ATOM     18  C   UNL     1       7.108   4.876  14.329  0.00  0.00    +0.000 C 
ATOM     19  O   UNL     1       7.686   5.394  15.541  0.00  0.00    +0.000 OA
BRANCH  13  20
ATOM     20  O   UNL     1       7.563   6.667  18.320  0.00  0.00    +0.000 OA
ATOM     21  C   UNL     1       7.887   5.768  19.372  0.00  0.00    +0.000 C 
ENDBRANCH  13  20
ENDBRANCH  10  11
BRANCH   8  22
ATOM     22  N   UNL     1       1.494   8.610  20.637  0.00  0.00    +0.000 N 
ATOM     23  H   UNL     1       1.758   9.465  20.160  0.00  0.00    +0.000 HD
ATOM     24  H   UNL     1       0.551   8.602  21.018  0.00  0.00    +0.000 HD
ENDBRANCH   8  22
BRANCH   1  26
ATOM     25  C   UNL     1       0.772   2.102  22.825  0.00  0.00    +0.000 C 
ATOM     26  O   UNL     1       1.986   1.882  22.099  0.00  0.00    +0.000 OA
ENDBRANCH   1  26
BRANCH   3  27
ATOM     27  O   UNL     1       2.782   2.861  17.494  0.00  0.00    +0.000 OA
ATOM     28  C   UNL     1       4.034   2.157  17.289  0.00  0.00    +0.000 C 
ENDBRANCH   3  27
BRANCH   9  29
ATOM     29  C   UNL     1       2.446   8.532  17.937  0.00  0.00    +0.000 C 
ATOM     30  N   UNL     1       2.480   9.485  17.294  0.00  0.00    +0.000 NA
ENDBRANCH   9  29
TORSDOF 6
ENDMDL
MODEL 3
REMARK VINA RESULT:      -6.2      1.744      6.278
REMARK  Name = 
REMARK  9 active torsions:
REMARK  status: ('A' for Active; 'I' for Inactive)
REMARK    1  A    between atoms: C_1  and  O_2
REMARK    2  A    between atoms: O_2  and  C_3
REMARK    3  A    between atoms: C_5  and  O_6
REMARK    4  A    between atoms: O_6  and  C_7
REMARK    5  A    between atoms: C_12  and  N_13
REMARK    6  A    between atoms: C_14  and  C_15
REMARK    7  A    between atoms: C_17  and  C_18
REMARK    8  A    between atoms: C_20  and  O_21
REMARK    9  A    between atoms: O_21  and  C_22
REMARK                            x       y       z     vdW  Elec       q    Type
REMARK                         _______ _______ _______ _____ _____    ______ ____
ROOT
ATOM      1  C   UNL     1       1.743   7.420  19.976  0.00  0.00    +0.000 A 
ATOM      2  C   UNL     1       0.779   7.742  20.882  0.00  0.00    +0.000 A 
ATOM      3  C   UNL     1       0.217   9.014  21.011  0.00  0.00    +0.000 A 
ATOM      4  C   UNL     1       0.557  10.034  20.062  0.00  0.00    +0.000 A 
ATOM      5  C   UNL     1       1.589   9.694  19.164  0.00  0.00    +0.000 A 
ATOM      6  C   UNL     1       2.168   8.417  19.122  0.00  0.00    +0.000 A 
ATOM      7  O   UNL     1       2.183  10.567  18.283  0.00  0.00    +0.000 OA
ATOM      8  C   UNL     1       1.785  11.887  18.225  0.00  0.00    +0.000 C 
ATOM      9  C   UNL     1       0.761  12.344  18.953  0.00  0.00    +0.000 C 
ATOM     10  C   UNL     1       0.014  11.475  19.977  0.00  0.00    +0.000 C 
ENDROOT
BRANCH  10  11
ATOM     11  C   UNL     1      -1.500  11.584  19.769  0.00  0.00    +0.000 A 
ATOM     12  C   UNL     1      -2.330  12.285  20.679  0.00  0.00    +0.000 A 
ATOM     13  C   UNL     1      -3.669  12.581  20.372  0.00  0.00    +0.000 A 
ATOM     14  C   UNL     1      -4.148  12.170  19.138  0.00  0.00    +0.000 A 
ATOM     15  C   UNL     1      -3.374  11.397  18.301  0.00  0.00    +0.000 A 
ATOM     16  C   UNL     1      -2.079  11.037  18.610  0.00  0.00    +0.000 A 
ATOM     17  O   UNL     1      -3.976  11.146  17.105  0.00  0.00    +0.000 OA
ATOM     18  C   UNL     1      -5.230  11.829  17.282  0.00  0.00    +0.000 C 
ATOM     19  O   UNL     1      -5.340  12.487  18.556  0.00  0.00    +0.000 OA
BRANCH  13  20
ATOM     20  O   UNL     1      -4.329  13.303  21.326  0.00  0.00    +0.000 OA
ATOM     21  C   UNL     1      -4.223  12.835  22.665  0.00  0.00    +0.000 C 
ENDBRANCH  13  20
ENDBRANCH  10  11
BRANCH   8  22
ATOM     22  N   UNL     1       2.575  12.625  17.367  0.00  0.00    +0.000 N 
ATOM     23  H   UNL     1       3.500  12.830  17.728  0.00  0.00    +0.000 HD
ATOM     24  H   UNL     1       2.540  12.386  16.379  0.00  0.00    +0.000 HD
ENDBRANCH   8  22
BRANCH   1  26
ATOM     25  C   UNL     1       1.753   5.162  20.645  0.00  0.00    +0.000 C 
ATOM     26  O   UNL     1       2.386   6.207  19.899  0.00  0.00    +0.000 OA
ENDBRANCH   1  26
BRANCH   3  27
ATOM     27  O   UNL     1      -0.616   9.184  22.118  0.00  0.00    +0.000 OA
ATOM     28  C   UNL     1       0.077   9.595  23.325  0.00  0.00    +0.000 C 
ENDBRANCH   3  27
BRANCH   9  29
ATOM     29  C   UNL     1       0.351  13.717  18.805  0.00  0.00    +0.000 C 
ATOM     30  N   UNL     1       0.013  14.806  18.647  0.00  0.00    +0.000 NA
ENDBRANCH   9  29
TORSDOF 6
ENDMDL
MODEL 4
REMARK VINA RESULT:      -6.0      3.080      7.430
REMARK  Name = 
REMARK  9 active torsions:
REMARK  status: ('A' for Active; 'I' for Inactive)
REMARK    1  A    between atoms: C_1  and  O_2
REMARK    2  A    between atoms: O_2  and  C_3
REMARK    3  A    between atoms: C_5  and  O_6
REMARK    4  A    between atoms: O_6  and  C_7
REMARK    5  A    between atoms: C_12  and  N_13
REMARK    6  A    between atoms: C_14  and  C_15
REMARK    7  A    between atoms: C_17  and  C_18
REMARK    8  A    between atoms: C_20  and  O_21
REMARK    9  A    between atoms: O_21  and  C_22
REMARK                            x       y       z     vdW  Elec       q    Type
REMARK                         _______ _______ _______ _____ _____    ______ ____
ROOT
ATOM      1  C   UNL     1      -0.654  10.560  19.935  0.00  0.00    +0.000 A 
ATOM      2  C   UNL     1      -1.144  11.492  20.799  0.00  0.00    +0.000 A 
ATOM      3  C   UNL     1      -2.301  12.239  20.573  0.00  0.00    +0.000 A 
ATOM      4  C   UNL     1      -3.122  11.940  19.435  0.00  0.00    +0.000 A 
ATOM      5  C   UNL     1      -2.574  11.008  18.533  0.00  0.00    +0.000 A 
ATOM      6  C   UNL     1      -1.368  10.333  18.777  0.00  0.00    +0.000 A 
ATOM      7  O   UNL     1      -3.107  10.697  17.304  0.00  0.00    +0.000 OA
ATOM      8  C   UNL     1      -4.264  11.309  16.864  0.00  0.00    +0.000 C 
ATOM      9  C   UNL     1      -4.949  12.154  17.640  0.00  0.00    +0.000 C 
ATOM     10  C   UNL     1      -4.462  12.588  19.031  0.00  0.00    +0.000 C 
ENDROOT
BRANCH  10  11
ATOM     11  C   UNL     1      -5.587  12.444  20.062  0.00  0.00    +0.000 A 
ATOM     12  C   UNL     1      -6.341  11.251  20.182  0.00  0.00    +0.000 A 
ATOM     13  C   UNL     1      -7.207  11.037  21.269  0.00  0.00    +0.000 A 
ATOM     14  C   UNL     1      -7.289  12.035  22.228  0.00  0.00    +0.000 A 
ATOM     15  C   UNL     1      -6.638  13.236  22.054  0.00  0.00    +0.000 A 
ATOM     16  C   UNL     1      -5.837  13.496  20.962  0.00  0.00    +0.000 A 
ATOM     17  O   UNL     1      -6.771  14.070  23.123  0.00  0.00    +0.000 OA
ATOM     18  C   UNL     1      -7.597  13.272  23.990  0.00  0.00    +0.000 C 
ATOM     19  O   UNL     1      -7.917  11.982  23.437  0.00  0.00    +0.000 OA
BRANCH  13  20
ATOM     20  O   UNL     1      -7.828   9.820  21.274  0.00  0.00    +0.000 OA
ATOM     21  C   UNL     1      -7.411   8.889  20.284  0.00  0.00    +0.000 C 
ENDBRANCH  13  20
ENDBRANCH  10  11
BRANCH   8  22
ATOM     22  N   UNL     1      -4.573  10.953  15.567  0.00  0.00    +0.000 N 
ATOM     23  H   UNL     1      -5.446  10.446  15.473  0.00  0.00    +0.000 HD
ATOM     24  H   UNL     1      -4.393  11.641  14.839  0.00  0.00    +0.000 HD
ENDBRANCH   8  22
BRANCH   1  26
ATOM     25  C   UNL     1       0.834   9.518  21.434  0.00  0.00    +0.000 C 
ATOM     26  O   UNL     1       0.537   9.889  20.083  0.00  0.00    +0.000 OA
ENDBRANCH   1  26
BRANCH   3  27
ATOM     27  O   UNL     1      -2.529  13.268  21.488  0.00  0.00    +0.000 OA
ATOM     28  C   UNL     1      -2.694  12.818  22.858  0.00  0.00    +0.000 C 
ENDBRANCH   3  27
BRANCH   9  29
ATOM     29  C   UNL     1      -6.183  12.715  17.150  0.00  0.00    +0.000 C 
ATOM     30  N   UNL     1      -7.161  13.197  16.783  0.00  0.00    +0.000 NA
ENDBRANCH   9  29
TORSDOF 6
ENDMDL
MODEL 5
REMARK VINA RESULT:      -5.9      1.623      6.487
REMARK  Name = 
REMARK  9 active torsions:
REMARK  status: ('A' for Active; 'I' for Inactive)
REMARK    1  A    between atoms: C_1  and  O_2
REMARK    2  A    between atoms: O_2  and  C_3
REMARK    3  A    between atoms: C_5  and  O_6
REMARK    4  A    between atoms: O_6  and  C_7
REMARK    5  A    between atoms: C_12  and  N_13
REMARK    6  A    between atoms: C_14  and  C_15
REMARK    7  A    between atoms: C_17  and  C_18
REMARK    8  A    between atoms: C_20  and  O_21
REMARK    9  A    between atoms: O_21  and  C_22
REMARK                            x       y       z     vdW  Elec       q    Type
REMARK                         _______ _______ _______ _____ _____    ______ ____
ROOT
ATOM      1  C   UNL     1       1.532   8.060  20.024  0.00  0.00    +0.000 A 
ATOM      2  C   UNL     1       0.587   8.413  20.939  0.00  0.00    +0.000 A 
ATOM      3  C   UNL     1       0.062   9.701  21.067  0.00  0.00    +0.000 A 
ATOM      4  C   UNL     1       0.419  10.706  20.107  0.00  0.00    +0.000 A 
ATOM      5  C   UNL     1       1.431  10.332  19.200  0.00  0.00    +0.000 A 
ATOM      6  C   UNL     1       1.975   9.040  19.159  0.00  0.00    +0.000 A 
ATOM      7  O   UNL     1       2.039  11.184  18.308  0.00  0.00    +0.000 OA
ATOM      8  C   UNL     1       1.676  12.515  18.246  0.00  0.00    +0.000 C 
ATOM      9  C   UNL     1       0.674  13.003  18.982  0.00  0.00    +0.000 C 
ATOM     10  C   UNL     1      -0.085  12.161  20.020  0.00  0.00    +0.000 C 
ENDROOT
BRANCH  10  11
ATOM     11  C   UNL     1      -1.598  12.311  19.828  0.00  0.00    +0.000 A 
ATOM     12  C   UNL     1      -2.257  11.822  18.673  0.00  0.00    +0.000 A 
ATOM     13  C   UNL     1      -3.659  11.752  18.602  0.00  0.00    +0.000 A 
ATOM     14  C   UNL     1      -4.377  12.169  19.712  0.00  0.00    +0.000 A 
ATOM     15  C   UNL     1      -3.740  12.743  20.790  0.00  0.00    +0.000 A 
ATOM     16  C   UNL     1      -2.370  12.884  20.854  0.00  0.00    +0.000 A 
ATOM     17  O   UNL     1      -4.590  13.028  21.816  0.00  0.00    +0.000 OA
ATOM     18  C   UNL     1      -5.843  12.590  21.262  0.00  0.00    +0.000 C 
ATOM     19  O   UNL     1      -5.714  12.035  19.940  0.00  0.00    +0.000 OA
BRANCH  13  20
ATOM     20  O   UNL     1      -4.147  11.214  17.445  0.00  0.00    +0.000 OA
ATOM     21  C   UNL     1      -3.334  10.239  16.804  0.00  0.00    +0.000 C 
ENDBRANCH  13  20
ENDBRANCH  10  11
BRANCH   8  22
ATOM     22  N   UNL     1       2.476  13.226  17.376  0.00  0.00    +0.000 N 
ATOM     23  H   UNL     1       2.473  12.872  16.425  0.00  0.00    +0.000 HD
ATOM     24  H   UNL     1       2.469  14.240  17.459  0.00  0.00    +0.000 HD
ENDBRANCH   8  22
BRANCH   1  26
ATOM     25  C   UNL     1       2.782   6.573  18.692  0.00  0.00    +0.000 C 
ATOM     26  O   UNL     1       2.141   6.829  19.946  0.00  0.00    +0.000 OA
ENDBRANCH   1  26
BRANCH   3  27
ATOM     27  O   UNL     1      -0.754   9.899  22.181  0.00  0.00    +0.000 OA
ATOM     28  C   UNL     1      -0.128   9.550  23.443  0.00  0.00    +0.000 C 
ENDBRANCH   3  27
BRANCH   9  29
ATOM     29  C   UNL     1       0.299  14.386  18.831  0.00  0.00    +0.000 C 
ATOM     30  N   UNL     1       0.036  15.498  18.691  0.00  0.00    +0.000 NA
ENDBRANCH   9  29
TORSDOF 6
ENDMDL
MODEL 6
REMARK VINA RESULT:      -5.9      2.395      5.207
REMARK  Name = 
REMARK  9 active torsions:
REMARK  status: ('A' for Active; 'I' for Inactive)
REMARK    1  A    between atoms: C_1  and  O_2
REMARK    2  A    between atoms: O_2  and  C_3
REMARK    3  A    between atoms: C_5  and  O_6
REMARK    4  A    between atoms: O_6  and  C_7
REMARK    5  A    between atoms: C_12  and  N_13
REMARK    6  A    between atoms: C_14  and  C_15
REMARK    7  A    between atoms: C_17  and  C_18
REMARK    8  A    between atoms: C_20  and  O_21
REMARK    9  A    between atoms: O_21  and  C_22
REMARK                            x       y       z     vdW  Elec       q    Type
REMARK                         _______ _______ _______ _____ _____    ______ ____
ROOT
ATOM      1  C   UNL     1      -3.653  10.518  15.719  0.00  0.00    +0.000 A 
ATOM      2  C   UNL     1      -4.306  11.245  16.668  0.00  0.00    +0.000 A 
ATOM      3  C   UNL     1      -3.791  11.521  17.936  0.00  0.00    +0.000 A 
ATOM      4  C   UNL     1      -2.442  11.146  18.246  0.00  0.00    +0.000 A 
ATOM      5  C   UNL     1      -1.803  10.355  17.269  0.00  0.00    +0.000 A 
ATOM      6  C   UNL     1      -2.394  10.049  16.035  0.00  0.00    +0.000 A 
ATOM      7  O   UNL     1      -0.578   9.751  17.427  0.00  0.00    +0.000 OA
ATOM      8  C   UNL     1       0.129   9.890  18.604  0.00  0.00    +0.000 C 
ATOM      9  C   UNL     1      -0.304  10.677  19.594  0.00  0.00    +0.000 C 
ATOM     10  C   UNL     1      -1.656  11.406  19.547  0.00  0.00    +0.000 C 
ENDROOT
BRANCH  10  11
ATOM     11  C   UNL     1      -1.481  12.884  19.913  0.00  0.00    +0.000 A 
ATOM     12  C   UNL     1      -1.965  13.413  21.135  0.00  0.00    +0.000 A 
ATOM     13  C   UNL     1      -1.605  14.700  21.571  0.00  0.00    +0.000 A 
ATOM     14  C   UNL     1      -0.749  15.433  20.763  0.00  0.00    +0.000 A 
ATOM     15  C   UNL     1      -0.368  14.960  19.527  0.00  0.00    +0.000 A 
ATOM     16  C   UNL     1      -0.762  13.728  19.049  0.00  0.00    +0.000 A 
ATOM     17  O   UNL     1       0.528  15.774  18.902  0.00  0.00    +0.000 OA
ATOM     18  C   UNL     1       0.658  16.830  19.871  0.00  0.00    +0.000 C 
ATOM     19  O   UNL     1      -0.134  16.614  21.052  0.00  0.00    +0.000 OA
BRANCH  13  20
ATOM     20  O   UNL     1      -2.109  15.053  22.790  0.00  0.00    +0.000 OA
ATOM     21  C   UNL     1      -1.303  14.753  23.923  0.00  0.00    +0.000 C 
ENDBRANCH  13  20
ENDBRANCH  10  11
BRANCH   8  22
ATOM     22  N   UNL     1       1.273   9.119  18.611  0.00  0.00    +0.000 N 
ATOM     23  H   UNL     1       1.997   9.445  17.980  0.00  0.00    +0.000 HD
ATOM     24  H   UNL     1       1.605   8.785  19.513  0.00  0.00    +0.000 HD
ENDBRANCH   8  22
BRANCH   1  26
ATOM     25  C   UNL     1      -3.195   9.855  13.506  0.00  0.00    +0.000 C 
ATOM     26  O   UNL     1      -4.180  10.142  14.505  0.00  0.00    +0.000 OA
ENDBRANCH   1  26
BRANCH   3  27
ATOM     27  O   UNL     1      -4.688  12.119  18.822  0.00  0.00    +0.000 OA
ATOM     28  C   UNL     1      -6.064  12.122  18.360  0.00  0.00    +0.000 C 
ENDBRANCH   3  27
BRANCH   9  29
ATOM     29  C   UNL     1       0.507  10.832  20.775  0.00  0.00    +0.000 C 
ATOM     30  N   UNL     1       1.146  10.997  21.717  0.00  0.00    +0.000 NA
ENDBRANCH   9  29
TORSDOF 6
ENDMDL
MODEL 7
REMARK VINA RESULT:      -5.9      2.285      5.759
REMARK  Name = 
REMARK  9 active torsions:
REMARK  status: ('A' for Active; 'I' for Inactive)
REMARK    1  A    between atoms: C_1  and  O_2
REMARK    2  A    between atoms: O_2  and  C_3
REMARK    3  A    between atoms: C_5  and  O_6
REMARK    4  A    between atoms: O_6  and  C_7
REMARK    5  A    between atoms: C_12  and  N_13
REMARK    6  A    between atoms: C_14  and  C_15
REMARK    7  A    between atoms: C_17  and  C_18
REMARK    8  A    between atoms: C_20  and  O_21
REMARK    9  A    between atoms: O_21  and  C_22
REMARK                            x       y       z     vdW  Elec       q    Type
REMARK                         _______ _______ _______ _____ _____    ______ ____
ROOT
ATOM      1  C   UNL     1      -3.644  10.569  15.765  0.00  0.00    +0.000 A 
ATOM      2  C   UNL     1      -4.296  11.272  16.732  0.00  0.00    +0.000 A 
ATOM      3  C   UNL     1      -3.779  11.519  18.006  0.00  0.00    +0.000 A 
ATOM      4  C   UNL     1      -2.428  11.139  18.304  0.00  0.00    +0.000 A 
ATOM      5  C   UNL     1      -1.790  10.374  17.307  0.00  0.00    +0.000 A 
ATOM      6  C   UNL     1      -2.384  10.096  16.066  0.00  0.00    +0.000 A 
ATOM      7  O   UNL     1      -0.564   9.768  17.447  0.00  0.00    +0.000 OA
ATOM      8  C   UNL     1       0.146   9.880  18.626  0.00  0.00    +0.000 C 
ATOM      9  C   UNL     1      -0.286  10.642  19.635  0.00  0.00    +0.000 C 
ATOM     10  C   UNL     1      -1.640  11.369  19.609  0.00  0.00    +0.000 C 
ENDROOT
BRANCH  10  11
ATOM     11  C   UNL     1      -1.468  12.838  20.010  0.00  0.00    +0.000 A 
ATOM     12  C   UNL     1      -0.685  13.735  19.241  0.00  0.00    +0.000 A 
ATOM     13  C   UNL     1      -0.714  15.120  19.476  0.00  0.00    +0.000 A 
ATOM     14  C   UNL     1      -1.547  15.581  20.483  0.00  0.00    +0.000 A 
ATOM     15  C   UNL     1      -2.224  14.701  21.298  0.00  0.00    +0.000 A 
ATOM     16  C   UNL     1      -2.159  13.334  21.130  0.00  0.00    +0.000 A 
ATOM     17  O   UNL     1      -3.048  15.326  22.184  0.00  0.00    +0.000 OA
ATOM     18  C   UNL     1      -2.805  16.706  21.856  0.00  0.00    +0.000 C 
ATOM     19  O   UNL     1      -1.870  16.873  20.776  0.00  0.00    +0.000 OA
BRANCH  13  20
ATOM     20  O   UNL     1       0.055  15.861  18.624  0.00  0.00    +0.000 OA
ATOM     21  C   UNL     1       1.372  16.170  19.062  0.00  0.00    +0.000 C 
ENDBRANCH  13  20
ENDBRANCH  10  11
BRANCH   8  22
ATOM     22  N   UNL     1       1.292   9.111  18.612  0.00  0.00    +0.000 N 
ATOM     23  H   UNL     1       1.514   8.682  19.503  0.00  0.00    +0.000 HD
ATOM     24  H   UNL     1       1.447   8.521  17.798  0.00  0.00    +0.000 HD
ENDBRANCH   8  22
BRANCH   1  26
ATOM     25  C   UNL     1      -3.191   9.862  13.564  0.00  0.00    +0.000 C 
ATOM     26  O   UNL     1      -4.172  10.222  14.543  0.00  0.00    +0.000 OA
ENDBRANCH   1  26
BRANCH   3  27
ATOM     27  O   UNL     1      -4.676  12.094  18.907  0.00  0.00    +0.000 OA
ATOM     28  C   UNL     1      -5.997  11.493  18.894  0.00  0.00    +0.000 C 
ENDBRANCH   3  27
BRANCH   9  29
ATOM     29  C   UNL     1       0.526  10.771  20.818  0.00  0.00    +0.000 C 
ATOM     30  N   UNL     1       1.141  10.874  21.785  0.00  0.00    +0.000 NA
ENDBRANCH   9  29
TORSDOF 6
ENDMDL
MODEL 8
REMARK VINA RESULT:      -5.9      2.016      6.492
REMARK  Name = 
REMARK  9 active torsions:
REMARK  status: ('A' for Active; 'I' for Inactive)
REMARK    1  A    between atoms: C_1  and  O_2
REMARK    2  A    between atoms: O_2  and  C_3
REMARK    3  A    between atoms: C_5  and  O_6
REMARK    4  A    between atoms: O_6  and  C_7
REMARK    5  A    between atoms: C_12  and  N_13
REMARK    6  A    between atoms: C_14  and  C_15
REMARK    7  A    between atoms: C_17  and  C_18
REMARK    8  A    between atoms: C_20  and  O_21
REMARK    9  A    between atoms: O_21  and  C_22
REMARK                            x       y       z     vdW  Elec       q    Type
REMARK                         _______ _______ _______ _____ _____    ______ ____
ROOT
ATOM      1  C   UNL     1       1.762   7.913  19.912  0.00  0.00    +0.000 A 
ATOM      2  C   UNL     1       1.254   8.297  21.116  0.00  0.00    +0.000 A 
ATOM      3  C   UNL     1       0.977   9.620  21.465  0.00  0.00    +0.000 A 
ATOM      4  C   UNL     1       1.098  10.650  20.473  0.00  0.00    +0.000 A 
ATOM      5  C   UNL     1       1.668  10.239  19.252  0.00  0.00    +0.000 A 
ATOM      6  C   UNL     1       1.992   8.902  18.977  0.00  0.00    +0.000 A 
ATOM      7  O   UNL     1       2.025  11.085  18.228  0.00  0.00    +0.000 OA
ATOM      8  C   UNL     1       1.837  12.447  18.343  0.00  0.00    +0.000 C 
ATOM      9  C   UNL     1       1.230  12.985  19.405  0.00  0.00    +0.000 C 
ATOM     10  C   UNL     1       0.785  12.154  20.619  0.00  0.00    +0.000 C 
ENDROOT
BRANCH  10  11
ATOM     11  C   UNL     1      -0.666  12.480  20.989  0.00  0.00    +0.000 A 
ATOM     12  C   UNL     1      -1.726  12.320  20.064  0.00  0.00    +0.000 A 
ATOM     13  C   UNL     1      -3.070  12.396  20.468  0.00  0.00    +0.000 A 
ATOM     14  C   UNL     1      -3.322  12.622  21.812  0.00  0.00    +0.000 A 
ATOM     15  C   UNL     1      -2.292  12.884  22.689  0.00  0.00    +0.000 A 
ATOM     16  C   UNL     1      -0.969  12.882  22.303  0.00  0.00    +0.000 A 
ATOM     17  O   UNL     1      -2.715  13.012  23.978  0.00  0.00    +0.000 OA
ATOM     18  C   UNL     1      -4.133  12.824  23.821  0.00  0.00    +0.000 C 
ATOM     19  O   UNL     1      -4.521  12.565  22.460  0.00  0.00    +0.000 OA
BRANCH  13  20
ATOM     20  O   UNL     1      -3.981  12.173  19.474  0.00  0.00    +0.000 OA
ATOM     21  C   UNL     1      -3.488  11.572  18.284  0.00  0.00    +0.000 C 
ENDBRANCH  13  20
ENDBRANCH  10  11
BRANCH   8  22
ATOM     22  N   UNL     1       2.362  13.132  17.266  0.00  0.00    +0.000 N 
ATOM     23  H   UNL     1       3.295  13.498  17.422  0.00  0.00    +0.000 HD
ATOM     24  H   UNL     1       2.202  12.739  16.341  0.00  0.00    +0.000 HD
ENDBRANCH   8  22
BRANCH   1  26
ATOM     25  C   UNL     1       1.849   5.659  20.590  0.00  0.00    +0.000 C 
ATOM     26  O   UNL     1       2.141   6.633  19.582  0.00  0.00    +0.000 OA
ENDBRANCH   1  26
BRANCH   3  27
ATOM     27  O   UNL     1       0.640   9.821  22.803  0.00  0.00    +0.000 OA
ATOM     28  C   UNL     1      -0.709   9.406  23.144  0.00  0.00    +0.000 C 
ENDBRANCH   3  27
BRANCH   9  29
ATOM     29  C   UNL     1       1.006  14.408  19.443  0.00  0.00    +0.000 C 
ATOM     30  N   UNL     1       0.795  15.537  19.497  0.00  0.00    +0.000 NA
ENDBRANCH   9  29
TORSDOF 6
ENDMDL
MODEL 9
REMARK VINA RESULT:      -5.9      2.057      6.614
REMARK  Name = 
REMARK  9 active torsions:
REMARK  status: ('A' for Active; 'I' for Inactive)
REMARK    1  A    between atoms: C_1  and  O_2
REMARK    2  A    between atoms: O_2  and  C_3
REMARK    3  A    between atoms: C_5  and  O_6
REMARK    4  A    between atoms: O_6  and  C_7
REMARK    5  A    between atoms: C_12  and  N_13
REMARK    6  A    between atoms: C_14  and  C_15
REMARK    7  A    between atoms: C_17  and  C_18
REMARK    8  A    between atoms: C_20  and  O_21
REMARK    9  A    between atoms: O_21  and  C_22
REMARK                            x       y       z     vdW  Elec       q    Type
REMARK                         _______ _______ _______ _____ _____    ______ ____
ROOT
ATOM      1  C   UNL     1       1.113   8.260  20.798  0.00  0.00    +0.000 A 
ATOM      2  C   UNL     1       0.529   8.913  21.842  0.00  0.00    +0.000 A 
ATOM      3  C   UNL     1       0.331  10.294  21.892  0.00  0.00    +0.000 A 
ATOM      4  C   UNL     1       0.627  11.090  20.736  0.00  0.00    +0.000 A 
ATOM      5  C   UNL     1       1.272  10.404  19.688  0.00  0.00    +0.000 A 
ATOM      6  C   UNL     1       1.509   9.022  19.718  0.00  0.00    +0.000 A 
ATOM      7  O   UNL     1       1.791  10.999  18.562  0.00  0.00    +0.000 OA
ATOM      8  C   UNL     1       1.706  12.365  18.385  0.00  0.00    +0.000 C 
ATOM      9  C   UNL     1       1.050  13.145  19.250  0.00  0.00    +0.000 C 
ATOM     10  C   UNL     1       0.427  12.608  20.548  0.00  0.00    +0.000 C 
ENDROOT
BRANCH  10  11
ATOM     11  C   UNL     1      -1.019  13.092  20.689  0.00  0.00    +0.000 A 
ATOM     12  C   UNL     1      -2.067  12.553  19.903  0.00  0.00    +0.000 A 
ATOM     13  C   UNL     1      -3.416  12.826  20.190  0.00  0.00    +0.000 A 
ATOM     14  C   UNL     1      -3.685  13.638  21.281  0.00  0.00    +0.000 A 
ATOM     15  C   UNL     1      -2.665  14.247  21.977  0.00  0.00    +0.000 A 
ATOM     16  C   UNL     1      -1.335  14.048  21.672  0.00  0.00    +0.000 A 
ATOM     17  O   UNL     1      -3.107  14.950  23.057  0.00  0.00    +0.000 OA
ATOM     18  C   UNL     1      -4.527  14.737  22.959  0.00  0.00    +0.000 C 
ATOM     19  O   UNL     1      -4.897  13.900  21.849  0.00  0.00    +0.000 OA
BRANCH  13  20
ATOM     20  O   UNL     1      -4.314  12.197  19.376  0.00  0.00    +0.000 OA
ATOM     21  C   UNL     1      -3.778  11.492  18.263  0.00  0.00    +0.000 C 
ENDBRANCH  13  20
ENDBRANCH  10  11
BRANCH   8  22
ATOM     22  N   UNL     1       2.384  12.782  17.258  0.00  0.00    +0.000 N 
ATOM     23  H   UNL     1       3.367  12.977  17.413  0.00  0.00    +0.000 HD
ATOM     24  H   UNL     1       2.171  12.306  16.384  0.00  0.00    +0.000 HD
ENDBRANCH   8  22
BRANCH   1  26
ATOM     25  C   UNL     1       2.358   6.555  19.756  0.00  0.00    +0.000 C 
ATOM     26  O   UNL     1       1.415   6.919  20.769  0.00  0.00    +0.000 OA
ENDBRANCH   1  26
BRANCH   3  27
ATOM     27  O   UNL     1      -0.111  10.784  23.121  0.00  0.00    +0.000 OA
ATOM     28  C   UNL     1      -1.555  10.798  23.269  0.00  0.00    +0.000 C 
ENDBRANCH   3  27
BRANCH   9  29
ATOM     29  C   UNL     1       0.941  14.557  18.982  0.00  0.00    +0.000 C 
ATOM     30  N   UNL     1       0.854  15.691  18.809  0.00  0.00    +0.000 NA
ENDBRANCH   9  29
TORSDOF 6
ENDMDL
