MODEL 1
REMARK VINA RESULT:      -6.6      0.000      0.000
REMARK  Name = 
REMARK  8 active torsions:
REMARK  status: ('A' for Active; 'I' for Inactive)
REMARK    1  A    between atoms: C_1  and  C_2
REMARK    2  A    between atoms: C_2  and  C_3
REMARK    3  A    between atoms: C_2  and  C_4
REMARK    4  A    between atoms: C_4  and  N_5
REMARK    5  A    between atoms: N_14  and  S_15
REMARK    6  A    between atoms: S_15  and  N_18
REMARK    7  A    between atoms: N_18  and  C_19
REMARK    8  A    between atoms: N_18  and  C_20
REMARK                            x       y       z     vdW  Elec       q    Type
REMARK                         _______ _______ _______ _____ _____    ______ ____
ROOT
ATOM      1  N   UNL     1       2.185   5.027  19.108  0.00  0.00    +0.000 NA
ATOM      2  C   UNL     1       1.559   3.805  19.674  0.00  0.00    +0.000 C 
ATOM      3  C   UNL     1       2.501   2.929  20.480  0.00  0.00    +0.000 C 
ATOM      4  S   UNL     1       3.871   2.382  19.495  0.00  0.00    +0.000 S 
ATOM      5  O   UNL     1       3.344   1.480  18.490  0.00  0.00    +0.000 OA
ATOM      6  O   UNL     1       4.894   1.914  20.416  0.00  0.00    +0.000 OA
ATOM      7  C   UNL     1       4.465   3.874  18.673  0.00  0.00    +0.000 C 
ATOM      8  C   UNL     1       5.496   4.610  19.524  0.00  0.00    +0.000 C 
ATOM      9  C   UNL     1       6.009   5.970  19.074  0.00  0.00    +0.000 C 
ATOM     10  N   UNL     1       5.956   6.218  17.628  0.00  0.00    +0.000 NA
ATOM     11  C   UNL     1       4.688   6.662  17.024  0.00  0.00    +0.000 C 
ATOM     12  C   UNL     1       3.586   5.611  16.961  0.00  0.00    +0.000 C 
ATOM     13  C   UNL     1       3.247   4.651  18.131  0.00  0.00    +0.000 C 
ENDROOT
BRANCH  10  14
ATOM     14  S   UNL     1       7.084   5.448  16.654  0.00  0.00    +0.000 S 
ATOM     15  O   UNL     1       7.854   6.449  15.956  0.00  0.00    +0.000 OA
ATOM     16  O   UNL     1       7.708   4.424  17.447  0.00  0.00    +0.000 OA
BRANCH  14  17
ATOM     17  N   UNL     1       6.069   4.690  15.523  0.00  0.00    +0.000 NA
ATOM     18  C   UNL     1       6.397   4.926  14.100  0.00  0.00    +0.000 C 
ATOM     19  C   UNL     1       5.932   3.247  15.822  0.00  0.00    +0.000 C 
ENDBRANCH  14  17
ENDBRANCH  10  14
BRANCH   1  20
ATOM     20  C   UNL     1       2.433   6.006  20.180  0.00  0.00    +0.000 C 
BRANCH  20  22
ATOM     21  C   UNL     1       1.488   8.060  21.397  0.00  0.00    +0.000 C 
ATOM     22  C   UNL     1       1.628   7.299  20.085  0.00  0.00    +0.000 C 
ATOM     23  C   UNL     1       2.080   8.207  18.948  0.00  0.00    +0.000 C 
ENDBRANCH  20  22
ENDBRANCH   1  20
TORSDOF 4
ENDMDL
MODEL 2
REMARK VINA RESULT:      -6.4      1.001      1.356
REMARK  Name = 
REMARK  8 active torsions:
REMARK  status: ('A' for Active; 'I' for Inactive)
REMARK    1  A    between atoms: C_1  and  C_2
REMARK    2  A    between atoms: C_2  and  C_3
REMARK    3  A    between atoms: C_2  and  C_4
REMARK    4  A    between atoms: C_4  and  N_5
REMARK    5  A    between atoms: N_14  and  S_15
REMARK    6  A    between atoms: S_15  and  N_18
REMARK    7  A    between atoms: N_18  and  C_19
REMARK    8  A    between atoms: N_18  and  C_20
REMARK                            x       y       z     vdW  Elec       q    Type
REMARK                         _______ _______ _______ _____ _____    ______ ____
ROOT
ATOM      1  N   UNL     1       2.071   5.495  19.456  0.00  0.00    +0.000 NA
ATOM      2  C   UNL     1       1.321   4.551  20.323  0.00  0.00    +0.000 C 
ATOM      3  C   UNL     1       2.193   3.640  21.167  0.00  0.00    +0.000 C 
ATOM      4  S   UNL     1       3.259   2.649  20.152  0.00  0.00    +0.000 S 
ATOM      5  O   UNL     1       2.416   1.728  19.416  0.00  0.00    +0.000 OA
ATOM      6  O   UNL     1       4.305   2.131  21.017  0.00  0.00    +0.000 OA
ATOM      7  C   UNL     1       3.990   3.816  18.986  0.00  0.00    +0.000 C 
ATOM      8  C   UNL     1       5.264   4.442  19.545  0.00  0.00    +0.000 C 
ATOM      9  C   UNL     1       5.951   5.562  18.777  0.00  0.00    +0.000 C 
ATOM     10  N   UNL     1       5.718   5.568  17.327  0.00  0.00    +0.000 NA
ATOM     11  C   UNL     1       4.479   6.170  16.805  0.00  0.00    +0.000 C 
ATOM     12  C   UNL     1       3.200   5.389  17.083  0.00  0.00    +0.000 C 
ATOM     13  C   UNL     1       2.873   4.737  18.452  0.00  0.00    +0.000 C 
ENDROOT
BRANCH  10  14
ATOM     14  S   UNL     1       6.508   4.419  16.396  0.00  0.00    +0.000 S 
ATOM     15  O   UNL     1       7.905   4.409  16.758  0.00  0.00    +0.000 OA
ATOM     16  O   UNL     1       5.708   3.224  16.420  0.00  0.00    +0.000 OA
BRANCH  14  17
ATOM     17  N   UNL     1       6.375   5.109  14.851  0.00  0.00    +0.000 NA
ATOM     18  C   UNL     1       7.650   5.432  14.175  0.00  0.00    +0.000 C 
ATOM     19  C   UNL     1       5.487   4.299  13.987  0.00  0.00    +0.000 C 
ENDBRANCH  14  17
ENDBRANCH  10  14
BRANCH   1  20
ATOM     20  C   UNL     1       2.670   6.562  20.276  0.00  0.00    +0.000 C 
BRANCH  20  22
ATOM     21  C   UNL     1       1.728   8.330  18.669  0.00  0.00    +0.000 C 
ATOM     22  C   UNL     1       2.045   7.944  20.108  0.00  0.00    +0.000 C 
ATOM     23  C   UNL     1       0.859   8.185  21.035  0.00  0.00    +0.000 C 
ENDBRANCH  20  22
ENDBRANCH   1  20
TORSDOF 4
ENDMDL
MODEL 3
REMARK VINA RESULT:      -5.9      1.769      5.131
REMARK  Name = 
REMARK  8 active torsions:
REMARK  status: ('A' for Active; 'I' for Inactive)
REMARK    1  A    between atoms: C_1  and  C_2
REMARK    2  A    between atoms: C_2  and  C_3
REMARK    3  A    between atoms: C_2  and  C_4
REMARK    4  A    between atoms: C_4  and  N_5
REMARK    5  A    between atoms: N_14  and  S_15
REMARK    6  A    between atoms: S_15  and  N_18
REMARK    7  A    between atoms: N_18  and  C_19
REMARK    8  A    between atoms: N_18  and  C_20
REMARK                            x       y       z     vdW  Elec       q    Type
REMARK                         _______ _______ _______ _____ _____    ______ ____
ROOT
ATOM      1  N   UNL     1       5.424   6.936  17.737  0.00  0.00    +0.000 NA
ATOM      2  C   UNL     1       6.664   7.116  16.941  0.00  0.00    +0.000 C 
ATOM      3  C   UNL     1       6.813   6.151  15.778  0.00  0.00    +0.000 C 
ATOM      4  S   UNL     1       6.814   4.468  16.335  0.00  0.00    +0.000 S 
ATOM      5  O   UNL     1       8.030   4.270  17.099  0.00  0.00    +0.000 OA
ATOM      6  O   UNL     1       6.553   3.636  15.172  0.00  0.00    +0.000 OA
ATOM      7  C   UNL     1       5.407   4.359  17.458  0.00  0.00    +0.000 C 
ATOM      8  C   UNL     1       4.121   4.009  16.713  0.00  0.00    +0.000 C 
ATOM      9  C   UNL     1       2.795   4.016  17.459  0.00  0.00    +0.000 C 
ATOM     10  N   UNL     1       2.881   3.772  18.904  0.00  0.00    +0.000 NA
ATOM     11  C   UNL     1       3.220   4.891  19.799  0.00  0.00    +0.000 C 
ATOM     12  C   UNL     1       4.660   5.385  19.719  0.00  0.00    +0.000 C 
ATOM     13  C   UNL     1       5.424   5.592  18.385  0.00  0.00    +0.000 C 
ENDROOT
BRANCH  10  14
ATOM     14  S   UNL     1       3.188   2.207  19.423  0.00  0.00    +0.000 S 
ATOM     15  O   UNL     1       3.265   1.343  18.269  0.00  0.00    +0.000 OA
ATOM     16  O   UNL     1       4.246   2.276  20.394  0.00  0.00    +0.000 OA
BRANCH  14  17
ATOM     17  N   UNL     1       1.745   1.852  20.245  0.00  0.00    +0.000 NA
ATOM     18  C   UNL     1       1.622   2.414  21.607  0.00  0.00    +0.000 C 
ATOM     19  C   UNL     1       0.568   2.179  19.409  0.00  0.00    +0.000 C 
ENDBRANCH  14  17
ENDBRANCH  10  14
BRANCH   1  20
ATOM     20  C   UNL     1       4.262   7.425  16.976  0.00  0.00    +0.000 C 
BRANCH  20  22
ATOM     21  C   UNL     1       2.845   9.432  17.722  0.00  0.00    +0.000 C 
ATOM     22  C   UNL     1       3.095   7.933  17.817  0.00  0.00    +0.000 C 
ATOM     23  C   UNL     1       1.815   7.130  17.616  0.00  0.00    +0.000 C 
ENDBRANCH  20  22
ENDBRANCH   1  20
TORSDOF 4
ENDMDL
MODEL 4
REMARK VINA RESULT:      -5.8      1.162      1.391
REMARK  Name = 
REMARK  8 active torsions:
REMARK  status: ('A' for Active; 'I' for Inactive)
REMARK    1  A    between atoms: C_1  and  C_2
REMARK    2  A    between atoms: C_2  and  C_3
REMARK    3  A    between atoms: C_2  and  C_4
REMARK    4  A    between atoms: C_4  and  N_5
REMARK    5  A    between atoms: N_14  and  S_15
REMARK    6  A    between atoms: S_15  and  N_18
REMARK    7  A    between atoms: N_18  and  C_19
REMARK    8  A    between atoms: N_18  and  C_20
REMARK                            x       y       z     vdW  Elec       q    Type
REMARK                         _______ _______ _______ _____ _____    ______ ____
ROOT
ATOM      1  N   UNL     1       1.861   5.149  19.408  0.00  0.00    +0.000 NA
ATOM      2  C   UNL     1       1.085   4.128  20.156  0.00  0.00    +0.000 C 
ATOM      3  C   UNL     1       1.910   3.281  21.109  0.00  0.00    +0.000 C 
ATOM      4  S   UNL     1       3.190   2.407  20.247  0.00  0.00    +0.000 S 
ATOM      5  O   UNL     1       2.543   1.429  19.395  0.00  0.00    +0.000 OA
ATOM      6  O   UNL     1       4.149   1.966  21.247  0.00  0.00    +0.000 OA
ATOM      7  C   UNL     1       3.968   3.654  19.201  0.00  0.00    +0.000 C 
ATOM      8  C   UNL     1       5.092   4.379  19.936  0.00  0.00    +0.000 C 
ATOM      9  C   UNL     1       5.776   5.569  19.278  0.00  0.00    +0.000 C 
ATOM     10  N   UNL     1       5.746   5.581  17.810  0.00  0.00    +0.000 NA
ATOM     11  C   UNL     1       4.543   6.081  17.123  0.00  0.00    +0.000 C 
ATOM     12  C   UNL     1       3.313   5.187  17.216  0.00  0.00    +0.000 C 
ATOM     13  C   UNL     1       2.859   4.483  18.522  0.00  0.00    +0.000 C 
ENDROOT
BRANCH  10  14
ATOM     14  S   UNL     1       6.757   4.522  16.992  0.00  0.00    +0.000 S 
ATOM     15  O   UNL     1       7.778   4.060  17.901  0.00  0.00    +0.000 OA
ATOM     16  O   UNL     1       5.921   3.610  16.260  0.00  0.00    +0.000 OA
BRANCH  14  17
ATOM     17  N   UNL     1       7.489   5.573  15.877  0.00  0.00    +0.000 NA
ATOM     18  C   UNL     1       7.029   5.452  14.476  0.00  0.00    +0.000 C 
ATOM     19  C   UNL     1       7.430   6.972  16.354  0.00  0.00    +0.000 C 
ENDBRANCH  14  17
ENDBRANCH  10  14
BRANCH   1  20
ATOM     20  C   UNL     1       2.242   6.250  20.310  0.00  0.00    +0.000 C 
BRANCH  20  22
ATOM     21  C   UNL     1       1.381   8.457  21.298  0.00  0.00    +0.000 C 
ATOM     22  C   UNL     1       1.525   7.574  20.065  0.00  0.00    +0.000 C 
ATOM     23  C   UNL     1       2.078   8.348  18.874  0.00  0.00    +0.000 C 
ENDBRANCH  20  22
ENDBRANCH   1  20
TORSDOF 4
ENDMDL
MODEL 5
REMARK VINA RESULT:      -5.8      2.177      4.931
REMARK  Name = 
REMARK  8 active torsions:
REMARK  status: ('A' for Active; 'I' for Inactive)
REMARK    1  A    between atoms: C_1  and  C_2
REMARK    2  A    between atoms: C_2  and  C_3
REMARK    3  A    between atoms: C_2  and  C_4
REMARK    4  A    between atoms: C_4  and  N_5
REMARK    5  A    between atoms: N_14  and  S_15
REMARK    6  A    between atoms: S_15  and  N_18
REMARK    7  A    between atoms: N_18  and  C_19
REMARK    8  A    between atoms: N_18  and  C_20
REMARK                            x       y       z     vdW  Elec       q    Type
REMARK                         _______ _______ _______ _____ _____    ______ ____
ROOT
ATOM      1  N   UNL     1       3.701   7.213  18.251  0.00  0.00    +0.000 NA
ATOM      2  C   UNL     1       4.903   7.479  17.421  0.00  0.00    +0.000 C 
ATOM      3  C   UNL     1       5.067   6.550  16.232  0.00  0.00    +0.000 C 
ATOM      4  S   UNL     1       5.179   4.857  16.749  0.00  0.00    +0.000 S 
ATOM      5  O   UNL     1       6.427   4.710  17.470  0.00  0.00    +0.000 OA
ATOM      6  O   UNL     1       4.926   4.038  15.576  0.00  0.00    +0.000 OA
ATOM      7  C   UNL     1       3.816   4.646  17.913  0.00  0.00    +0.000 C 
ATOM      8  C   UNL     1       2.528   4.242  17.200  0.00  0.00    +0.000 C 
ATOM      9  C   UNL     1       1.228   4.159  17.987  0.00  0.00    +0.000 C 
ATOM     10  N   UNL     1       1.375   3.889  19.422  0.00  0.00    +0.000 NA
ATOM     11  C   UNL     1       1.681   5.006  20.332  0.00  0.00    +0.000 C 
ATOM     12  C   UNL     1       3.088   5.580  20.219  0.00  0.00    +0.000 C 
ATOM     13  C   UNL     1       3.797   5.858  18.867  0.00  0.00    +0.000 C 
ENDROOT
BRANCH  10  14
ATOM     14  S   UNL     1       1.783   2.333  19.894  0.00  0.00    +0.000 S 
ATOM     15  O   UNL     1       1.670   2.239  21.331  0.00  0.00    +0.000 OA
ATOM     16  O   UNL     1       1.098   1.423  19.017  0.00  0.00    +0.000 OA
BRANCH  14  17
ATOM     17  N   UNL     1       3.434   2.298  19.499  0.00  0.00    +0.000 NA
ATOM     18  C   UNL     1       4.371   2.226  20.642  0.00  0.00    +0.000 C 
ATOM     19  C   UNL     1       3.714   1.248  18.495  0.00  0.00    +0.000 C 
ENDBRANCH  14  17
ENDBRANCH  10  14
BRANCH   1  20
ATOM     20  C   UNL     1       2.491   7.654  17.538  0.00  0.00    +0.000 C 
BRANCH  20  22
ATOM     21  C   UNL     1       1.530   8.627  19.711  0.00  0.00    +0.000 C 
ATOM     22  C   UNL     1       1.711   8.782  18.207  0.00  0.00    +0.000 C 
ATOM     23  C   UNL     1       2.222  10.169  17.837  0.00  0.00    +0.000 C 
ENDBRANCH  20  22
ENDBRANCH   1  20
TORSDOF 4
ENDMDL
MODEL 6
REMARK VINA RESULT:      -5.7      1.637      1.981
REMARK  Name = 
REMARK  8 active torsions:
REMARK  status: ('A' for Active; 'I' for Inactive)
REMARK    1  A    between atoms: C_1  and  C_2
REMARK    2  A    between atoms: C_2  and  C_3
REMARK    3  A    between atoms: C_2  and  C_4
REMARK    4  A    between atoms: C_4  and  N_5
REMARK    5  A    between atoms: N_14  and  S_15
REMARK    6  A    between atoms: S_15  and  N_18
REMARK    7  A    between atoms: N_18  and  C_19
REMARK    8  A    between atoms: N_18  and  C_20
REMARK                            x       y       z     vdW  Elec       q    Type
REMARK                         _______ _______ _______ _____ _____    ______ ____
ROOT
ATOM      1  N   UNL     1       1.481   5.532  19.921  0.00  0.00    +0.000 NA
ATOM      2  C   UNL     1       0.863   4.374  20.615  0.00  0.00    +0.000 C 
ATOM      3  C   UNL     1       1.856   3.377  21.186  0.00  0.00    +0.000 C 
ATOM      4  S   UNL     1       2.894   2.705  19.915  0.00  0.00    +0.000 S 
ATOM      5  O   UNL     1       2.053   1.895  19.057  0.00  0.00    +0.000 OA
ATOM      6  O   UNL     1       4.038   2.101  20.579  0.00  0.00    +0.000 OA
ATOM      7  C   UNL     1       3.455   4.141  18.978  0.00  0.00    +0.000 C 
ATOM      8  C   UNL     1       4.729   4.735  19.572  0.00  0.00    +0.000 C 
ATOM      9  C   UNL     1       5.281   6.040  19.015  0.00  0.00    +0.000 C 
ATOM     10  N   UNL     1       4.931   6.329  17.619  0.00  0.00    +0.000 NA
ATOM     11  C   UNL     1       3.619   6.928  17.320  0.00  0.00    +0.000 C 
ATOM     12  C   UNL     1       2.418   6.010  17.510  0.00  0.00    +0.000 C 
ATOM     13  C   UNL     1       2.244   5.064  18.728  0.00  0.00    +0.000 C 
ENDROOT
BRANCH  10  14
ATOM     14  S   UNL     1       5.712   5.462  16.415  0.00  0.00    +0.000 S 
ATOM     15  O   UNL     1       5.420   4.059  16.589  0.00  0.00    +0.000 OA
ATOM     16  O   UNL     1       5.468   6.141  15.171  0.00  0.00    +0.000 OA
BRANCH  14  17
ATOM     17  N   UNL     1       7.336   5.712  16.839  0.00  0.00    +0.000 NA
ATOM     18  C   UNL     1       7.653   7.027  17.440  0.00  0.00    +0.000 C 
ATOM     19  C   UNL     1       7.842   4.595  17.669  0.00  0.00    +0.000 C 
ENDBRANCH  14  17
ENDBRANCH  10  14
BRANCH   1  20
ATOM     20  C   UNL     1       2.076   6.449  20.907  0.00  0.00    +0.000 C 
BRANCH  20  22
ATOM     21  C   UNL     1       1.541   8.604  19.619  0.00  0.00    +0.000 C 
ATOM     22  C   UNL     1       1.478   7.852  20.942  0.00  0.00    +0.000 C 
ATOM     23  C   UNL     1       0.083   7.897  21.554  0.00  0.00    +0.000 C 
ENDBRANCH  20  22
ENDBRANCH   1  20
TORSDOF 4
ENDMDL
MODEL 7
REMARK VINA RESULT:      -5.6      1.628      1.969
REMARK  Name = 
REMARK  8 active torsions:
REMARK  status: ('A' for Active; 'I' for Inactive)
REMARK    1  A    between atoms: C_1  and  C_2
REMARK    2  A    between atoms: C_2  and  C_3
REMARK    3  A    between atoms: C_2  and  C_4
REMARK    4  A    between atoms: C_4  and  N_5
REMARK    5  A    between atoms: N_14  and  S_15
REMARK    6  A    between atoms: S_15  and  N_18
REMARK    7  A    between atoms: N_18  and  C_19
REMARK    8  A    between atoms: N_18  and  C_20
REMARK                            x       y       z     vdW  Elec       q    Type
REMARK                         _______ _______ _______ _____ _____    ______ ____
ROOT
ATOM      1  N   UNL     1       1.290   4.750  20.043  0.00  0.00    +0.000 NA
ATOM      2  C   UNL     1       1.048   3.473  20.762  0.00  0.00    +0.000 C 
ATOM      3  C   UNL     1       2.299   2.807  21.303  0.00  0.00    +0.000 C 
ATOM      4  S   UNL     1       3.446   2.439  20.001  0.00  0.00    +0.000 S 
ATOM      5  O   UNL     1       2.842   1.411  19.176  0.00  0.00    +0.000 OA
ATOM      6  O   UNL     1       4.734   2.192  20.628  0.00  0.00    +0.000 OA
ATOM      7  C   UNL     1       3.547   3.961  19.039  0.00  0.00    +0.000 C 
ATOM      8  C   UNL     1       4.619   4.900  19.587  0.00  0.00    +0.000 C 
ATOM      9  C   UNL     1       4.760   6.300  19.007  0.00  0.00    +0.000 C 
ATOM     10  N   UNL     1       4.299   6.459  17.622  0.00  0.00    +0.000 NA
ATOM     11  C   UNL     1       2.863   6.658  17.365  0.00  0.00    +0.000 C 
ATOM     12  C   UNL     1       1.977   5.440  17.600  0.00  0.00    +0.000 C 
ATOM     13  C   UNL     1       2.117   4.500  18.827  0.00  0.00    +0.000 C 
ENDROOT
BRANCH  10  14
ATOM     14  S   UNL     1       5.255   5.832  16.395  0.00  0.00    +0.000 S 
ATOM     15  O   UNL     1       4.816   4.488  16.105  0.00  0.00    +0.000 OA
ATOM     16  O   UNL     1       5.355   6.838  15.372  0.00  0.00    +0.000 OA
BRANCH  14  17
ATOM     17  N   UNL     1       6.758   5.730  17.178  0.00  0.00    +0.000 NA
ATOM     18  C   UNL     1       7.577   4.542  16.854  0.00  0.00    +0.000 C 
ATOM     19  C   UNL     1       7.525   6.985  17.012  0.00  0.00    +0.000 C 
ENDBRANCH  14  17
ENDBRANCH  10  14
BRANCH   1  20
ATOM     20  C   UNL     1       1.632   5.811  21.004  0.00  0.00    +0.000 C 
BRANCH  20  22
ATOM     21  C   UNL     1       0.213   7.763  21.881  0.00  0.00    +0.000 C 
ATOM     22  C   UNL     1       1.009   7.175  20.723  0.00  0.00    +0.000 C 
ATOM     23  C   UNL     1       1.997   8.181  20.145  0.00  0.00    +0.000 C 
ENDBRANCH  20  22
ENDBRANCH   1  20
TORSDOF 4
ENDMDL
MODEL 8
REMARK VINA RESULT:      -5.4      9.530     12.565
REMARK  Name = 
REMARK  8 active torsions:
REMARK  status: ('A' for Active; 'I' for Inactive)
REMARK    1  A    between atoms: C_1  and  C_2
REMARK    2  A    between atoms: C_2  and  C_3
REMARK    3  A    between atoms: C_2  and  C_4
REMARK    4  A    between atoms: C_4  and  N_5
REMARK    5  A    between atoms: N_14  and  S_15
REMARK    6  A    between atoms: S_15  and  N_18
REMARK    7  A    between atoms: N_18  and  C_19
REMARK    8  A    between atoms: N_18  and  C_20
REMARK                            x       y       z     vdW  Elec       q    Type
REMARK                         _______ _______ _______ _____ _____    ______ ____
ROOT
ATOM      1  N   UNL     1      -1.316  12.898  19.332  0.00  0.00    +0.000 NA
ATOM      2  C   UNL     1      -0.118  13.665  18.908  0.00  0.00    +0.000 C 
ATOM      3  C   UNL     1       0.922  13.864  19.995  0.00  0.00    +0.000 C 
ATOM      4  S   UNL     1       0.240  14.726  21.387  0.00  0.00    +0.000 S 
ATOM      5  O   UNL     1      -0.059  16.076  20.951  0.00  0.00    +0.000 OA
ATOM      6  O   UNL     1       1.149  14.516  22.502  0.00  0.00    +0.000 OA
ATOM      7  C   UNL     1      -1.314  13.878  21.732  0.00  0.00    +0.000 C 
ATOM      8  C   UNL     1      -1.111  12.702  22.683  0.00  0.00    +0.000 C 
ATOM      9  C   UNL     1      -2.274  11.767  22.982  0.00  0.00    +0.000 C 
ATOM     10  N   UNL     1      -3.611  12.356  22.836  0.00  0.00    +0.000 NA
ATOM     11  C   UNL     1      -4.214  12.437  21.495  0.00  0.00    +0.000 C 
ATOM     12  C   UNL     1      -3.581  13.451  20.549  0.00  0.00    +0.000 C 
ATOM     13  C   UNL     1      -2.049  13.643  20.396  0.00  0.00    +0.000 C 
ENDROOT
BRANCH  10  14
ATOM     14  S   UNL     1      -4.137  13.421  24.019  0.00  0.00    +0.000 S 
ATOM     15  O   UNL     1      -4.173  12.727  25.285  0.00  0.00    +0.000 OA
ATOM     16  O   UNL     1      -3.410  14.649  23.846  0.00  0.00    +0.000 OA
BRANCH  14  17
ATOM     17  N   UNL     1      -5.740  13.686  23.525  0.00  0.00    +0.000 NA
ATOM     18  C   UNL     1      -6.759  12.806  24.138  0.00  0.00    +0.000 C 
ATOM     19  C   UNL     1      -6.101  15.115  23.655  0.00  0.00    +0.000 C 
ENDBRANCH  14  17
ENDBRANCH  10  14
BRANCH   1  20
ATOM     20  C   UNL     1      -0.973  11.474  19.484  0.00  0.00    +0.000 C 
BRANCH  20  22
ATOM     21  C   UNL     1       0.489   9.765  18.246  0.00  0.00    +0.000 C 
ATOM     22  C   UNL     1      -0.690  10.726  18.185  0.00  0.00    +0.000 C 
ATOM     23  C   UNL     1      -1.928  10.068  17.587  0.00  0.00    +0.000 C 
ENDBRANCH  20  22
ENDBRANCH   1  20
TORSDOF 4
ENDMDL
MODEL 9
REMARK VINA RESULT:      -5.3      9.386     12.119
REMARK  Name = 
REMARK  8 active torsions:
REMARK  status: ('A' for Active; 'I' for Inactive)
REMARK    1  A    between atoms: C_1  and  C_2
REMARK    2  A    between atoms: C_2  and  C_3
REMARK    3  A    between atoms: C_2  and  C_4
REMARK    4  A    between atoms: C_4  and  N_5
REMARK    5  A    between atoms: N_14  and  S_15
REMARK    6  A    between atoms: S_15  and  N_18
REMARK    7  A    between atoms: N_18  and  C_19
REMARK    8  A    between atoms: N_18  and  C_20
REMARK                            x       y       z     vdW  Elec       q    Type
REMARK                         _______ _______ _______ _____ _____    ______ ____
ROOT
ATOM      1  N   UNL     1      -1.656  12.624  19.300  0.00  0.00    +0.000 NA
ATOM      2  C   UNL     1      -0.507  11.814  18.820  0.00  0.00    +0.000 C 
ATOM      3  C   UNL     1      -0.023  10.763  19.802  0.00  0.00    +0.000 C 
ATOM      4  S   UNL     1       0.487  11.500  21.333  0.00  0.00    +0.000 S 
ATOM      5  O   UNL     1       1.676  12.282  21.058  0.00  0.00    +0.000 OA
ATOM      6  O   UNL     1       0.541  10.433  22.319  0.00  0.00    +0.000 OA
ATOM      7  C   UNL     1      -0.854  12.626  21.765  0.00  0.00    +0.000 C 
ATOM      8  C   UNL     1      -1.938  11.922  22.577  0.00  0.00    +0.000 C 
ATOM      9  C   UNL     1      -3.225  12.661  22.912  0.00  0.00    +0.000 C 
ATOM     10  N   UNL     1      -3.118  14.124  22.967  0.00  0.00    +0.000 NA
ATOM     11  C   UNL     1      -3.179  14.893  21.712  0.00  0.00    +0.000 C 
ATOM     12  C   UNL     1      -1.964  14.762  20.801  0.00  0.00    +0.000 C 
ATOM     13  C   UNL     1      -1.257  13.414  20.501  0.00  0.00    +0.000 C 
ENDROOT
BRANCH  10  14
ATOM     14  S   UNL     1      -2.355  14.810  24.293  0.00  0.00    +0.000 S 
ATOM     15  O   UNL     1      -3.047  14.398  25.491  0.00  0.00    +0.000 OA
ATOM     16  O   UNL     1      -0.940  14.611  24.126  0.00  0.00    +0.000 OA
BRANCH  14  17
ATOM     17  N   UNL     1      -2.686  16.456  24.040  0.00  0.00    +0.000 NA
ATOM     18  C   UNL     1      -3.729  17.046  24.909  0.00  0.00    +0.000 C 
ATOM     19  C   UNL     1      -1.440  17.254  24.062  0.00  0.00    +0.000 C 
ENDBRANCH  14  17
ENDBRANCH  10  14
BRANCH   1  20
ATOM     20  C   UNL     1      -2.885  11.813  19.282  0.00  0.00    +0.000 C 
BRANCH  20  22
ATOM     21  C   UNL     1      -3.160   9.916  17.575  0.00  0.00    +0.000 C 
ATOM     22  C   UNL     1      -3.370  11.389  17.900  0.00  0.00    +0.000 C 
ATOM     23  C   UNL     1      -4.794  11.840  17.596  0.00  0.00    +0.000 C 
ENDBRANCH  20  22
ENDBRANCH   1  20
TORSDOF 4
ENDMDL
