MODEL 1
REMARK VINA RESULT:      -7.7      0.000      0.000
REMARK  Name = 
REMARK  8 active torsions:
REMARK  status: ('A' for Active; 'I' for Inactive)
REMARK    1  A    between atoms: C_1  and  C_2
REMARK    2  A    between atoms: C_2  and  O_3
REMARK    3  A    between atoms: C_2  and  C_15
REMARK    4  A    between atoms: O_3  and  C_4
REMARK    5  A    between atoms: C_4  and  C_6
REMARK    6  A    between atoms: N_13  and  C_14
REMARK    7  A    between atoms: N_17  and  C_18
REMARK    8  A    between atoms: C_18  and  C_19
REMARK                            x       y       z     vdW  Elec       q    Type
REMARK                         _______ _______ _______ _____ _____    ______ ____
ROOT
ATOM      1  C   UNL     1       7.632   8.420  17.698  0.00  0.00    +0.000 C 
ATOM      2  C   UNL     1       7.229   7.027  17.226  0.00  0.00    +0.000 C 
ENDROOT
BRANCH   2   3
ATOM      3  C   UNL     1       5.793   7.030  16.660  0.00  0.00    +0.000 C 
ATOM      4  O   UNL     1       5.542   6.868  15.467  0.00  0.00    +0.000 OA
ATOM      5  N   UNL     1       4.802   7.275  17.593  0.00  0.00    +0.000 N 
ATOM      6  H   UNL     1       5.036   7.356  18.572  0.00  0.00    +0.000 HD
BRANCH   5   7
ATOM      7  C   UNL     1       3.399   7.256  17.241  0.00  0.00    +0.000 C 
BRANCH   7   8
ATOM      8  C   UNL     1       2.548   7.905  18.304  0.00  0.00    +0.000 A 
ATOM      9  C   UNL     1       1.919   9.139  18.076  0.00  0.00    +0.000 A 
ATOM     10  C   UNL     1       1.126   9.721  19.068  0.00  0.00    +0.000 A 
ATOM     11  C   UNL     1       0.968   9.078  20.289  0.00  0.00    +0.000 A 
ATOM     12  F   UNL     1       0.202   9.637  21.234  0.00  0.00    +0.000 F 
ATOM     13  C   UNL     1       1.593   7.863  20.542  0.00  0.00    +0.000 A 
ATOM     14  C   UNL     1       2.386   7.280  19.553  0.00  0.00    +0.000 A 
ENDBRANCH   7   8
ENDBRANCH   5   7
ENDBRANCH   2   3
BRANCH   2  15
ATOM     15  O   UNL     1       7.285   6.118  18.338  0.00  0.00    +0.000 OA
BRANCH  15  16
ATOM     16  C   UNL     1       7.247   4.793  18.038  0.00  0.00    +0.000 C 
ATOM     17  O   UNL     1       8.219   4.134  17.693  0.00  0.00    +0.000 OA
BRANCH  16  18
ATOM     18  C   UNL     1       5.900   4.278  18.225  0.00  0.00    +0.000 A 
ATOM     19  C   UNL     1       5.152   4.241  19.397  0.00  0.00    +0.000 A 
ATOM     20  C   UNL     1       3.919   3.608  19.078  0.00  0.00    +0.000 A 
ATOM     21  S   UNL     1       2.451   3.126  19.861  0.00  0.00    +0.000 S 
ATOM     22  C   UNL     1       1.879   2.472  18.378  0.00  0.00    +0.000 A 
ATOM     23  C   UNL     1       2.747   2.630  17.318  0.00  0.00    +0.000 A 
ATOM     24  C   UNL     1       3.931   3.291  17.754  0.00  0.00    +0.000 A 
ATOM     25  N   UNL     1       5.129   3.716  17.220  0.00  0.00    +0.000 N 
ATOM     26  C   UNL     1       5.490   3.550  15.833  0.00  0.00    +0.000 C 
ENDBRANCH  16  18
ENDBRANCH  15  16
ENDBRANCH   2  15
TORSDOF 6
ENDMDL
MODEL 2
REMARK VINA RESULT:      -7.4      2.851      4.379
REMARK  Name = 
REMARK  8 active torsions:
REMARK  status: ('A' for Active; 'I' for Inactive)
REMARK    1  A    between atoms: C_1  and  C_2
REMARK    2  A    between atoms: C_2  and  O_3
REMARK    3  A    between atoms: C_2  and  C_15
REMARK    4  A    between atoms: O_3  and  C_4
REMARK    5  A    between atoms: C_4  and  C_6
REMARK    6  A    between atoms: N_13  and  C_14
REMARK    7  A    between atoms: N_17  and  C_18
REMARK    8  A    between atoms: C_18  and  C_19
REMARK                            x       y       z     vdW  Elec       q    Type
REMARK                         _______ _______ _______ _____ _____    ______ ____
ROOT
ATOM      1  C   UNL     1       1.121   3.974  20.908  0.00  0.00    +0.000 C 
ATOM      2  C   UNL     1       2.418   4.452  20.261  0.00  0.00    +0.000 C 
ENDROOT
BRANCH   2   3
ATOM      3  C   UNL     1       2.205   5.790  19.524  0.00  0.00    +0.000 C 
ATOM      4  O   UNL     1       2.164   5.881  18.299  0.00  0.00    +0.000 OA
ATOM      5  N   UNL     1       2.108   6.897  20.347  0.00  0.00    +0.000 N 
ATOM      6  H   UNL     1       2.097   6.784  21.350  0.00  0.00    +0.000 HD
BRANCH   5   7
ATOM      7  C   UNL     1       1.850   8.220  19.822  0.00  0.00    +0.000 C 
BRANCH   7   8
ATOM      8  C   UNL     1       1.000   9.038  20.761  0.00  0.00    +0.000 A 
ATOM      9  C   UNL     1       0.812  10.415  20.557  0.00  0.00    +0.000 A 
ATOM     10  C   UNL     1       0.013  11.155  21.432  0.00  0.00    +0.000 A 
ATOM     11  C   UNL     1      -0.590  10.526  22.514  0.00  0.00    +0.000 A 
ATOM     12  F   UNL     1      -1.360  11.239  23.346  0.00  0.00    +0.000 F 
ATOM     13  C   UNL     1      -0.406   9.169  22.744  0.00  0.00    +0.000 A 
ATOM     14  C   UNL     1       0.393   8.427  21.872  0.00  0.00    +0.000 A 
ENDBRANCH   7   8
ENDBRANCH   5   7
ENDBRANCH   2   3
BRANCH   2  15
ATOM     15  O   UNL     1       2.862   3.466  19.313  0.00  0.00    +0.000 OA
BRANCH  15  16
ATOM     16  C   UNL     1       4.186   3.159  19.337  0.00  0.00    +0.000 C 
ATOM     17  O   UNL     1       4.736   2.542  20.241  0.00  0.00    +0.000 OA
BRANCH  16  18
ATOM     18  C   UNL     1       4.830   3.633  18.123  0.00  0.00    +0.000 A 
ATOM     19  C   UNL     1       4.582   3.242  16.812  0.00  0.00    +0.000 A 
ATOM     20  C   UNL     1       5.493   3.959  15.989  0.00  0.00    +0.000 A 
ATOM     21  S   UNL     1       5.918   4.099  14.316  0.00  0.00    +0.000 S 
ATOM     22  C   UNL     1       7.143   5.234  14.726  0.00  0.00    +0.000 A 
ATOM     23  C   UNL     1       7.219   5.522  16.073  0.00  0.00    +0.000 A 
ATOM     24  C   UNL     1       6.249   4.762  16.787  0.00  0.00    +0.000 A 
ATOM     25  N   UNL     1       5.836   4.586  18.091  0.00  0.00    +0.000 N 
ATOM     26  C   UNL     1       6.415   5.283  19.215  0.00  0.00    +0.000 C 
ENDBRANCH  16  18
ENDBRANCH  15  16
ENDBRANCH   2  15
TORSDOF 6
ENDMDL
MODEL 3
REMARK VINA RESULT:      -7.3      3.373      6.454
REMARK  Name = 
REMARK  8 active torsions:
REMARK  status: ('A' for Active; 'I' for Inactive)
REMARK    1  A    between atoms: C_1  and  C_2
REMARK    2  A    between atoms: C_2  and  O_3
REMARK    3  A    between atoms: C_2  and  C_15
REMARK    4  A    between atoms: O_3  and  C_4
REMARK    5  A    between atoms: C_4  and  C_6
REMARK    6  A    between atoms: N_13  and  C_14
REMARK    7  A    between atoms: N_17  and  C_18
REMARK    8  A    between atoms: C_18  and  C_19
REMARK                            x       y       z     vdW  Elec       q    Type
REMARK                         _______ _______ _______ _____ _____    ______ ____
ROOT
ATOM      1  C   UNL     1       1.854   2.649  20.753  0.00  0.00    +0.000 C 
ATOM      2  C   UNL     1       1.048   3.555  19.827  0.00  0.00    +0.000 C 
ENDROOT
BRANCH   2   3
ATOM      3  C   UNL     1       1.733   3.688  18.452  0.00  0.00    +0.000 C 
ATOM      4  O   UNL     1       1.185   4.195  17.476  0.00  0.00    +0.000 OA
ATOM      5  N   UNL     1       3.006   3.150  18.383  0.00  0.00    +0.000 N 
ATOM      6  H   UNL     1       3.447   2.784  19.215  0.00  0.00    +0.000 HD
BRANCH   5   7
ATOM      7  C   UNL     1       3.811   3.241  17.185  0.00  0.00    +0.000 C 
BRANCH   7   8
ATOM      8  C   UNL     1       4.894   4.283  17.317  0.00  0.00    +0.000 A 
ATOM      9  C   UNL     1       5.655   4.392  18.492  0.00  0.00    +0.000 A 
ATOM     10  C   UNL     1       6.661   5.357  18.594  0.00  0.00    +0.000 A 
ATOM     11  C   UNL     1       6.901   6.217  17.530  0.00  0.00    +0.000 A 
ATOM     12  F   UNL     1       7.870   7.136  17.630  0.00  0.00    +0.000 F 
ATOM     13  C   UNL     1       6.149   6.138  16.364  0.00  0.00    +0.000 A 
ATOM     14  C   UNL     1       5.143   5.176  16.260  0.00  0.00    +0.000 A 
ENDBRANCH   7   8
ENDBRANCH   5   7
ENDBRANCH   2   3
BRANCH   2  15
ATOM     15  O   UNL     1       0.943   4.861  20.421  0.00  0.00    +0.000 OA
BRANCH  15  16
ATOM     16  C   UNL     1       2.079   5.608  20.441  0.00  0.00    +0.000 C 
ATOM     17  O   UNL     1       3.205   5.149  20.580  0.00  0.00    +0.000 OA
BRANCH  16  18
ATOM     18  C   UNL     1       1.757   7.010  20.235  0.00  0.00    +0.000 A 
ATOM     19  C   UNL     1       1.094   7.874  21.101  0.00  0.00    +0.000 A 
ATOM     20  C   UNL     1       0.986   9.124  20.432  0.00  0.00    +0.000 A 
ATOM     21  S   UNL     1       0.330  10.704  20.703  0.00  0.00    +0.000 S 
ATOM     22  C   UNL     1       0.848  11.184  19.136  0.00  0.00    +0.000 A 
ATOM     23  C   UNL     1       1.516  10.201  18.435  0.00  0.00    +0.000 A 
ATOM     24  C   UNL     1       1.579   9.009  19.212  0.00  0.00    +0.000 A 
ATOM     25  N   UNL     1       2.072   7.727  19.091  0.00  0.00    +0.000 N 
ATOM     26  C   UNL     1       2.771   7.245  17.924  0.00  0.00    +0.000 C 
ENDBRANCH  16  18
ENDBRANCH  15  16
ENDBRANCH   2  15
TORSDOF 6
ENDMDL
MODEL 4
REMARK VINA RESULT:      -7.2      5.583      9.154
REMARK  Name = 
REMARK  8 active torsions:
REMARK  status: ('A' for Active; 'I' for Inactive)
REMARK    1  A    between atoms: C_1  and  C_2
REMARK    2  A    between atoms: C_2  and  O_3
REMARK    3  A    between atoms: C_2  and  C_15
REMARK    4  A    between atoms: O_3  and  C_4
REMARK    5  A    between atoms: C_4  and  C_6
REMARK    6  A    between atoms: N_13  and  C_14
REMARK    7  A    between atoms: N_17  and  C_18
REMARK    8  A    between atoms: C_18  and  C_19
REMARK                            x       y       z     vdW  Elec       q    Type
REMARK                         _______ _______ _______ _____ _____    ______ ____
ROOT
ATOM      1  C   UNL     1       0.217   8.903  22.493  0.00  0.00    +0.000 C 
ATOM      2  C   UNL     1       0.342   9.752  21.232  0.00  0.00    +0.000 C 
ENDROOT
BRANCH   2   3
ATOM      3  C   UNL     1       1.171   9.021  20.155  0.00  0.00    +0.000 C 
ATOM      4  O   UNL     1       1.270   9.423  18.998  0.00  0.00    +0.000 OA
ATOM      5  N   UNL     1       1.766   7.846  20.579  0.00  0.00    +0.000 N 
ATOM      6  H   UNL     1       1.706   7.569  21.548  0.00  0.00    +0.000 HD
BRANCH   5   7
ATOM      7  C   UNL     1       2.624   7.068  19.713  0.00  0.00    +0.000 C 
BRANCH   7   8
ATOM      8  C   UNL     1       2.065   5.690  19.464  0.00  0.00    +0.000 A 
ATOM      9  C   UNL     1       1.541   4.919  20.514  0.00  0.00    +0.000 A 
ATOM     10  C   UNL     1       1.018   3.648  20.264  0.00  0.00    +0.000 A 
ATOM     11  C   UNL     1       1.026   3.142  18.970  0.00  0.00    +0.000 A 
ATOM     12  F   UNL     1       0.517   1.926  18.734  0.00  0.00    +0.000 F 
ATOM     13  C   UNL     1       1.552   3.881  17.918  0.00  0.00    +0.000 A 
ATOM     14  C   UNL     1       2.076   5.151  18.165  0.00  0.00    +0.000 A 
ENDBRANCH   7   8
ENDBRANCH   5   7
ENDBRANCH   2   3
BRANCH   2  15
ATOM     15  O   UNL     1       0.998  10.989  21.560  0.00  0.00    +0.000 OA
BRANCH  15  16
ATOM     16  C   UNL     1       0.467  12.117  21.016  0.00  0.00    +0.000 C 
ATOM     17  O   UNL     1       1.016  12.792  20.154  0.00  0.00    +0.000 OA
BRANCH  16  18
ATOM     18  C   UNL     1      -0.849  12.371  21.578  0.00  0.00    +0.000 A 
ATOM     19  C   UNL     1      -1.178  12.634  22.904  0.00  0.00    +0.000 A 
ATOM     20  C   UNL     1      -2.593  12.770  22.957  0.00  0.00    +0.000 A 
ATOM     21  S   UNL     1      -3.838  13.065  24.123  0.00  0.00    +0.000 S 
ATOM     22  C   UNL     1      -5.024  12.936  22.884  0.00  0.00    +0.000 A 
ATOM     23  C   UNL     1      -4.505  12.704  21.628  0.00  0.00    +0.000 A 
ATOM     24  C   UNL     1      -3.086  12.607  21.699  0.00  0.00    +0.000 A 
ATOM     25  N   UNL     1      -2.025  12.384  20.846  0.00  0.00    +0.000 N 
ATOM     26  C   UNL     1      -2.172  12.171  19.426  0.00  0.00    +0.000 C 
ENDBRANCH  16  18
ENDBRANCH  15  16
ENDBRANCH   2  15
TORSDOF 6
ENDMDL
MODEL 5
REMARK VINA RESULT:      -7.1      3.896      7.454
REMARK  Name = 
REMARK  8 active torsions:
REMARK  status: ('A' for Active; 'I' for Inactive)
REMARK    1  A    between atoms: C_1  and  C_2
REMARK    2  A    between atoms: C_2  and  O_3
REMARK    3  A    between atoms: C_2  and  C_15
REMARK    4  A    between atoms: O_3  and  C_4
REMARK    5  A    between atoms: C_4  and  C_6
REMARK    6  A    between atoms: N_13  and  C_14
REMARK    7  A    between atoms: N_17  and  C_18
REMARK    8  A    between atoms: C_18  and  C_19
REMARK                            x       y       z     vdW  Elec       q    Type
REMARK                         _______ _______ _______ _____ _____    ______ ____
ROOT
ATOM      1  C   UNL     1       0.818   4.078  20.333  0.00  0.00    +0.000 C 
ATOM      2  C   UNL     1       1.880   4.955  19.677  0.00  0.00    +0.000 C 
ENDROOT
BRANCH   2   3
ATOM      3  C   UNL     1       3.238   4.224  19.617  0.00  0.00    +0.000 C 
ATOM      4  O   UNL     1       3.553   3.330  20.399  0.00  0.00    +0.000 OA
ATOM      5  N   UNL     1       4.100   4.681  18.637  0.00  0.00    +0.000 N 
ATOM      6  H   UNL     1       3.793   5.383  17.979  0.00  0.00    +0.000 HD
BRANCH   5   7
ATOM      7  C   UNL     1       5.389   4.068  18.406  0.00  0.00    +0.000 C 
BRANCH   7   8
ATOM      8  C   UNL     1       5.882   4.317  17.002  0.00  0.00    +0.000 A 
ATOM      9  C   UNL     1       7.201   4.734  16.760  0.00  0.00    +0.000 A 
ATOM     10  C   UNL     1       7.645   4.949  15.453  0.00  0.00    +0.000 A 
ATOM     11  C   UNL     1       6.771   4.759  14.389  0.00  0.00    +0.000 A 
ATOM     12  F   UNL     1       7.202   4.962  13.138  0.00  0.00    +0.000 F 
ATOM     13  C   UNL     1       5.458   4.363  14.606  0.00  0.00    +0.000 A 
ATOM     14  C   UNL     1       5.012   4.147  15.911  0.00  0.00    +0.000 A 
ENDBRANCH   7   8
ENDBRANCH   5   7
ENDBRANCH   2   3
BRANCH   2  15
ATOM     15  O   UNL     1       2.036   6.159  20.446  0.00  0.00    +0.000 OA
BRANCH  15  16
ATOM     16  C   UNL     1       2.141   7.317  19.741  0.00  0.00    +0.000 C 
ATOM     17  O   UNL     1       2.796   7.444  18.714  0.00  0.00    +0.000 OA
BRANCH  16  18
ATOM     18  C   UNL     1       1.335   8.355  20.363  0.00  0.00    +0.000 A 
ATOM     19  C   UNL     1       0.963   8.466  21.699  0.00  0.00    +0.000 A 
ATOM     20  C   UNL     1       0.145   9.624  21.803  0.00  0.00    +0.000 A 
ATOM     21  S   UNL     1      -0.746  10.496  23.005  0.00  0.00    +0.000 S 
ATOM     22  C   UNL     1      -1.267  11.611  21.804  0.00  0.00    +0.000 A 
ATOM     23  C   UNL     1      -0.771  11.357  20.543  0.00  0.00    +0.000 A 
ATOM     24  C   UNL     1       0.046  10.191  20.569  0.00  0.00    +0.000 A 
ATOM     25  N   UNL     1       0.788   9.434  19.687  0.00  0.00    +0.000 N 
ATOM     26  C   UNL     1       0.918   9.740  18.282  0.00  0.00    +0.000 C 
ENDBRANCH  16  18
ENDBRANCH  15  16
ENDBRANCH   2  15
TORSDOF 6
ENDMDL
MODEL 6
REMARK VINA RESULT:      -7.0      3.267      6.737
REMARK  Name = 
REMARK  8 active torsions:
REMARK  status: ('A' for Active; 'I' for Inactive)
REMARK    1  A    between atoms: C_1  and  C_2
REMARK    2  A    between atoms: C_2  and  O_3
REMARK    3  A    between atoms: C_2  and  C_15
REMARK    4  A    between atoms: O_3  and  C_4
REMARK    5  A    between atoms: C_4  and  C_6
REMARK    6  A    between atoms: N_13  and  C_14
REMARK    7  A    between atoms: N_17  and  C_18
REMARK    8  A    between atoms: C_18  and  C_19
REMARK                            x       y       z     vdW  Elec       q    Type
REMARK                         _______ _______ _______ _____ _____    ______ ____
ROOT
ATOM      1  C   UNL     1       1.454   3.358  19.361  0.00  0.00    +0.000 C 
ATOM      2  C   UNL     1       2.208   4.584  18.852  0.00  0.00    +0.000 C 
ENDROOT
BRANCH   2   3
ATOM      3  C   UNL     1       3.712   4.279  18.694  0.00  0.00    +0.000 C 
ATOM      4  O   UNL     1       4.385   3.749  19.575  0.00  0.00    +0.000 OA
ATOM      5  N   UNL     1       4.264   4.689  17.493  0.00  0.00    +0.000 N 
ATOM      6  H   UNL     1       3.675   5.077  16.771  0.00  0.00    +0.000 HD
BRANCH   5   7
ATOM      7  C   UNL     1       5.647   4.429  17.159  0.00  0.00    +0.000 C 
BRANCH   7   8
ATOM      8  C   UNL     1       6.553   5.541  17.626  0.00  0.00    +0.000 A 
ATOM      9  C   UNL     1       7.411   5.365  18.723  0.00  0.00    +0.000 A 
ATOM     10  C   UNL     1       8.251   6.402  19.136  0.00  0.00    +0.000 A 
ATOM     11  C   UNL     1       8.228   7.617  18.462  0.00  0.00    +0.000 A 
ATOM     12  F   UNL     1       9.039   8.606  18.857  0.00  0.00    +0.000 F 
ATOM     13  C   UNL     1       7.375   7.819  17.384  0.00  0.00    +0.000 A 
ATOM     14  C   UNL     1       6.535   6.785  16.970  0.00  0.00    +0.000 A 
ENDBRANCH   7   8
ENDBRANCH   5   7
ENDBRANCH   2   3
BRANCH   2  15
ATOM     15  O   UNL     1       2.050   5.658  19.795  0.00  0.00    +0.000 OA
BRANCH  15  16
ATOM     16  C   UNL     1       2.351   6.905  19.345  0.00  0.00    +0.000 C 
ATOM     17  O   UNL     1       3.104   7.139  18.409  0.00  0.00    +0.000 OA
BRANCH  16  18
ATOM     18  C   UNL     1       1.620   7.902  20.111  0.00  0.00    +0.000 A 
ATOM     19  C   UNL     1       1.227   7.840  21.443  0.00  0.00    +0.000 A 
ATOM     20  C   UNL     1       0.506   9.035  21.716  0.00  0.00    +0.000 A 
ATOM     21  S   UNL     1      -0.338   9.787  23.028  0.00  0.00    +0.000 S 
ATOM     22  C   UNL     1      -0.736  11.112  22.007  0.00  0.00    +0.000 A 
ATOM     23  C   UNL     1      -0.233  11.011  20.727  0.00  0.00    +0.000 A 
ATOM     24  C   UNL     1       0.484   9.789  20.582  0.00  0.00    +0.000 A 
ATOM     25  N   UNL     1       1.180   9.114  19.602  0.00  0.00    +0.000 N 
ATOM     26  C   UNL     1       1.368   9.618  18.263  0.00  0.00    +0.000 C 
ENDBRANCH  16  18
ENDBRANCH  15  16
ENDBRANCH   2  15
TORSDOF 6
ENDMDL
MODEL 7
REMARK VINA RESULT:      -7.0      3.520      6.502
REMARK  Name = 
REMARK  8 active torsions:
REMARK  status: ('A' for Active; 'I' for Inactive)
REMARK    1  A    between atoms: C_1  and  C_2
REMARK    2  A    between atoms: C_2  and  O_3
REMARK    3  A    between atoms: C_2  and  C_15
REMARK    4  A    between atoms: O_3  and  C_4
REMARK    5  A    between atoms: C_4  and  C_6
REMARK    6  A    between atoms: N_13  and  C_14
REMARK    7  A    between atoms: N_17  and  C_18
REMARK    8  A    between atoms: C_18  and  C_19
REMARK                            x       y       z     vdW  Elec       q    Type
REMARK                         _______ _______ _______ _____ _____    ______ ____
ROOT
ATOM      1  C   UNL     1       1.943   2.817  21.515  0.00  0.00    +0.000 C 
ATOM      2  C   UNL     1       1.034   3.386  20.430  0.00  0.00    +0.000 C 
ENDROOT
BRANCH   2   3
ATOM      3  C   UNL     1       1.612   3.113  19.026  0.00  0.00    +0.000 C 
ATOM      4  O   UNL     1       0.911   3.000  18.023  0.00  0.00    +0.000 OA
ATOM      5  N   UNL     1       2.986   2.959  18.984  0.00  0.00    +0.000 N 
ATOM      6  H   UNL     1       3.538   3.106  19.817  0.00  0.00    +0.000 HD
BRANCH   5   7
ATOM      7  C   UNL     1       3.695   2.755  17.740  0.00  0.00    +0.000 C 
BRANCH   7   8
ATOM      8  C   UNL     1       4.741   3.818  17.513  0.00  0.00    +0.000 A 
ATOM      9  C   UNL     1       4.925   4.396  16.247  0.00  0.00    +0.000 A 
ATOM     10  C   UNL     1       5.892   5.386  16.057  0.00  0.00    +0.000 A 
ATOM     11  C   UNL     1       6.682   5.792  17.126  0.00  0.00    +0.000 A 
ATOM     12  F   UNL     1       7.604   6.745  16.940  0.00  0.00    +0.000 F 
ATOM     13  C   UNL     1       6.529   5.222  18.383  0.00  0.00    +0.000 A 
ATOM     14  C   UNL     1       5.564   4.232  18.575  0.00  0.00    +0.000 A 
ENDBRANCH   7   8
ENDBRANCH   5   7
ENDBRANCH   2   3
BRANCH   2  15
ATOM     15  O   UNL     1       0.916   4.807  20.614  0.00  0.00    +0.000 OA
BRANCH  15  16
ATOM     16  C   UNL     1       2.075   5.517  20.594  0.00  0.00    +0.000 C 
ATOM     17  O   UNL     1       3.183   5.037  20.797  0.00  0.00    +0.000 OA
BRANCH  16  18
ATOM     18  C   UNL     1       1.804   6.906  20.262  0.00  0.00    +0.000 A 
ATOM     19  C   UNL     1       1.135   7.856  21.027  0.00  0.00    +0.000 A 
ATOM     20  C   UNL     1       1.090   9.049  20.255  0.00  0.00    +0.000 A 
ATOM     21  S   UNL     1       0.472  10.663  20.369  0.00  0.00    +0.000 S 
ATOM     22  C   UNL     1       1.065  10.998  18.790  0.00  0.00    +0.000 A 
ATOM     23  C   UNL     1       1.729   9.943  18.200  0.00  0.00    +0.000 A 
ATOM     24  C   UNL     1       1.726   8.818  19.073  0.00  0.00    +0.000 A 
ATOM     25  N   UNL     1       2.184   7.517  19.077  0.00  0.00    +0.000 N 
ATOM     26  C   UNL     1       2.912   6.922  17.982  0.00  0.00    +0.000 C 
ENDBRANCH  16  18
ENDBRANCH  15  16
ENDBRANCH   2  15
TORSDOF 6
ENDMDL
MODEL 8
REMARK VINA RESULT:      -6.9      3.477      5.765
REMARK  Name = 
REMARK  8 active torsions:
REMARK  status: ('A' for Active; 'I' for Inactive)
REMARK    1  A    between atoms: C_1  and  C_2
REMARK    2  A    between atoms: C_2  and  O_3
REMARK    3  A    between atoms: C_2  and  C_15
REMARK    4  A    between atoms: O_3  and  C_4
REMARK    5  A    between atoms: C_4  and  C_6
REMARK    6  A    between atoms: N_13  and  C_14
REMARK    7  A    between atoms: N_17  and  C_18
REMARK    8  A    between atoms: C_18  and  C_19
REMARK                            x       y       z     vdW  Elec       q    Type
REMARK                         _______ _______ _______ _____ _____    ______ ____
ROOT
ATOM      1  C   UNL     1       7.557   5.667  19.529  0.00  0.00    +0.000 C 
ATOM      2  C   UNL     1       6.640   5.369  18.346  0.00  0.00    +0.000 C 
ENDROOT
BRANCH   2   3
ATOM      3  C   UNL     1       7.461   5.010  17.090  0.00  0.00    +0.000 C 
ATOM      4  O   UNL     1       8.280   4.094  17.064  0.00  0.00    +0.000 OA
ATOM      5  N   UNL     1       7.239   5.829  15.998  0.00  0.00    +0.000 N 
ATOM      6  H   UNL     1       6.525   6.543  16.036  0.00  0.00    +0.000 HD
BRANCH   5   7
ATOM      7  C   UNL     1       7.882   5.596  14.724  0.00  0.00    +0.000 C 
BRANCH   7   8
ATOM      8  C   UNL     1       7.020   4.767  13.806  0.00  0.00    +0.000 A 
ATOM      9  C   UNL     1       7.500   4.325  12.562  0.00  0.00    +0.000 A 
ATOM     10  C   UNL     1       6.691   3.549  11.729  0.00  0.00    +0.000 A 
ATOM     11  C   UNL     1       5.402   3.221  12.130  0.00  0.00    +0.000 A 
ATOM     12  F   UNL     1       4.632   2.472  11.331  0.00  0.00    +0.000 F 
ATOM     13  C   UNL     1       4.900   3.660  13.349  0.00  0.00    +0.000 A 
ATOM     14  C   UNL     1       5.706   4.436  14.184  0.00  0.00    +0.000 A 
ENDBRANCH   7   8
ENDBRANCH   5   7
ENDBRANCH   2   3
BRANCH   2  15
ATOM     15  O   UNL     1       5.844   6.533  18.063  0.00  0.00    +0.000 OA
BRANCH  15  16
ATOM     16  C   UNL     1       4.613   6.307  17.533  0.00  0.00    +0.000 C 
ATOM     17  O   UNL     1       4.225   6.764  16.466  0.00  0.00    +0.000 OA
BRANCH  16  18
ATOM     18  C   UNL     1       3.853   5.420  18.399  0.00  0.00    +0.000 A 
ATOM     19  C   UNL     1       3.360   5.681  19.673  0.00  0.00    +0.000 A 
ATOM     20  C   UNL     1       2.724   4.490  20.120  0.00  0.00    +0.000 A 
ATOM     21  S   UNL     1       1.891   3.893  21.516  0.00  0.00    +0.000 S 
ATOM     22  C   UNL     1       1.712   2.363  20.751  0.00  0.00    +0.000 A 
ATOM     23  C   UNL     1       2.238   2.304  19.477  0.00  0.00    +0.000 A 
ATOM     24  C   UNL     1       2.825   3.556  19.135  0.00  0.00    +0.000 A 
ATOM     25  N   UNL     1       3.494   4.122  18.071  0.00  0.00    +0.000 N 
ATOM     26  C   UNL     1       3.781   3.422  16.842  0.00  0.00    +0.000 C 
ENDBRANCH  16  18
ENDBRANCH  15  16
ENDBRANCH   2  15
TORSDOF 6
ENDMDL
MODEL 9
REMARK VINA RESULT:      -6.9      2.873      4.497
REMARK  Name = 
REMARK  8 active torsions:
REMARK  status: ('A' for Active; 'I' for Inactive)
REMARK    1  A    between atoms: C_1  and  C_2
REMARK    2  A    between atoms: C_2  and  O_3
REMARK    3  A    between atoms: C_2  and  C_15
REMARK    4  A    between atoms: O_3  and  C_4
REMARK    5  A    between atoms: C_4  and  C_6
REMARK    6  A    between atoms: N_13  and  C_14
REMARK    7  A    between atoms: N_17  and  C_18
REMARK    8  A    between atoms: C_18  and  C_19
REMARK                            x       y       z     vdW  Elec       q    Type
REMARK                         _______ _______ _______ _____ _____    ______ ____
ROOT
ATOM      1  C   UNL     1       1.913   4.602  17.735  0.00  0.00    +0.000 C 
ATOM      2  C   UNL     1       2.795   4.738  18.973  0.00  0.00    +0.000 C 
ENDROOT
BRANCH   2   3
ATOM      3  C   UNL     1       2.080   5.549  20.074  0.00  0.00    +0.000 C 
ATOM      4  O   UNL     1       1.368   5.031  20.931  0.00  0.00    +0.000 OA
ATOM      5  N   UNL     1       2.265   6.917  19.999  0.00  0.00    +0.000 N 
ATOM      6  H   UNL     1       2.895   7.307  19.312  0.00  0.00    +0.000 HD
BRANCH   5   7
ATOM      7  C   UNL     1       1.713   7.818  20.986  0.00  0.00    +0.000 C 
BRANCH   7   8
ATOM      8  C   UNL     1       1.004   8.985  20.344  0.00  0.00    +0.000 A 
ATOM      9  C   UNL     1       0.042   9.726  21.048  0.00  0.00    +0.000 A 
ATOM     10  C   UNL     1      -0.598  10.809  20.441  0.00  0.00    +0.000 A 
ATOM     11  C   UNL     1      -0.285  11.147  19.130  0.00  0.00    +0.000 A 
ATOM     12  F   UNL     1      -0.897  12.190  18.555  0.00  0.00    +0.000 F 
ATOM     13  C   UNL     1       0.652  10.419  18.409  0.00  0.00    +0.000 A 
ATOM     14  C   UNL     1       1.292   9.335  19.013  0.00  0.00    +0.000 A 
ENDBRANCH   7   8
ENDBRANCH   5   7
ENDBRANCH   2   3
BRANCH   2  15
ATOM     15  O   UNL     1       4.010   5.417  18.612  0.00  0.00    +0.000 OA
BRANCH  15  16
ATOM     16  C   UNL     1       5.122   4.644  18.493  0.00  0.00    +0.000 C 
ATOM     17  O   UNL     1       5.650   4.045  19.421  0.00  0.00    +0.000 OA
BRANCH  16  18
ATOM     18  C   UNL     1       5.558   4.607  17.106  0.00  0.00    +0.000 A 
ATOM     19  C   UNL     1       5.092   3.788  16.083  0.00  0.00    +0.000 A 
ATOM     20  C   UNL     1       5.858   4.100  14.926  0.00  0.00    +0.000 A 
ATOM     21  S   UNL     1       6.000   3.602  13.274  0.00  0.00    +0.000 S 
ATOM     22  C   UNL     1       7.282   4.725  13.049  0.00  0.00    +0.000 A 
ATOM     23  C   UNL     1       7.583   5.472  14.169  0.00  0.00    +0.000 A 
ATOM     24  C   UNL     1       6.741   5.085  15.250  0.00  0.00    +0.000 A 
ATOM     25  N   UNL     1       6.550   5.416  16.575  0.00  0.00    +0.000 N 
ATOM     26  C   UNL     1       7.311   6.431  17.264  0.00  0.00    +0.000 C 
ENDBRANCH  16  18
ENDBRANCH  15  16
ENDBRANCH   2  15
TORSDOF 6
ENDMDL
