MODEL 1
REMARK VINA RESULT:      -5.1      0.000      0.000
REMARK  Name = 
REMARK  2 active torsions:
REMARK  status: ('A' for Active; 'I' for Inactive)
REMARK    1  A    between atoms: C_2  and  O_3
REMARK    2  A    between atoms: C_2  and  C_4
REMARK                            x       y       z     vdW  Elec       q    Type
REMARK                         _______ _______ _______ _____ _____    ______ ____
ROOT
ATOM      1  C   UNL     1       5.786   5.144  16.753  0.00  0.00    +0.000 A 
ATOM      2  C   UNL     1       5.194   6.346  17.108  0.00  0.00    +0.000 A 
ATOM      3  C   UNL     1       3.849   6.177  17.535  0.00  0.00    +0.000 A 
ATOM      4 BR   UNL     1       2.815   7.668  18.060  0.00  0.00    +0.000 Br
ATOM      5  C   UNL     1       3.461   4.864  17.507  0.00  0.00    +0.000 A 
ATOM      6 BR   UNL     1       1.777   4.208  18.011  0.00  0.00    +0.000 Br
ATOM      7  S   UNL     1       4.694   3.836  16.952  0.00  0.00    +0.000 S 
ENDROOT
BRANCH   1   9
ATOM      8  O   UNL     1       7.598   5.430  15.245  0.00  0.00    +0.000 OA
ATOM      9  C   UNL     1       7.146   4.956  16.277  0.00  0.00    +0.000 C 
BRANCH   9  10
ATOM     10  O   UNL     1       7.898   4.172  17.092  0.00  0.00    +0.000 OA
ATOM     11  H   UNL     1       7.361   3.501  17.554  0.00  0.00    +0.000 HD
ENDBRANCH   9  10
ENDBRANCH   1   9
TORSDOF 2
ENDMDL
MODEL 2
REMARK VINA RESULT:      -5.1      1.072      2.090
REMARK  Name = 
REMARK  2 active torsions:
REMARK  status: ('A' for Active; 'I' for Inactive)
REMARK    1  A    between atoms: C_2  and  O_3
REMARK    2  A    between atoms: C_2  and  C_4
REMARK                            x       y       z     vdW  Elec       q    Type
REMARK                         _______ _______ _______ _____ _____    ______ ____
ROOT
ATOM      1  C   UNL     1       5.869   5.062  16.775  0.00  0.00    +0.000 A 
ATOM      2  C   UNL     1       4.792   4.210  16.959  0.00  0.00    +0.000 A 
ATOM      3  C   UNL     1       3.646   4.892  17.451  0.00  0.00    +0.000 A 
ATOM      4 BR   UNL     1       2.046   3.950  17.800  0.00  0.00    +0.000 Br
ATOM      5  C   UNL     1       3.874   6.232  17.613  0.00  0.00    +0.000 A 
ATOM      6 BR   UNL     1       2.622   7.492  18.219  0.00  0.00    +0.000 Br
ATOM      7  S   UNL     1       5.461   6.674  17.199  0.00  0.00    +0.000 S 
ENDROOT
BRANCH   1   9
ATOM      8  O   UNL     1       7.572   4.851  15.133  0.00  0.00    +0.000 OA
ATOM      9  C   UNL     1       7.187   4.698  16.284  0.00  0.00    +0.000 C 
BRANCH   9  10
ATOM     10  O   UNL     1       7.982   4.143  17.234  0.00  0.00    +0.000 OA
ATOM     11  H   UNL     1       7.784   3.197  17.372  0.00  0.00    +0.000 HD
ENDBRANCH   9  10
ENDBRANCH   1   9
TORSDOF 2
ENDMDL
MODEL 3
REMARK VINA RESULT:      -5.1      0.153      1.016
REMARK  Name = 
REMARK  2 active torsions:
REMARK  status: ('A' for Active; 'I' for Inactive)
REMARK    1  A    between atoms: C_2  and  O_3
REMARK    2  A    between atoms: C_2  and  C_4
REMARK                            x       y       z     vdW  Elec       q    Type
REMARK                         _______ _______ _______ _____ _____    ______ ____
ROOT
ATOM      1  C   UNL     1       5.767   5.144  16.907  0.00  0.00    +0.000 A 
ATOM      2  C   UNL     1       5.159   6.338  17.260  0.00  0.00    +0.000 A 
ATOM      3  C   UNL     1       3.792   6.163  17.608  0.00  0.00    +0.000 A 
ATOM      4 BR   UNL     1       2.734   7.644  18.114  0.00  0.00    +0.000 Br
ATOM      5  C   UNL     1       3.403   4.853  17.525  0.00  0.00    +0.000 A 
ATOM      6 BR   UNL     1       1.693   4.190  17.919  0.00  0.00    +0.000 Br
ATOM      7  S   UNL     1       4.662   3.835  17.012  0.00  0.00    +0.000 S 
ENDROOT
BRANCH   1   9
ATOM      8  O   UNL     1       7.996   4.365  17.152  0.00  0.00    +0.000 OA
ATOM      9  C   UNL     1       7.150   4.963  16.502  0.00  0.00    +0.000 C 
BRANCH   9  10
ATOM     10  O   UNL     1       7.442   5.540  15.309  0.00  0.00    +0.000 OA
ATOM     11  H   UNL     1       7.472   6.514  15.370  0.00  0.00    +0.000 HD
ENDBRANCH   9  10
ENDBRANCH   1   9
TORSDOF 2
ENDMDL
MODEL 4
REMARK VINA RESULT:      -4.9      1.164      2.341
REMARK  Name = 
REMARK  2 active torsions:
REMARK  status: ('A' for Active; 'I' for Inactive)
REMARK    1  A    between atoms: C_2  and  O_3
REMARK    2  A    between atoms: C_2  and  C_4
REMARK                            x       y       z     vdW  Elec       q    Type
REMARK                         _______ _______ _______ _____ _____    ______ ____
ROOT
ATOM      1  C   UNL     1       5.891   5.107  17.178  0.00  0.00    +0.000 A 
ATOM      2  C   UNL     1       4.761   4.317  17.314  0.00  0.00    +0.000 A 
ATOM      3  C   UNL     1       3.599   5.085  17.594  0.00  0.00    +0.000 A 
ATOM      4 BR   UNL     1       1.927   4.241  17.840  0.00  0.00    +0.000 Br
ATOM      5  C   UNL     1       3.869   6.426  17.651  0.00  0.00    +0.000 A 
ATOM      6 BR   UNL     1       2.617   7.785  17.974  0.00  0.00    +0.000 Br
ATOM      7  S   UNL     1       5.513   6.767  17.389  0.00  0.00    +0.000 S 
ENDROOT
BRANCH   1   9
ATOM      8  O   UNL     1       8.051   4.288  17.728  0.00  0.00    +0.000 OA
ATOM      9  C   UNL     1       7.239   4.648  16.888  0.00  0.00    +0.000 C 
BRANCH   9  10
ATOM     10  O   UNL     1       7.540   4.663  15.564  0.00  0.00    +0.000 OA
ATOM     11  H   UNL     1       8.097   5.428  15.323  0.00  0.00    +0.000 HD
ENDBRANCH   9  10
ENDBRANCH   1   9
TORSDOF 2
ENDMDL
MODEL 5
REMARK VINA RESULT:      -4.9      1.760      2.266
REMARK  Name = 
REMARK  2 active torsions:
REMARK  status: ('A' for Active; 'I' for Inactive)
REMARK    1  A    between atoms: C_2  and  O_3
REMARK    2  A    between atoms: C_2  and  C_4
REMARK                            x       y       z     vdW  Elec       q    Type
REMARK                         _______ _______ _______ _____ _____    ______ ____
ROOT
ATOM      1  C   UNL     1       5.983   4.519  17.536  0.00  0.00    +0.000 A 
ATOM      2  C   UNL     1       4.865   3.871  17.035  0.00  0.00    +0.000 A 
ATOM      3  C   UNL     1       3.726   4.044  17.867  0.00  0.00    +0.000 A 
ATOM      4 BR   UNL     1       2.075   3.247  17.411  0.00  0.00    +0.000 Br
ATOM      5  C   UNL     1       4.000   4.820  18.961  0.00  0.00    +0.000 A 
ATOM      6 BR   UNL     1       2.774   5.307  20.295  0.00  0.00    +0.000 Br
ATOM      7  S   UNL     1       5.621   5.326  19.007  0.00  0.00    +0.000 S 
ENDROOT
BRANCH   1   9
ATOM      8  O   UNL     1       7.555   4.960  15.813  0.00  0.00    +0.000 OA
ATOM      9  C   UNL     1       7.306   4.551  16.938  0.00  0.00    +0.000 C 
BRANCH   9  10
ATOM     10  O   UNL     1       8.277   4.061  17.750  0.00  0.00    +0.000 OA
ATOM     11  H   UNL     1       7.916   3.721  18.591  0.00  0.00    +0.000 HD
ENDBRANCH   9  10
ENDBRANCH   1   9
TORSDOF 2
ENDMDL
MODEL 6
REMARK VINA RESULT:      -4.8      2.793      3.181
REMARK  Name = 
REMARK  2 active torsions:
REMARK  status: ('A' for Active; 'I' for Inactive)
REMARK    1  A    between atoms: C_2  and  O_3
REMARK    2  A    between atoms: C_2  and  C_4
REMARK                            x       y       z     vdW  Elec       q    Type
REMARK                         _______ _______ _______ _____ _____    ______ ____
ROOT
ATOM      1  C   UNL     1       6.862   5.401  18.363  0.00  0.00    +0.000 A 
ATOM      2  C   UNL     1       6.978   5.142  17.007  0.00  0.00    +0.000 A 
ATOM      3  C   UNL     1       5.838   4.468  16.490  0.00  0.00    +0.000 A 
ATOM      4 BR   UNL     1       5.755   3.986  14.665  0.00  0.00    +0.000 Br
ATOM      5  C   UNL     1       4.890   4.245  17.452  0.00  0.00    +0.000 A 
ATOM      6 BR   UNL     1       3.233   3.407  17.186  0.00  0.00    +0.000 Br
ATOM      7  S   UNL     1       5.368   4.823  18.977  0.00  0.00    +0.000 S 
ENDROOT
BRANCH   1   9
ATOM      8  O   UNL     1       8.445   7.090  18.892  0.00  0.00    +0.000 OA
ATOM      9  C   UNL     1       7.838   6.075  19.202  0.00  0.00    +0.000 C 
BRANCH   9  10
ATOM     10  O   UNL     1       8.040   5.459  20.395  0.00  0.00    +0.000 OA
ATOM     11  H   UNL     1       8.972   5.200  20.521  0.00  0.00    +0.000 HD
ENDBRANCH   9  10
ENDBRANCH   1   9
TORSDOF 2
ENDMDL
MODEL 7
REMARK VINA RESULT:      -4.8      1.408      2.382
REMARK  Name = 
REMARK  2 active torsions:
REMARK  status: ('A' for Active; 'I' for Inactive)
REMARK    1  A    between atoms: C_2  and  O_3
REMARK    2  A    between atoms: C_2  and  C_4
REMARK                            x       y       z     vdW  Elec       q    Type
REMARK                         _______ _______ _______ _____ _____    ______ ____
ROOT
ATOM      1  C   UNL     1       5.460   4.912  16.038  0.00  0.00    +0.000 A 
ATOM      2  C   UNL     1       4.549   3.987  16.522  0.00  0.00    +0.000 A 
ATOM      3  C   UNL     1       3.578   4.584  17.371  0.00  0.00    +0.000 A 
ATOM      4 BR   UNL     1       2.229   3.532  18.174  0.00  0.00    +0.000 Br
ATOM      5  C   UNL     1       3.765   5.934  17.499  0.00  0.00    +0.000 A 
ATOM      6 BR   UNL     1       2.696   7.099  18.509  0.00  0.00    +0.000 Br
ATOM      7  S   UNL     1       5.111   6.487  16.623  0.00  0.00    +0.000 S 
ENDROOT
BRANCH   1   9
ATOM      8  O   UNL     1       7.575   5.341  15.047  0.00  0.00    +0.000 OA
ATOM      9  C   UNL     1       6.575   4.643  15.146  0.00  0.00    +0.000 C 
BRANCH   9  10
ATOM     10  O   UNL     1       6.409   3.524  14.397  0.00  0.00    +0.000 OA
ATOM     11  H   UNL     1       7.142   3.392  13.767  0.00  0.00    +0.000 HD
ENDBRANCH   9  10
ENDBRANCH   1   9
TORSDOF 2
ENDMDL
MODEL 8
REMARK VINA RESULT:      -4.8      2.814      3.336
REMARK  Name = 
REMARK  2 active torsions:
REMARK  status: ('A' for Active; 'I' for Inactive)
REMARK    1  A    between atoms: C_2  and  O_3
REMARK    2  A    between atoms: C_2  and  C_4
REMARK                            x       y       z     vdW  Elec       q    Type
REMARK                         _______ _______ _______ _____ _____    ______ ____
ROOT
ATOM      1  C   UNL     1       6.809   5.201  18.548  0.00  0.00    +0.000 A 
ATOM      2  C   UNL     1       6.965   5.034  17.182  0.00  0.00    +0.000 A 
ATOM      3  C   UNL     1       5.813   4.463  16.575  0.00  0.00    +0.000 A 
ATOM      4 BR   UNL     1       5.778   4.120  14.718  0.00  0.00    +0.000 Br
ATOM      5  C   UNL     1       4.817   4.225  17.484  0.00  0.00    +0.000 A 
ATOM      6 BR   UNL     1       3.130   3.500  17.097  0.00  0.00    +0.000 Br
ATOM      7  S   UNL     1       5.263   4.663  19.063  0.00  0.00    +0.000 S 
ENDROOT
BRANCH   1   9
ATOM      8  O   UNL     1       8.055   5.291  20.568  0.00  0.00    +0.000 OA
ATOM      9  C   UNL     1       7.785   5.757  19.470  0.00  0.00    +0.000 C 
BRANCH   9  10
ATOM     10  O   UNL     1       8.385   6.882  19.005  0.00  0.00    +0.000 OA
ATOM     11  H   UNL     1       8.785   7.408  19.723  0.00  0.00    +0.000 HD
ENDBRANCH   9  10
ENDBRANCH   1   9
TORSDOF 2
ENDMDL
MODEL 9
REMARK VINA RESULT:      -4.8      1.278      1.617
REMARK  Name = 
REMARK  2 active torsions:
REMARK  status: ('A' for Active; 'I' for Inactive)
REMARK    1  A    between atoms: C_2  and  O_3
REMARK    2  A    between atoms: C_2  and  C_4
REMARK                            x       y       z     vdW  Elec       q    Type
REMARK                         _______ _______ _______ _____ _____    ______ ____
ROOT
ATOM      1  C   UNL     1       5.847   5.514  17.628  0.00  0.00    +0.000 A 
ATOM      2  C   UNL     1       5.002   6.576  17.350  0.00  0.00    +0.000 A 
ATOM      3  C   UNL     1       3.818   6.541  18.135  0.00  0.00    +0.000 A 
ATOM      4 BR   UNL     1       2.494   7.873  17.935  0.00  0.00    +0.000 Br
ATOM      5  C   UNL     1       3.798   5.471  18.990  0.00  0.00    +0.000 A 
ATOM      6 BR   UNL     1       2.432   5.068  20.211  0.00  0.00    +0.000 Br
ATOM      7  S   UNL     1       5.183   4.499  18.842  0.00  0.00    +0.000 S 
ENDROOT
BRANCH   1   9
ATOM      8  O   UNL     1       7.930   4.400  17.392  0.00  0.00    +0.000 OA
ATOM      9  C   UNL     1       7.136   5.248  17.012  0.00  0.00    +0.000 C 
BRANCH   9  10
ATOM     10  O   UNL     1       7.403   6.054  15.953  0.00  0.00    +0.000 OA
ATOM     11  H   UNL     1       8.338   6.000  15.679  0.00  0.00    +0.000 HD
ENDBRANCH   9  10
ENDBRANCH   1   9
TORSDOF 2
ENDMDL
