MODEL 1
REMARK VINA RESULT:      -9.2      0.000      0.000
REMARK  Name = 
REMARK  4 active torsions:
REMARK  status: ('A' for Active; 'I' for Inactive)
REMARK    1  A    between atoms: N_7  and  C_8
REMARK    2  A    between atoms: C_8  and  C_9
REMARK    3  A    between atoms: N_17  and  C_18
REMARK    4  A    between atoms: C_18  and  C_19
REMARK                            x       y       z     vdW  Elec       q    Type
REMARK                         _______ _______ _______ _____ _____    ______ ____
ROOT
ATOM      1 CL   UNL     1       7.072   4.245  11.859  0.00  0.00    +0.000 Cl
ATOM      2  C   UNL     1       6.785   4.338  13.551  0.00  0.00    +0.000 A 
ATOM      3  C   UNL     1       6.001   3.377  14.169  0.00  0.00    +0.000 A 
ATOM      4  C   UNL     1       5.780   3.467  15.541  0.00  0.00    +0.000 A 
ATOM      5  C   UNL     1       6.322   4.537  16.305  0.00  0.00    +0.000 A 
ATOM      6  C   UNL     1       6.109   4.753  17.676  0.00  0.00    +0.000 A 
ATOM      7  N   UNL     1       5.342   3.820  18.403  0.00  0.00    +0.000 N 
ATOM      8  N   UNL     1       6.680   5.782  18.323  0.00  0.00    +0.000 NA
ATOM      9  C   UNL     1       7.395   6.662  17.609  0.00  0.00    +0.000 A 
ATOM     10  N   UNL     1       7.892   7.758  18.297  0.00  0.00    +0.000 N 
ATOM     11  N   UNL     1       7.626   6.549  16.297  0.00  0.00    +0.000 NA
ATOM     12  C   UNL     1       7.105   5.502  15.658  0.00  0.00    +0.000 A 
ATOM     13  C   UNL     1       7.337   5.382  14.294  0.00  0.00    +0.000 A 
ATOM     14  H   UNL     1       4.591   3.454  17.827  0.00  0.00    +0.000 HD
ATOM     15  H   UNL     1       8.669   7.433  18.864  0.00  0.00    +0.000 HD
ENDROOT
BRANCH   7  16
ATOM     16  C   UNL     1       4.759   4.309  19.649  0.00  0.00    +0.000 C 
BRANCH  16  17
ATOM     17  C   UNL     1       3.320   3.830  19.702  0.00  0.00    +0.000 A 
ATOM     18  C   UNL     1       2.829   2.974  18.701  0.00  0.00    +0.000 A 
ATOM     19  C   UNL     1       1.495   2.566  18.701  0.00  0.00    +0.000 A 
ATOM     20  C   UNL     1       0.633   3.005  19.699  0.00  0.00    +0.000 A 
ATOM     21  C   UNL     1       1.103   3.853  20.702  0.00  0.00    +0.000 A 
ATOM     22  C   UNL     1       2.439   4.266  20.705  0.00  0.00    +0.000 A 
ENDBRANCH  16  17
ENDBRANCH   7  16
BRANCH  10  23
ATOM     23  C   UNL     1       8.231   8.909  17.480  0.00  0.00    +0.000 C 
BRANCH  23  24
ATOM     24  C   UNL     1       8.698  10.064  18.348  0.00  0.00    +0.000 A 
ATOM     25  C   UNL     1       9.139   9.825  19.659  0.00  0.00    +0.000 A 
ATOM     26  C   UNL     1       9.627  10.869  20.448  0.00  0.00    +0.000 A 
ATOM     27  C   UNL     1       9.692  12.164  19.937  0.00  0.00    +0.000 A 
ATOM     28  C   UNL     1       9.281  12.414  18.630  0.00  0.00    +0.000 A 
ATOM     29  C   UNL     1       8.798  11.370  17.839  0.00  0.00    +0.000 A 
ENDBRANCH  23  24
ENDBRANCH  10  23
TORSDOF 4
ENDMDL
MODEL 2
REMARK VINA RESULT:      -9.2      0.396      1.008
REMARK  Name = 
REMARK  4 active torsions:
REMARK  status: ('A' for Active; 'I' for Inactive)
REMARK    1  A    between atoms: N_7  and  C_8
REMARK    2  A    between atoms: C_8  and  C_9
REMARK    3  A    between atoms: N_17  and  C_18
REMARK    4  A    between atoms: C_18  and  C_19
REMARK                            x       y       z     vdW  Elec       q    Type
REMARK                         _______ _______ _______ _____ _____    ______ ____
ROOT
ATOM      1 CL   UNL     1       7.079   4.349  11.917  0.00  0.00    +0.000 Cl
ATOM      2  C   UNL     1       6.814   4.412  13.614  0.00  0.00    +0.000 A 
ATOM      3  C   UNL     1       6.065   3.423  14.230  0.00  0.00    +0.000 A 
ATOM      4  C   UNL     1       5.861   3.489  15.607  0.00  0.00    +0.000 A 
ATOM      5  C   UNL     1       6.385   4.563  16.377  0.00  0.00    +0.000 A 
ATOM      6  C   UNL     1       6.186   4.756  17.753  0.00  0.00    +0.000 A 
ATOM      7  N   UNL     1       5.455   3.793  18.479  0.00  0.00    +0.000 N 
ATOM      8  N   UNL     1       6.739   5.791  18.406  0.00  0.00    +0.000 NA
ATOM      9  C   UNL     1       7.420   6.699  17.694  0.00  0.00    +0.000 A 
ATOM     10  N   UNL     1       7.898   7.799  18.389  0.00  0.00    +0.000 N 
ATOM     11  N   UNL     1       7.635   6.609  16.378  0.00  0.00    +0.000 NA
ATOM     12  C   UNL     1       7.133   5.557  15.732  0.00  0.00    +0.000 A 
ATOM     13  C   UNL     1       7.348   5.460  14.364  0.00  0.00    +0.000 A 
ATOM     14  H   UNL     1       4.706   3.415  17.909  0.00  0.00    +0.000 HD
ATOM     15  H   UNL     1       8.690   7.488  18.941  0.00  0.00    +0.000 HD
ENDROOT
BRANCH   7  16
ATOM     16  C   UNL     1       4.877   4.251  19.740  0.00  0.00    +0.000 C 
BRANCH  16  17
ATOM     17  C   UNL     1       3.401   3.897  19.724  0.00  0.00    +0.000 A 
ATOM     18  C   UNL     1       2.577   4.281  20.795  0.00  0.00    +0.000 A 
ATOM     19  C   UNL     1       1.230   3.919  20.827  0.00  0.00    +0.000 A 
ATOM     20  C   UNL     1       0.687   3.170  19.790  0.00  0.00    +0.000 A 
ATOM     21  C   UNL     1       1.490   2.782  18.716  0.00  0.00    +0.000 A 
ATOM     22  C   UNL     1       2.841   3.141  18.682  0.00  0.00    +0.000 A 
ENDBRANCH  16  17
ENDBRANCH   7  16
BRANCH  10  23
ATOM     23  C   UNL     1       8.194   8.969  17.583  0.00  0.00    +0.000 C 
BRANCH  23  24
ATOM     24  C   UNL     1       8.958  10.001  18.395  0.00  0.00    +0.000 A 
ATOM     25  C   UNL     1       8.935   9.949  19.797  0.00  0.00    +0.000 A 
ATOM     26  C   UNL     1       9.681  10.855  20.556  0.00  0.00    +0.000 A 
ATOM     27  C   UNL     1      10.467  11.818  19.926  0.00  0.00    +0.000 A 
ATOM     28  C   UNL     1      10.519  11.867  18.535  0.00  0.00    +0.000 A 
ATOM     29  C   UNL     1       9.778  10.959  17.776  0.00  0.00    +0.000 A 
ENDBRANCH  23  24
ENDBRANCH  10  23
TORSDOF 4
ENDMDL
MODEL 3
REMARK VINA RESULT:      -9.2      0.389      1.269
REMARK  Name = 
REMARK  4 active torsions:
REMARK  status: ('A' for Active; 'I' for Inactive)
REMARK    1  A    between atoms: N_7  and  C_8
REMARK    2  A    between atoms: C_8  and  C_9
REMARK    3  A    between atoms: N_17  and  C_18
REMARK    4  A    between atoms: C_18  and  C_19
REMARK                            x       y       z     vdW  Elec       q    Type
REMARK                         _______ _______ _______ _____ _____    ______ ____
ROOT
ATOM      1 CL   UNL     1       7.124   4.185  11.956  0.00  0.00    +0.000 Cl
ATOM      2  C   UNL     1       6.809   4.328  13.639  0.00  0.00    +0.000 A 
ATOM      3  C   UNL     1       6.004   3.393  14.269  0.00  0.00    +0.000 A 
ATOM      4  C   UNL     1       5.761   3.523  15.635  0.00  0.00    +0.000 A 
ATOM      5  C   UNL     1       6.300   4.608  16.378  0.00  0.00    +0.000 A 
ATOM      6  C   UNL     1       6.066   4.865  17.738  0.00  0.00    +0.000 A 
ATOM      7  N   UNL     1       5.276   3.960  18.478  0.00  0.00    +0.000 N 
ATOM      8  N   UNL     1       6.637   5.905  18.367  0.00  0.00    +0.000 NA
ATOM      9  C   UNL     1       7.373   6.757  17.641  0.00  0.00    +0.000 A 
ATOM     10  N   UNL     1       7.870   7.867  18.307  0.00  0.00    +0.000 N 
ATOM     11  N   UNL     1       7.625   6.606  16.338  0.00  0.00    +0.000 NA
ATOM     12  C   UNL     1       7.105   5.547  15.718  0.00  0.00    +0.000 A 
ATOM     13  C   UNL     1       7.359   5.386  14.363  0.00  0.00    +0.000 A 
ATOM     14  H   UNL     1       4.532   3.586  17.899  0.00  0.00    +0.000 HD
ATOM     15  H   UNL     1       8.633   7.550  18.897  0.00  0.00    +0.000 HD
ENDROOT
BRANCH   7  16
ATOM     16  C   UNL     1       4.677   4.490  19.700  0.00  0.00    +0.000 C 
BRANCH  16  17
ATOM     17  C   UNL     1       3.233   4.024  19.742  0.00  0.00    +0.000 A 
ATOM     18  C   UNL     1       2.685   3.552  20.947  0.00  0.00    +0.000 A 
ATOM     19  C   UNL     1       1.377   3.068  20.996  0.00  0.00    +0.000 A 
ATOM     20  C   UNL     1       0.599   3.050  19.845  0.00  0.00    +0.000 A 
ATOM     21  C   UNL     1       1.126   3.517  18.640  0.00  0.00    +0.000 A 
ATOM     22  C   UNL     1       2.436   4.001  18.586  0.00  0.00    +0.000 A 
ENDBRANCH  16  17
ENDBRANCH   7  16
BRANCH  10  23
ATOM     23  C   UNL     1       8.235   8.992  17.465  0.00  0.00    +0.000 C 
BRANCH  23  24
ATOM     24  C   UNL     1       8.762  10.142  18.305  0.00  0.00    +0.000 A 
ATOM     25  C   UNL     1       8.724  11.453  17.805  0.00  0.00    +0.000 A 
ATOM     26  C   UNL     1       9.150  12.528  18.590  0.00  0.00    +0.000 A 
ATOM     27  C   UNL     1       9.610  12.310  19.887  0.00  0.00    +0.000 A 
ATOM     28  C   UNL     1       9.633  11.018  20.406  0.00  0.00    +0.000 A 
ATOM     29  C   UNL     1       9.202   9.944  19.625  0.00  0.00    +0.000 A 
ENDBRANCH  23  24
ENDBRANCH  10  23
TORSDOF 4
ENDMDL
MODEL 4
REMARK VINA RESULT:      -8.6      4.595      7.496
REMARK  Name = 
REMARK  4 active torsions:
REMARK  status: ('A' for Active; 'I' for Inactive)
REMARK    1  A    between atoms: N_7  and  C_8
REMARK    2  A    between atoms: C_8  and  C_9
REMARK    3  A    between atoms: N_17  and  C_18
REMARK    4  A    between atoms: C_18  and  C_19
REMARK                            x       y       z     vdW  Elec       q    Type
REMARK                         _______ _______ _______ _____ _____    ______ ____
ROOT
ATOM      1 CL   UNL     1       2.205   1.862  21.829  0.00  0.00    +0.000 Cl
ATOM      2  C   UNL     1       2.407   3.306  20.920  0.00  0.00    +0.000 A 
ATOM      3  C   UNL     1       1.680   4.437  21.255  0.00  0.00    +0.000 A 
ATOM      4  C   UNL     1       1.857   5.600  20.508  0.00  0.00    +0.000 A 
ATOM      5  C   UNL     1       2.747   5.633  19.400  0.00  0.00    +0.000 A 
ATOM      6  C   UNL     1       2.951   6.730  18.548  0.00  0.00    +0.000 A 
ATOM      7  N   UNL     1       2.274   7.937  18.815  0.00  0.00    +0.000 N 
ATOM      8  N   UNL     1       3.831   6.680  17.534  0.00  0.00    +0.000 NA
ATOM      9  C   UNL     1       4.454   5.518  17.292  0.00  0.00    +0.000 A 
ATOM     10  N   UNL     1       5.285   5.481  16.183  0.00  0.00    +0.000 N 
ATOM     11  N   UNL     1       4.298   4.418  18.034  0.00  0.00    +0.000 NA
ATOM     12  C   UNL     1       3.466   4.475  19.073  0.00  0.00    +0.000 A 
ATOM     13  C   UNL     1       3.297   3.334  19.846  0.00  0.00    +0.000 A 
ATOM     14  H   UNL     1       1.347   7.749  19.183  0.00  0.00    +0.000 HD
ATOM     15  H   UNL     1       6.125   6.001  16.417  0.00  0.00    +0.000 HD
ENDROOT
BRANCH   7  16
ATOM     16  C   UNL     1       2.136   8.853  17.686  0.00  0.00    +0.000 C 
BRANCH  16  17
ATOM     17  C   UNL     1       1.135   9.924  18.082  0.00  0.00    +0.000 A 
ATOM     18  C   UNL     1      -0.239   9.703  17.889  0.00  0.00    +0.000 A 
ATOM     19  C   UNL     1      -1.172  10.694  18.195  0.00  0.00    +0.000 A 
ATOM     20  C   UNL     1      -0.747  11.917  18.700  0.00  0.00    +0.000 A 
ATOM     21  C   UNL     1       0.614  12.153  18.900  0.00  0.00    +0.000 A 
ATOM     22  C   UNL     1       1.552  11.163  18.593  0.00  0.00    +0.000 A 
ENDBRANCH  16  17
ENDBRANCH   7  16
BRANCH  10  23
ATOM     23  C   UNL     1       5.565   4.159  15.654  0.00  0.00    +0.000 C 
BRANCH  23  24
ATOM     24  C   UNL     1       6.242   4.256  14.299  0.00  0.00    +0.000 A 
ATOM     25  C   UNL     1       5.764   3.499  13.218  0.00  0.00    +0.000 A 
ATOM     26  C   UNL     1       6.340   3.623  11.951  0.00  0.00    +0.000 A 
ATOM     27  C   UNL     1       7.394   4.511  11.743  0.00  0.00    +0.000 A 
ATOM     28  C   UNL     1       7.864   5.287  12.800  0.00  0.00    +0.000 A 
ATOM     29  C   UNL     1       7.286   5.167  14.065  0.00  0.00    +0.000 A 
ENDBRANCH  23  24
ENDBRANCH  10  23
TORSDOF 4
ENDMDL
MODEL 5
REMARK VINA RESULT:      -8.5      4.467      7.539
REMARK  Name = 
REMARK  4 active torsions:
REMARK  status: ('A' for Active; 'I' for Inactive)
REMARK    1  A    between atoms: N_7  and  C_8
REMARK    2  A    between atoms: C_8  and  C_9
REMARK    3  A    between atoms: N_17  and  C_18
REMARK    4  A    between atoms: C_18  and  C_19
REMARK                            x       y       z     vdW  Elec       q    Type
REMARK                         _______ _______ _______ _____ _____    ______ ____
ROOT
ATOM      1 CL   UNL     1       2.136   1.801  21.747  0.00  0.00    +0.000 Cl
ATOM      2  C   UNL     1       2.384   3.252  20.862  0.00  0.00    +0.000 A 
ATOM      3  C   UNL     1       1.627   4.375  21.156  0.00  0.00    +0.000 A 
ATOM      4  C   UNL     1       1.842   5.544  20.429  0.00  0.00    +0.000 A 
ATOM      5  C   UNL     1       2.802   5.592  19.381  0.00  0.00    +0.000 A 
ATOM      6  C   UNL     1       3.051   6.696  18.550  0.00  0.00    +0.000 A 
ATOM      7  N   UNL     1       2.348   7.896  18.781  0.00  0.00    +0.000 N 
ATOM      8  N   UNL     1       3.995   6.660  17.596  0.00  0.00    +0.000 NA
ATOM      9  C   UNL     1       4.642   5.505  17.388  0.00  0.00    +0.000 A 
ATOM     10  N   UNL     1       5.543   5.482  16.335  0.00  0.00    +0.000 N 
ATOM     11  N   UNL     1       4.449   4.399  18.112  0.00  0.00    +0.000 NA
ATOM     12  C   UNL     1       3.551   4.442  19.095  0.00  0.00    +0.000 A 
ATOM     13  C   UNL     1       3.341   3.294  19.848  0.00  0.00    +0.000 A 
ATOM     14  H   UNL     1       1.401   7.698  19.086  0.00  0.00    +0.000 HD
ATOM     15  H   UNL     1       6.362   6.007  16.626  0.00  0.00    +0.000 HD
ENDROOT
BRANCH   7  16
ATOM     16  C   UNL     1       2.275   8.818  17.650  0.00  0.00    +0.000 C 
BRANCH  16  17
ATOM     17  C   UNL     1       1.571  10.075  18.128  0.00  0.00    +0.000 A 
ATOM     18  C   UNL     1       2.227  11.316  18.056  0.00  0.00    +0.000 A 
ATOM     19  C   UNL     1       1.620  12.475  18.539  0.00  0.00    +0.000 A 
ATOM     20  C   UNL     1       0.349  12.413  19.099  0.00  0.00    +0.000 A 
ATOM     21  C   UNL     1      -0.319  11.189  19.176  0.00  0.00    +0.000 A 
ATOM     22  C   UNL     1       0.287  10.025  18.695  0.00  0.00    +0.000 A 
ENDBRANCH  16  17
ENDBRANCH   7  16
BRANCH  10  23
ATOM     23  C   UNL     1       5.869   4.166  15.817  0.00  0.00    +0.000 C 
BRANCH  23  24
ATOM     24  C   UNL     1       6.322   4.255  14.371  0.00  0.00    +0.000 A 
ATOM     25  C   UNL     1       7.393   5.091  14.020  0.00  0.00    +0.000 A 
ATOM     26  C   UNL     1       7.859   5.137  12.703  0.00  0.00    +0.000 A 
ATOM     27  C   UNL     1       7.269   4.344  11.722  0.00  0.00    +0.000 A 
ATOM     28  C   UNL     1       6.220   3.491  12.058  0.00  0.00    +0.000 A 
ATOM     29  C   UNL     1       5.758   3.440  13.374  0.00  0.00    +0.000 A 
ENDBRANCH  23  24
ENDBRANCH  10  23
TORSDOF 4
ENDMDL
MODEL 6
REMARK VINA RESULT:      -8.5      4.714      7.540
REMARK  Name = 
REMARK  4 active torsions:
REMARK  status: ('A' for Active; 'I' for Inactive)
REMARK    1  A    between atoms: N_7  and  C_8
REMARK    2  A    between atoms: C_8  and  C_9
REMARK    3  A    between atoms: N_17  and  C_18
REMARK    4  A    between atoms: C_18  and  C_19
REMARK                            x       y       z     vdW  Elec       q    Type
REMARK                         _______ _______ _______ _____ _____    ______ ____
ROOT
ATOM      1 CL   UNL     1       1.482   2.432  21.948  0.00  0.00    +0.000 Cl
ATOM      2  C   UNL     1       2.245   3.228  20.629  0.00  0.00    +0.000 A 
ATOM      3  C   UNL     1       3.195   2.555  19.877  0.00  0.00    +0.000 A 
ATOM      4  C   UNL     1       3.803   3.214  18.811  0.00  0.00    +0.000 A 
ATOM      5  C   UNL     1       3.482   4.564  18.502  0.00  0.00    +0.000 A 
ATOM      6  C   UNL     1       4.079   5.337  17.493  0.00  0.00    +0.000 A 
ATOM      7  N   UNL     1       5.044   4.739  16.656  0.00  0.00    +0.000 N 
ATOM      8  N   UNL     1       3.697   6.602  17.256  0.00  0.00    +0.000 NA
ATOM      9  C   UNL     1       2.787   7.153  18.072  0.00  0.00    +0.000 A 
ATOM     10  N   UNL     1       2.487   8.488  17.851  0.00  0.00    +0.000 N 
ATOM     11  N   UNL     1       2.189   6.501  19.073  0.00  0.00    +0.000 NA
ATOM     12  C   UNL     1       2.524   5.228  19.281  0.00  0.00    +0.000 A 
ATOM     13  C   UNL     1       1.910   4.547  20.323  0.00  0.00    +0.000 A 
ATOM     14  H   UNL     1       5.603   4.074  17.181  0.00  0.00    +0.000 HD
ATOM     15  H   UNL     1       1.916   8.536  17.014  0.00  0.00    +0.000 HD
ENDROOT
BRANCH   7  16
ATOM     16  C   UNL     1       5.952   5.657  15.975  0.00  0.00    +0.000 C 
BRANCH  16  17
ATOM     17  C   UNL     1       6.267   5.066  14.613  0.00  0.00    +0.000 A 
ATOM     18  C   UNL     1       5.416   4.096  14.057  0.00  0.00    +0.000 A 
ATOM     19  C   UNL     1       5.716   3.500  12.832  0.00  0.00    +0.000 A 
ATOM     20  C   UNL     1       6.868   3.863  12.145  0.00  0.00    +0.000 A 
ATOM     21  C   UNL     1       7.724   4.826  12.681  0.00  0.00    +0.000 A 
ATOM     22  C   UNL     1       7.428   5.425  13.909  0.00  0.00    +0.000 A 
ENDBRANCH  16  17
ENDBRANCH   7  16
BRANCH  10  23
ATOM     23  C   UNL     1       1.901   9.192  18.978  0.00  0.00    +0.000 C 
BRANCH  23  24
ATOM     24  C   UNL     1       0.686   9.990  18.538  0.00  0.00    +0.000 A 
ATOM     25  C   UNL     1      -0.333   9.369  17.798  0.00  0.00    +0.000 A 
ATOM     26  C   UNL     1      -1.483  10.076  17.438  0.00  0.00    +0.000 A 
ATOM     27  C   UNL     1      -1.638  11.407  17.819  0.00  0.00    +0.000 A 
ATOM     28  C   UNL     1      -0.647  12.030  18.574  0.00  0.00    +0.000 A 
ATOM     29  C   UNL     1       0.500  11.324  18.939  0.00  0.00    +0.000 A 
ENDBRANCH  23  24
ENDBRANCH  10  23
TORSDOF 4
ENDMDL
MODEL 7
REMARK VINA RESULT:      -8.4      0.723      1.226
REMARK  Name = 
REMARK  4 active torsions:
REMARK  status: ('A' for Active; 'I' for Inactive)
REMARK    1  A    between atoms: N_7  and  C_8
REMARK    2  A    between atoms: C_8  and  C_9
REMARK    3  A    between atoms: N_17  and  C_18
REMARK    4  A    between atoms: C_18  and  C_19
REMARK                            x       y       z     vdW  Elec       q    Type
REMARK                         _______ _______ _______ _____ _____    ______ ____
ROOT
ATOM      1 CL   UNL     1       7.246   4.218  12.050  0.00  0.00    +0.000 Cl
ATOM      2  C   UNL     1       6.763   4.492  13.676  0.00  0.00    +0.000 A 
ATOM      3  C   UNL     1       5.738   3.738  14.225  0.00  0.00    +0.000 A 
ATOM      4  C   UNL     1       5.360   3.973  15.545  0.00  0.00    +0.000 A 
ATOM      5  C   UNL     1       5.989   4.985  16.321  0.00  0.00    +0.000 A 
ATOM      6  C   UNL     1       5.643   5.342  17.634  0.00  0.00    +0.000 A 
ATOM      7  N   UNL     1       4.625   4.621  18.292  0.00  0.00    +0.000 N 
ATOM      8  N   UNL     1       6.307   6.299  18.302  0.00  0.00    +0.000 NA
ATOM      9  C   UNL     1       7.262   6.979  17.652  0.00  0.00    +0.000 A 
ATOM     10  N   UNL     1       7.863   8.018  18.345  0.00  0.00    +0.000 N 
ATOM     11  N   UNL     1       7.637   6.724  16.395  0.00  0.00    +0.000 NA
ATOM     12  C   UNL     1       7.018   5.741  15.743  0.00  0.00    +0.000 A 
ATOM     13  C   UNL     1       7.399   5.475  14.435  0.00  0.00    +0.000 A 
ATOM     14  H   UNL     1       3.901   4.352  17.635  0.00  0.00    +0.000 HD
ATOM     15  H   UNL     1       8.483   7.605  19.034  0.00  0.00    +0.000 HD
ENDROOT
BRANCH   7  16
ATOM     16  C   UNL     1       3.987   5.303  19.415  0.00  0.00    +0.000 C 
BRANCH  16  17
ATOM     17  C   UNL     1       2.916   4.377  19.965  0.00  0.00    +0.000 A 
ATOM     18  C   UNL     1       1.713   4.202  19.261  0.00  0.00    +0.000 A 
ATOM     19  C   UNL     1       0.694   3.400  19.775  0.00  0.00    +0.000 A 
ATOM     20  C   UNL     1       0.862   2.760  20.998  0.00  0.00    +0.000 A 
ATOM     21  C   UNL     1       2.052   2.921  21.710  0.00  0.00    +0.000 A 
ATOM     22  C   UNL     1       3.075   3.726  21.199  0.00  0.00    +0.000 A 
ENDBRANCH  16  17
ENDBRANCH   7  16
BRANCH  10  23
ATOM     23  C   UNL     1       8.516   9.023  17.526  0.00  0.00    +0.000 C 
BRANCH  23  24
ATOM     24  C   UNL     1       8.913  10.224  18.365  0.00  0.00    +0.000 A 
ATOM     25  C   UNL     1       8.801  11.520  17.837  0.00  0.00    +0.000 A 
ATOM     26  C   UNL     1       9.106  12.637  18.619  0.00  0.00    +0.000 A 
ATOM     27  C   UNL     1       9.518  12.477  19.940  0.00  0.00    +0.000 A 
ATOM     28  C   UNL     1       9.612  11.200  20.487  0.00  0.00    +0.000 A 
ATOM     29  C   UNL     1       9.302  10.084  19.708  0.00  0.00    +0.000 A 
ENDBRANCH  23  24
ENDBRANCH  10  23
TORSDOF 4
ENDMDL
MODEL 8
REMARK VINA RESULT:      -8.4      4.718      7.504
REMARK  Name = 
REMARK  4 active torsions:
REMARK  status: ('A' for Active; 'I' for Inactive)
REMARK    1  A    between atoms: N_7  and  C_8
REMARK    2  A    between atoms: C_8  and  C_9
REMARK    3  A    between atoms: N_17  and  C_18
REMARK    4  A    between atoms: C_18  and  C_19
REMARK                            x       y       z     vdW  Elec       q    Type
REMARK                         _______ _______ _______ _____ _____    ______ ____
ROOT
ATOM      1 CL   UNL     1       1.272   2.390  22.253  0.00  0.00    +0.000 Cl
ATOM      2  C   UNL     1       1.958   3.197  20.898  0.00  0.00    +0.000 A 
ATOM      3  C   UNL     1       2.828   2.516  20.062  0.00  0.00    +0.000 A 
ATOM      4  C   UNL     1       3.374   3.184  18.968  0.00  0.00    +0.000 A 
ATOM      5  C   UNL     1       3.073   4.550  18.716  0.00  0.00    +0.000 A 
ATOM      6  C   UNL     1       3.616   5.330  17.682  0.00  0.00    +0.000 A 
ATOM      7  N   UNL     1       4.497   4.726  16.762  0.00  0.00    +0.000 N 
ATOM      8  N   UNL     1       3.257   6.612  17.505  0.00  0.00    +0.000 NA
ATOM      9  C   UNL     1       2.427   7.167  18.398  0.00  0.00    +0.000 A 
ATOM     10  N   UNL     1       2.152   8.516  18.232  0.00  0.00    +0.000 N 
ATOM     11  N   UNL     1       1.885   6.508  19.427  0.00  0.00    +0.000 NA
ATOM     12  C   UNL     1       2.196   5.221  19.580  0.00  0.00    +0.000 A 
ATOM     13  C   UNL     1       1.641   4.532  20.649  0.00  0.00    +0.000 A 
ATOM     14  H   UNL     1       5.073   4.033  17.227  0.00  0.00    +0.000 HD
ATOM     15  H   UNL     1       1.521   8.601  17.441  0.00  0.00    +0.000 HD
ENDROOT
BRANCH   7  16
ATOM     16  C   UNL     1       5.379   5.635  16.036  0.00  0.00    +0.000 C 
BRANCH  16  17
ATOM     17  C   UNL     1       6.448   6.109  17.004  0.00  0.00    +0.000 A 
ATOM     18  C   UNL     1       6.979   5.218  17.953  0.00  0.00    +0.000 A 
ATOM     19  C   UNL     1       7.922   5.647  18.887  0.00  0.00    +0.000 A 
ATOM     20  C   UNL     1       8.349   6.970  18.888  0.00  0.00    +0.000 A 
ATOM     21  C   UNL     1       7.834   7.868  17.952  0.00  0.00    +0.000 A 
ATOM     22  C   UNL     1       6.888   7.443  17.015  0.00  0.00    +0.000 A 
ENDBRANCH  16  17
ENDBRANCH   7  16
BRANCH  10  23
ATOM     23  C   UNL     1       1.673   9.208  19.415  0.00  0.00    +0.000 C 
BRANCH  23  24
ATOM     24  C   UNL     1       0.331   9.866  19.145  0.00  0.00    +0.000 A 
ATOM     25  C   UNL     1      -0.232  10.730  20.097  0.00  0.00    +0.000 A 
ATOM     26  C   UNL     1      -1.437  11.389  19.836  0.00  0.00    +0.000 A 
ATOM     27  C   UNL     1      -2.090  11.202  18.620  0.00  0.00    +0.000 A 
ATOM     28  C   UNL     1      -1.532  10.366  17.655  0.00  0.00    +0.000 A 
ATOM     29  C   UNL     1      -0.326   9.712  17.913  0.00  0.00    +0.000 A 
ENDBRANCH  23  24
ENDBRANCH  10  23
TORSDOF 4
ENDMDL
MODEL 9
REMARK VINA RESULT:      -8.4      4.753      7.569
REMARK  Name = 
REMARK  4 active torsions:
REMARK  status: ('A' for Active; 'I' for Inactive)
REMARK    1  A    between atoms: N_7  and  C_8
REMARK    2  A    between atoms: C_8  and  C_9
REMARK    3  A    between atoms: N_17  and  C_18
REMARK    4  A    between atoms: C_18  and  C_19
REMARK                            x       y       z     vdW  Elec       q    Type
REMARK                         _______ _______ _______ _____ _____    ______ ____
ROOT
ATOM      1 CL   UNL     1       1.213   2.407  22.077  0.00  0.00    +0.000 Cl
ATOM      2  C   UNL     1       1.938   3.250  20.767  0.00  0.00    +0.000 A 
ATOM      3  C   UNL     1       2.854   2.600  19.955  0.00  0.00    +0.000 A 
ATOM      4  C   UNL     1       3.431   3.298  18.896  0.00  0.00    +0.000 A 
ATOM      5  C   UNL     1       3.116   4.664  18.656  0.00  0.00    +0.000 A 
ATOM      6  C   UNL     1       3.685   5.472  17.659  0.00  0.00    +0.000 A 
ATOM      7  N   UNL     1       4.614   4.901  16.765  0.00  0.00    +0.000 N 
ATOM      8  N   UNL     1       3.310   6.750  17.490  0.00  0.00    +0.000 NA
ATOM      9  C   UNL     1       2.436   7.275  18.360  0.00  0.00    +0.000 A 
ATOM     10  N   UNL     1       2.143   8.621  18.207  0.00  0.00    +0.000 N 
ATOM     11  N   UNL     1       1.865   6.587  19.353  0.00  0.00    +0.000 NA
ATOM     12  C   UNL     1       2.193   5.303  19.495  0.00  0.00    +0.000 A 
ATOM     13  C   UNL     1       1.608   4.584  20.529  0.00  0.00    +0.000 A 
ATOM     14  H   UNL     1       5.183   4.209  17.241  0.00  0.00    +0.000 HD
ATOM     15  H   UNL     1       1.544   8.710  17.392  0.00  0.00    +0.000 HD
ENDROOT
BRANCH   7  16
ATOM     16  C   UNL     1       5.508   5.838  16.092  0.00  0.00    +0.000 C 
BRANCH  16  17
ATOM     17  C   UNL     1       6.512   6.333  17.118  0.00  0.00    +0.000 A 
ATOM     18  C   UNL     1       6.986   7.654  17.053  0.00  0.00    +0.000 A 
ATOM     19  C   UNL     1       7.949   8.113  17.952  0.00  0.00    +0.000 A 
ATOM     20  C   UNL     1       8.451   7.261  18.929  0.00  0.00    +0.000 A 
ATOM     21  C   UNL     1       7.989   5.946  19.009  0.00  0.00    +0.000 A 
ATOM     22  C   UNL     1       7.025   5.482  18.109  0.00  0.00    +0.000 A 
ENDBRANCH  16  17
ENDBRANCH   7  16
BRANCH  10  23
ATOM     23  C   UNL     1       1.605   9.282  19.382  0.00  0.00    +0.000 C 
BRANCH  23  24
ATOM     24  C   UNL     1       0.303   9.991  19.049  0.00  0.00    +0.000 A 
ATOM     25  C   UNL     1      -0.382   9.683  17.864  0.00  0.00    +0.000 A 
ATOM     26  C   UNL     1      -1.610  10.283  17.574  0.00  0.00    +0.000 A 
ATOM     27  C   UNL     1      -2.175  11.191  18.467  0.00  0.00    +0.000 A 
ATOM     28  C   UNL     1      -1.519  11.490  19.659  0.00  0.00    +0.000 A 
ATOM     29  C   UNL     1      -0.295  10.886  19.951  0.00  0.00    +0.000 A 
ENDBRANCH  23  24
ENDBRANCH  10  23
TORSDOF 4
ENDMDL
