MODEL 1
REMARK VINA RESULT:      -8.6      0.000      0.000
REMARK  Name = 
REMARK  8 active torsions:
REMARK  status: ('A' for Active; 'I' for Inactive)
REMARK    1  A    between atoms: C_2  and  C_3
REMARK    2  A    between atoms: C_4  and  C_5
REMARK    3  A    between atoms: C_8  and  O_9
REMARK    4  A    between atoms: C_10  and  O_11
REMARK    5  A    between atoms: N_13  and  C_14
REMARK    6  A    between atoms: C_14  and  C_15
REMARK    7  A    between atoms: C_14  and  C_19
REMARK    8  A    between atoms: N_17  and  O_18
REMARK                            x       y       z     vdW  Elec       q    Type
REMARK                         _______ _______ _______ _____ _____    ______ ____
ROOT
ATOM      1  O   UNL     1       8.151   6.712  18.929  0.00  0.00    +0.000 OA
ATOM      2  C   UNL     1       7.826   7.374  17.953  0.00  0.00    +0.000 C 
ATOM      3  N   UNL     1       7.257   6.823  16.837  0.00  0.00    +0.000 N 
ATOM      4  H   UNL     1       7.088   7.390  16.016  0.00  0.00    +0.000 HD
ENDROOT
BRANCH   2   5
ATOM      5  C   UNL     1       8.117   8.821  17.820  0.00  0.00    +0.000 C 
ATOM      6  C   UNL     1       8.913   9.442  18.711  0.00  0.00    +0.000 C 
BRANCH   6   7
ATOM      7  C   UNL     1       9.307  10.855  18.585  0.00  0.00    +0.000 A 
ATOM      8  C   UNL     1      10.541  11.305  19.090  0.00  0.00    +0.000 A 
ATOM      9  C   UNL     1      10.922  12.650  18.964  0.00  0.00    +0.000 A 
ATOM     10  C   UNL     1      10.072  13.541  18.321  0.00  0.00    +0.000 A 
ATOM     11  C   UNL     1       8.866  13.097  17.796  0.00  0.00    +0.000 A 
ATOM     12  C   UNL     1       8.486  11.767  17.909  0.00  0.00    +0.000 A 
BRANCH  10  13
ATOM     13  O   UNL     1      10.370  14.865  18.173  0.00  0.00    +0.000 OA
ATOM     14  H   UNL     1      11.329  14.946  18.037  0.00  0.00    +0.000 HD
ENDBRANCH  10  13
BRANCH  11  15
ATOM     15  O   UNL     1       8.035  13.962  17.149  0.00  0.00    +0.000 OA
ATOM     16  H   UNL     1       7.399  14.249  17.834  0.00  0.00    +0.000 HD
ENDBRANCH  11  15
ENDBRANCH   6   7
ENDBRANCH   2   5
BRANCH   3  17
ATOM     17  C   UNL     1       6.955   5.389  16.743  0.00  0.00    +0.000 C 
BRANCH  17  18
ATOM     18  C   UNL     1       5.606   5.123  17.397  0.00  0.00    +0.000 A 
ATOM     19  C   UNL     1       5.476   4.138  18.390  0.00  0.00    +0.000 A 
ATOM     20  C   UNL     1       4.239   3.897  18.993  0.00  0.00    +0.000 A 
ATOM     21  C   UNL     1       3.122   4.643  18.622  0.00  0.00    +0.000 A 
ATOM     22  C   UNL     1       3.237   5.628  17.646  0.00  0.00    +0.000 A 
ATOM     23  C   UNL     1       4.469   5.866  17.033  0.00  0.00    +0.000 A 
ENDBRANCH  17  18
BRANCH  17  24
ATOM     24  C   UNL     1       7.010   4.849  15.284  0.00  0.00    +0.000 C 
ATOM     25  O   UNL     1       7.528   5.446  14.336  0.00  0.00    +0.000 OA
ATOM     26  N   UNL     1       6.328   3.666  15.068  0.00  0.00    +0.000 N 
ATOM     27  H   UNL     1       5.514   3.446  15.641  0.00  0.00    +0.000 HD
BRANCH  26  28
ATOM     28  O   UNL     1       6.257   3.256  13.712  0.00  0.00    +0.000 OA
ATOM     29  H   UNL     1       5.335   2.922  13.640  0.00  0.00    +0.000 HD
ENDBRANCH  26  28
ENDBRANCH  17  24
ENDBRANCH   3  17
TORSDOF 8
ENDMDL
MODEL 2
REMARK VINA RESULT:      -8.5      1.516      2.063
REMARK  Name = 
REMARK  8 active torsions:
REMARK  status: ('A' for Active; 'I' for Inactive)
REMARK    1  A    between atoms: C_2  and  C_3
REMARK    2  A    between atoms: C_4  and  C_5
REMARK    3  A    between atoms: C_8  and  O_9
REMARK    4  A    between atoms: C_10  and  O_11
REMARK    5  A    between atoms: N_13  and  C_14
REMARK    6  A    between atoms: C_14  and  C_15
REMARK    7  A    between atoms: C_14  and  C_19
REMARK    8  A    between atoms: N_17  and  O_18
REMARK                            x       y       z     vdW  Elec       q    Type
REMARK                         _______ _______ _______ _____ _____    ______ ____
ROOT
ATOM      1  O   UNL     1       7.949   5.073  18.804  0.00  0.00    +0.000 OA
ATOM      2  C   UNL     1       7.651   6.138  18.282  0.00  0.00    +0.000 C 
ATOM      3  N   UNL     1       6.819   6.226  17.198  0.00  0.00    +0.000 N 
ATOM      4  H   UNL     1       6.670   7.116  16.740  0.00  0.00    +0.000 HD
ENDROOT
BRANCH   2   5
ATOM      5  C   UNL     1       8.244   7.434  18.686  0.00  0.00    +0.000 C 
ATOM      6  C   UNL     1       8.100   8.523  17.909  0.00  0.00    +0.000 C 
BRANCH   6   7
ATOM      7  C   UNL     1       8.592   9.856  18.296  0.00  0.00    +0.000 A 
ATOM      8  C   UNL     1       8.344  10.978  17.486  0.00  0.00    +0.000 A 
ATOM      9  C   UNL     1       8.805  12.250  17.858  0.00  0.00    +0.000 A 
ATOM     10  C   UNL     1       9.504  12.399  19.048  0.00  0.00    +0.000 A 
ATOM     11  C   UNL     1       9.728  11.300  19.867  0.00  0.00    +0.000 A 
ATOM     12  C   UNL     1       9.268  10.040  19.510  0.00  0.00    +0.000 A 
BRANCH  10  13
ATOM     13  O   UNL     1       9.994  13.602  19.468  0.00  0.00    +0.000 OA
ATOM     14  H   UNL     1      10.199  13.533  20.416  0.00  0.00    +0.000 HD
ENDBRANCH  10  13
BRANCH  11  15
ATOM     15  O   UNL     1      10.399  11.443  21.044  0.00  0.00    +0.000 OA
ATOM     16  H   UNL     1       9.707  11.686  21.692  0.00  0.00    +0.000 HD
ENDBRANCH  11  15
ENDBRANCH   6   7
ENDBRANCH   2   5
BRANCH   3  17
ATOM     17  C   UNL     1       6.187   5.044  16.602  0.00  0.00    +0.000 C 
BRANCH  17  18
ATOM     18  C   UNL     1       4.734   4.977  17.052  0.00  0.00    +0.000 A 
ATOM     19  C   UNL     1       4.045   3.753  17.065  0.00  0.00    +0.000 A 
ATOM     20  C   UNL     1       2.714   3.692  17.483  0.00  0.00    +0.000 A 
ATOM     21  C   UNL     1       2.059   4.847  17.905  0.00  0.00    +0.000 A 
ATOM     22  C   UNL     1       2.730   6.065  17.907  0.00  0.00    +0.000 A 
ATOM     23  C   UNL     1       4.057   6.134  17.480  0.00  0.00    +0.000 A 
ENDBRANCH  17  18
BRANCH  17  24
ATOM     24  C   UNL     1       6.316   5.000  15.051  0.00  0.00    +0.000 C 
ATOM     25  O   UNL     1       5.497   4.471  14.295  0.00  0.00    +0.000 OA
ATOM     26  N   UNL     1       7.497   5.512  14.544  0.00  0.00    +0.000 N 
ATOM     27  H   UNL     1       8.345   5.466  15.108  0.00  0.00    +0.000 HD
BRANCH  26  28
ATOM     28  O   UNL     1       7.673   5.337  13.148  0.00  0.00    +0.000 OA
ATOM     29  H   UNL     1       7.193   6.110  12.776  0.00  0.00    +0.000 HD
ENDBRANCH  26  28
ENDBRANCH  17  24
ENDBRANCH   3  17
TORSDOF 8
ENDMDL
MODEL 3
REMARK VINA RESULT:      -8.5      1.175      1.530
REMARK  Name = 
REMARK  8 active torsions:
REMARK  status: ('A' for Active; 'I' for Inactive)
REMARK    1  A    between atoms: C_2  and  C_3
REMARK    2  A    between atoms: C_4  and  C_5
REMARK    3  A    between atoms: C_8  and  O_9
REMARK    4  A    between atoms: C_10  and  O_11
REMARK    5  A    between atoms: N_13  and  C_14
REMARK    6  A    between atoms: C_14  and  C_15
REMARK    7  A    between atoms: C_14  and  C_19
REMARK    8  A    between atoms: N_17  and  O_18
REMARK                            x       y       z     vdW  Elec       q    Type
REMARK                         _______ _______ _______ _____ _____    ______ ____
ROOT
ATOM      1  O   UNL     1       7.924   5.002  19.037  0.00  0.00    +0.000 OA
ATOM      2  C   UNL     1       7.680   6.014  18.396  0.00  0.00    +0.000 C 
ATOM      3  N   UNL     1       6.939   6.005  17.246  0.00  0.00    +0.000 N 
ATOM      4  H   UNL     1       6.837   6.848  16.696  0.00  0.00    +0.000 HD
ENDROOT
BRANCH   2   5
ATOM      5  C   UNL     1       8.254   7.340  18.725  0.00  0.00    +0.000 C 
ATOM      6  C   UNL     1       8.064   8.389  17.904  0.00  0.00    +0.000 C 
BRANCH   6   7
ATOM      7  C   UNL     1       8.536   9.749  18.217  0.00  0.00    +0.000 A 
ATOM      8  C   UNL     1       9.484   9.966  19.233  0.00  0.00    +0.000 A 
ATOM      9  C   UNL     1       9.940  11.260  19.527  0.00  0.00    +0.000 A 
ATOM     10  C   UNL     1       9.456  12.335  18.793  0.00  0.00    +0.000 A 
ATOM     11  C   UNL     1       8.542  12.124  17.770  0.00  0.00    +0.000 A 
ATOM     12  C   UNL     1       8.092  10.847  17.468  0.00  0.00    +0.000 A 
BRANCH  10  13
ATOM     13  O   UNL     1       9.845  13.622  19.031  0.00  0.00    +0.000 OA
ATOM     14  H   UNL     1      10.815  13.661  18.978  0.00  0.00    +0.000 HD
ENDBRANCH  10  13
BRANCH  11  15
ATOM     15  O   UNL     1       8.076  13.173  17.035  0.00  0.00    +0.000 OA
ATOM     16  H   UNL     1       8.877  13.680  16.796  0.00  0.00    +0.000 HD
ENDBRANCH  11  15
ENDBRANCH   6   7
ENDBRANCH   2   5
BRANCH   3  17
ATOM     17  C   UNL     1       6.343   4.774  16.713  0.00  0.00    +0.000 C 
BRANCH  17  18
ATOM     18  C   UNL     1       4.867   4.737  17.083  0.00  0.00    +0.000 A 
ATOM     19  C   UNL     1       4.159   3.524  17.076  0.00  0.00    +0.000 A 
ATOM     20  C   UNL     1       2.806   3.489  17.421  0.00  0.00    +0.000 A 
ATOM     21  C   UNL     1       2.146   4.660  17.788  0.00  0.00    +0.000 A 
ATOM     22  C   UNL     1       2.836   5.869  17.808  0.00  0.00    +0.000 A 
ATOM     23  C   UNL     1       4.186   5.910  17.454  0.00  0.00    +0.000 A 
ENDBRANCH  17  18
BRANCH  17  24
ATOM     24  C   UNL     1       6.562   4.605  15.180  0.00  0.00    +0.000 C 
ATOM     25  O   UNL     1       6.130   3.662  14.512  0.00  0.00    +0.000 OA
ATOM     26  N   UNL     1       7.390   5.546  14.597  0.00  0.00    +0.000 N 
ATOM     27  H   UNL     1       8.129   5.976  15.153  0.00  0.00    +0.000 HD
BRANCH  26  28
ATOM     28  O   UNL     1       7.704   5.303  13.235  0.00  0.00    +0.000 OA
ATOM     29  H   UNL     1       7.962   6.197  12.915  0.00  0.00    +0.000 HD
ENDBRANCH  26  28
ENDBRANCH  17  24
ENDBRANCH   3  17
TORSDOF 8
ENDMDL
MODEL 4
REMARK VINA RESULT:      -8.4      0.904      1.308
REMARK  Name = 
REMARK  8 active torsions:
REMARK  status: ('A' for Active; 'I' for Inactive)
REMARK    1  A    between atoms: C_2  and  C_3
REMARK    2  A    between atoms: C_4  and  C_5
REMARK    3  A    between atoms: C_8  and  O_9
REMARK    4  A    between atoms: C_10  and  O_11
REMARK    5  A    between atoms: N_13  and  C_14
REMARK    6  A    between atoms: C_14  and  C_15
REMARK    7  A    between atoms: C_14  and  C_19
REMARK    8  A    between atoms: N_17  and  O_18
REMARK                            x       y       z     vdW  Elec       q    Type
REMARK                         _______ _______ _______ _____ _____    ______ ____
ROOT
ATOM      1  O   UNL     1       8.136   6.532  18.982  0.00  0.00    +0.000 OA
ATOM      2  C   UNL     1       7.868   7.297  18.066  0.00  0.00    +0.000 C 
ATOM      3  N   UNL     1       7.211   6.898  16.934  0.00  0.00    +0.000 N 
ATOM      4  H   UNL     1       7.090   7.540  16.161  0.00  0.00    +0.000 HD
ENDROOT
BRANCH   2   5
ATOM      5  C   UNL     1       8.323   8.706  18.027  0.00  0.00    +0.000 C 
ATOM      6  C   UNL     1       8.911   9.265  19.100  0.00  0.00    +0.000 C 
BRANCH   6   7
ATOM      7  C   UNL     1       9.461  10.631  19.095  0.00  0.00    +0.000 A 
ATOM      8  C   UNL     1       9.876  11.245  20.290  0.00  0.00    +0.000 A 
ATOM      9  C   UNL     1      10.408  12.543  20.286  0.00  0.00    +0.000 A 
ATOM     10  C   UNL     1      10.534  13.222  19.081  0.00  0.00    +0.000 A 
ATOM     11  C   UNL     1      10.152  12.611  17.894  0.00  0.00    +0.000 A 
ATOM     12  C   UNL     1       9.633  11.324  17.889  0.00  0.00    +0.000 A 
BRANCH  10  13
ATOM     13  O   UNL     1      11.030  14.492  19.000  0.00  0.00    +0.000 OA
ATOM     14  H   UNL     1      11.949  14.479  19.317  0.00  0.00    +0.000 HD
ENDBRANCH  10  13
BRANCH  11  15
ATOM     15  O   UNL     1      10.289  13.266  16.706  0.00  0.00    +0.000 OA
ATOM     16  H   UNL     1      10.407  12.554  16.046  0.00  0.00    +0.000 HD
ENDBRANCH  11  15
ENDBRANCH   6   7
ENDBRANCH   2   5
BRANCH   3  17
ATOM     17  C   UNL     1       6.741   5.520  16.750  0.00  0.00    +0.000 C 
BRANCH  17  18
ATOM     18  C   UNL     1       5.289   5.427  17.195  0.00  0.00    +0.000 A 
ATOM     19  C   UNL     1       4.475   6.572  17.224  0.00  0.00    +0.000 A 
ATOM     20  C   UNL     1       3.141   6.485  17.628  0.00  0.00    +0.000 A 
ATOM     21  C   UNL     1       2.599   5.255  17.996  0.00  0.00    +0.000 A 
ATOM     22  C   UNL     1       3.390   4.110  17.964  0.00  0.00    +0.000 A 
ATOM     23  C   UNL     1       4.727   4.193  17.571  0.00  0.00    +0.000 A 
ENDBRANCH  17  18
BRANCH  17  24
ATOM     24  C   UNL     1       6.937   4.999  15.295  0.00  0.00    +0.000 C 
ATOM     25  O   UNL     1       7.574   5.591  14.420  0.00  0.00    +0.000 OA
ATOM     26  N   UNL     1       6.242   3.844  14.985  0.00  0.00    +0.000 N 
ATOM     27  H   UNL     1       5.365   3.644  15.463  0.00  0.00    +0.000 HD
BRANCH  26  28
ATOM     28  O   UNL     1       6.306   3.456  13.623  0.00  0.00    +0.000 OA
ATOM     29  H   UNL     1       7.260   3.246  13.507  0.00  0.00    +0.000 HD
ENDBRANCH  26  28
ENDBRANCH  17  24
ENDBRANCH   3  17
TORSDOF 8
ENDMDL
MODEL 5
REMARK VINA RESULT:      -8.4      1.180      1.276
REMARK  Name = 
REMARK  8 active torsions:
REMARK  status: ('A' for Active; 'I' for Inactive)
REMARK    1  A    between atoms: C_2  and  C_3
REMARK    2  A    between atoms: C_4  and  C_5
REMARK    3  A    between atoms: C_8  and  O_9
REMARK    4  A    between atoms: C_10  and  O_11
REMARK    5  A    between atoms: N_13  and  C_14
REMARK    6  A    between atoms: C_14  and  C_15
REMARK    7  A    between atoms: C_14  and  C_19
REMARK    8  A    between atoms: N_17  and  O_18
REMARK                            x       y       z     vdW  Elec       q    Type
REMARK                         _______ _______ _______ _____ _____    ______ ____
ROOT
ATOM      1  O   UNL     1       8.296   7.138  18.789  0.00  0.00    +0.000 OA
ATOM      2  C   UNL     1       7.799   7.829  17.911  0.00  0.00    +0.000 C 
ATOM      3  N   UNL     1       6.830   7.368  17.062  0.00  0.00    +0.000 N 
ATOM      4  H   UNL     1       6.511   7.941  16.290  0.00  0.00    +0.000 HD
ENDROOT
BRANCH   2   5
ATOM      5  C   UNL     1       8.270   9.197  17.591  0.00  0.00    +0.000 C 
ATOM      6  C   UNL     1       8.965   9.909  18.497  0.00  0.00    +0.000 C 
BRANCH   6   7
ATOM      7  C   UNL     1       9.533  11.237  18.210  0.00  0.00    +0.000 A 
ATOM      8  C   UNL     1      10.924  11.420  18.112  0.00  0.00    +0.000 A 
ATOM      9  C   UNL     1      11.466  12.683  17.830  0.00  0.00    +0.000 A 
ATOM     10  C   UNL     1      10.612  13.761  17.634  0.00  0.00    +0.000 A 
ATOM     11  C   UNL     1       9.237  13.582  17.701  0.00  0.00    +0.000 A 
ATOM     12  C   UNL     1       8.693  12.334  17.971  0.00  0.00    +0.000 A 
BRANCH  10  13
ATOM     13  O   UNL     1      11.067  15.021  17.369  0.00  0.00    +0.000 OA
ATOM     14  H   UNL     1      11.496  15.011  16.497  0.00  0.00    +0.000 HD
ENDBRANCH  10  13
BRANCH  11  15
ATOM     15  O   UNL     1       8.394  14.632  17.494  0.00  0.00    +0.000 OA
ATOM     16  H   UNL     1       8.783  15.112  16.735  0.00  0.00    +0.000 HD
ENDBRANCH  11  15
ENDBRANCH   6   7
ENDBRANCH   2   5
BRANCH   3  17
ATOM     17  C   UNL     1       6.281   6.011  17.169  0.00  0.00    +0.000 C 
BRANCH  17  18
ATOM     18  C   UNL     1       4.954   6.070  17.912  0.00  0.00    +0.000 A 
ATOM     19  C   UNL     1       4.711   5.225  19.008  0.00  0.00    +0.000 A 
ATOM     20  C   UNL     1       3.496   5.283  19.694  0.00  0.00    +0.000 A 
ATOM     21  C   UNL     1       2.514   6.191  19.303  0.00  0.00    +0.000 A 
ATOM     22  C   UNL     1       2.743   7.040  18.225  0.00  0.00    +0.000 A 
ATOM     23  C   UNL     1       3.952   6.980  17.530  0.00  0.00    +0.000 A 
ENDBRANCH  17  18
BRANCH  17  24
ATOM     24  C   UNL     1       6.143   5.299  15.790  0.00  0.00    +0.000 C 
ATOM     25  O   UNL     1       5.242   4.509  15.498  0.00  0.00    +0.000 OA
ATOM     26  N   UNL     1       7.184   5.521  14.906  0.00  0.00    +0.000 N 
ATOM     27  H   UNL     1       8.117   5.709  15.270  0.00  0.00    +0.000 HD
BRANCH  26  28
ATOM     28  O   UNL     1       7.126   4.757  13.713  0.00  0.00    +0.000 OA
ATOM     29  H   UNL     1       8.054   4.442  13.620  0.00  0.00    +0.000 HD
ENDBRANCH  26  28
ENDBRANCH  17  24
ENDBRANCH   3  17
TORSDOF 8
ENDMDL
MODEL 6
REMARK VINA RESULT:      -8.3      0.969      1.425
REMARK  Name = 
REMARK  8 active torsions:
REMARK  status: ('A' for Active; 'I' for Inactive)
REMARK    1  A    between atoms: C_2  and  C_3
REMARK    2  A    between atoms: C_4  and  C_5
REMARK    3  A    between atoms: C_8  and  O_9
REMARK    4  A    between atoms: C_10  and  O_11
REMARK    5  A    between atoms: N_13  and  C_14
REMARK    6  A    between atoms: C_14  and  C_15
REMARK    7  A    between atoms: C_14  and  C_19
REMARK    8  A    between atoms: N_17  and  O_18
REMARK                            x       y       z     vdW  Elec       q    Type
REMARK                         _______ _______ _______ _____ _____    ______ ____
ROOT
ATOM      1  O   UNL     1       8.123   6.779  18.699  0.00  0.00    +0.000 OA
ATOM      2  C   UNL     1       7.664   7.606  17.923  0.00  0.00    +0.000 C 
ATOM      3  N   UNL     1       6.787   7.280  16.924  0.00  0.00    +0.000 N 
ATOM      4  H   UNL     1       6.503   7.976  16.246  0.00  0.00    +0.000 HD
ENDROOT
BRANCH   2   5
ATOM      5  C   UNL     1       8.095   9.023  17.900  0.00  0.00    +0.000 C 
ATOM      6  C   UNL     1       8.965   9.488  18.815  0.00  0.00    +0.000 C 
BRANCH   6   7
ATOM      7  C   UNL     1       9.496  10.861  18.793  0.00  0.00    +0.000 A 
ATOM      8  C   UNL     1      10.663  11.193  19.504  0.00  0.00    +0.000 A 
ATOM      9  C   UNL     1      11.174  12.500  19.478  0.00  0.00    +0.000 A 
ATOM     10  C   UNL     1      10.522  13.471  18.729  0.00  0.00    +0.000 A 
ATOM     11  C   UNL     1       9.385  13.143  18.003  0.00  0.00    +0.000 A 
ATOM     12  C   UNL     1       8.878  11.851  18.017  0.00  0.00    +0.000 A 
BRANCH  10  13
ATOM     13  O   UNL     1      10.953  14.765  18.667  0.00  0.00    +0.000 OA
ATOM     14  H   UNL     1      11.600  14.903  19.379  0.00  0.00    +0.000 HD
ENDBRANCH  10  13
BRANCH  11  15
ATOM     15  O   UNL     1       8.750  14.087  17.252  0.00  0.00    +0.000 OA
ATOM     16  H   UNL     1       7.922  13.654  16.963  0.00  0.00    +0.000 HD
ENDBRANCH  11  15
ENDBRANCH   6   7
ENDBRANCH   2   5
BRANCH   3  17
ATOM     17  C   UNL     1       6.295   5.911  16.734  0.00  0.00    +0.000 C 
BRANCH  17  18
ATOM     18  C   UNL     1       4.906   5.793  17.345  0.00  0.00    +0.000 A 
ATOM     19  C   UNL     1       4.070   6.917  17.442  0.00  0.00    +0.000 A 
ATOM     20  C   UNL     1       2.793   6.808  17.997  0.00  0.00    +0.000 A 
ATOM     21  C   UNL     1       2.330   5.574  18.450  0.00  0.00    +0.000 A 
ATOM     22  C   UNL     1       3.143   4.449  18.352  0.00  0.00    +0.000 A 
ATOM     23  C   UNL     1       4.423   4.555  17.808  0.00  0.00    +0.000 A 
ENDBRANCH  17  18
BRANCH  17  24
ATOM     24  C   UNL     1       6.315   5.457  15.244  0.00  0.00    +0.000 C 
ATOM     25  O   UNL     1       5.348   4.978  14.646  0.00  0.00    +0.000 OA
ATOM     26  N   UNL     1       7.551   5.520  14.626  0.00  0.00    +0.000 N 
ATOM     27  H   UNL     1       8.396   5.405  15.185  0.00  0.00    +0.000 HD
BRANCH  26  28
ATOM     28  O   UNL     1       7.593   4.970  13.320  0.00  0.00    +0.000 OA
ATOM     29  H   UNL     1       7.921   4.058  13.486  0.00  0.00    +0.000 HD
ENDBRANCH  26  28
ENDBRANCH  17  24
ENDBRANCH   3  17
TORSDOF 8
ENDMDL
MODEL 7
REMARK VINA RESULT:      -8.3      1.068      1.971
REMARK  Name = 
REMARK  8 active torsions:
REMARK  status: ('A' for Active; 'I' for Inactive)
REMARK    1  A    between atoms: C_2  and  C_3
REMARK    2  A    between atoms: C_4  and  C_5
REMARK    3  A    between atoms: C_8  and  O_9
REMARK    4  A    between atoms: C_10  and  O_11
REMARK    5  A    between atoms: N_13  and  C_14
REMARK    6  A    between atoms: C_14  and  C_15
REMARK    7  A    between atoms: C_14  and  C_19
REMARK    8  A    between atoms: N_17  and  O_18
REMARK                            x       y       z     vdW  Elec       q    Type
REMARK                         _______ _______ _______ _____ _____    ______ ____
ROOT
ATOM      1  O   UNL     1       8.053   6.718  18.744  0.00  0.00    +0.000 OA
ATOM      2  C   UNL     1       7.661   7.467  17.860  0.00  0.00    +0.000 C 
ATOM      3  N   UNL     1       6.847   7.051  16.840  0.00  0.00    +0.000 N 
ATOM      4  H   UNL     1       6.621   7.679  16.079  0.00  0.00    +0.000 HD
ENDROOT
BRANCH   2   5
ATOM      5  C   UNL     1       8.113   8.871  17.727  0.00  0.00    +0.000 C 
ATOM      6  C   UNL     1       8.815   9.459  18.713  0.00  0.00    +0.000 C 
BRANCH   6   7
ATOM      7  C   UNL     1       9.364  10.821  18.605  0.00  0.00    +0.000 A 
ATOM      8  C   UNL     1       8.710  11.803  17.838  0.00  0.00    +0.000 A 
ATOM      9  C   UNL     1       9.228  13.104  17.741  0.00  0.00    +0.000 A 
ATOM     10  C   UNL     1      10.394  13.424  18.423  0.00  0.00    +0.000 A 
ATOM     11  C   UNL     1      11.029  12.468  19.205  0.00  0.00    +0.000 A 
ATOM     12  C   UNL     1      10.519  11.182  19.312  0.00  0.00    +0.000 A 
BRANCH  10  13
ATOM     13  O   UNL     1      10.963  14.664  18.366  0.00  0.00    +0.000 OA
ATOM     14  H   UNL     1      10.551  15.219  19.049  0.00  0.00    +0.000 HD
ENDBRANCH  10  13
BRANCH  11  15
ATOM     15  O   UNL     1      12.165  12.781  19.890  0.00  0.00    +0.000 OA
ATOM     16  H   UNL     1      11.904  12.733  20.831  0.00  0.00    +0.000 HD
ENDBRANCH  11  15
ENDBRANCH   6   7
ENDBRANCH   2   5
BRANCH   3  17
ATOM     17  C   UNL     1       6.349   5.674  16.753  0.00  0.00    +0.000 C 
BRANCH  17  18
ATOM     18  C   UNL     1       4.972   5.602  17.397  0.00  0.00    +0.000 A 
ATOM     19  C   UNL     1       4.129   6.725  17.407  0.00  0.00    +0.000 A 
ATOM     20  C   UNL     1       2.862   6.658  17.993  0.00  0.00    +0.000 A 
ATOM     21  C   UNL     1       2.418   5.467  18.565  0.00  0.00    +0.000 A 
ATOM     22  C   UNL     1       3.239   4.343  18.555  0.00  0.00    +0.000 A 
ATOM     23  C   UNL     1       4.509   4.409  17.980  0.00  0.00    +0.000 A 
ENDBRANCH  17  18
BRANCH  17  24
ATOM     24  C   UNL     1       6.339   5.120  15.297  0.00  0.00    +0.000 C 
ATOM     25  O   UNL     1       5.514   4.312  14.862  0.00  0.00    +0.000 OA
ATOM     26  N   UNL     1       7.407   5.512  14.511  0.00  0.00    +0.000 N 
ATOM     27  H   UNL     1       8.304   5.716  14.951  0.00  0.00    +0.000 HD
BRANCH  26  28
ATOM     28  O   UNL     1       7.471   4.890  13.238  0.00  0.00    +0.000 OA
ATOM     29  H   UNL     1       8.211   5.371  12.805  0.00  0.00    +0.000 HD
ENDBRANCH  26  28
ENDBRANCH  17  24
ENDBRANCH   3  17
TORSDOF 8
ENDMDL
MODEL 8
REMARK VINA RESULT:      -8.3      0.899      1.549
REMARK  Name = 
REMARK  8 active torsions:
REMARK  status: ('A' for Active; 'I' for Inactive)
REMARK    1  A    between atoms: C_2  and  C_3
REMARK    2  A    between atoms: C_4  and  C_5
REMARK    3  A    between atoms: C_8  and  O_9
REMARK    4  A    between atoms: C_10  and  O_11
REMARK    5  A    between atoms: N_13  and  C_14
REMARK    6  A    between atoms: C_14  and  C_15
REMARK    7  A    between atoms: C_14  and  C_19
REMARK    8  A    between atoms: N_17  and  O_18
REMARK                            x       y       z     vdW  Elec       q    Type
REMARK                         _______ _______ _______ _____ _____    ______ ____
ROOT
ATOM      1  O   UNL     1       8.149   6.572  18.632  0.00  0.00    +0.000 OA
ATOM      2  C   UNL     1       7.647   7.335  17.819  0.00  0.00    +0.000 C 
ATOM      3  N   UNL     1       6.807   6.913  16.824  0.00  0.00    +0.000 N 
ATOM      4  H   UNL     1       6.486   7.561  16.116  0.00  0.00    +0.000 HD
ENDROOT
BRANCH   2   5
ATOM      5  C   UNL     1       7.980   8.777  17.746  0.00  0.00    +0.000 C 
ATOM      6  C   UNL     1       8.805   9.334  18.651  0.00  0.00    +0.000 C 
BRANCH   6   7
ATOM      7  C   UNL     1       9.241  10.739  18.582  0.00  0.00    +0.000 A 
ATOM      8  C   UNL     1       8.542  11.672  17.795  0.00  0.00    +0.000 A 
ATOM      9  C   UNL     1       8.951  13.013  17.735  0.00  0.00    +0.000 A 
ATOM     10  C   UNL     1      10.053  13.422  18.474  0.00  0.00    +0.000 A 
ATOM     11  C   UNL     1      10.731  12.512  19.275  0.00  0.00    +0.000 A 
ATOM     12  C   UNL     1      10.327  11.186  19.347  0.00  0.00    +0.000 A 
BRANCH  10  13
ATOM     13  O   UNL     1      10.517  14.705  18.455  0.00  0.00    +0.000 OA
ATOM     14  H   UNL     1       9.861  15.271  18.897  0.00  0.00    +0.000 HD
ENDBRANCH  10  13
BRANCH  11  15
ATOM     15  O   UNL     1      11.803  12.910  20.016  0.00  0.00    +0.000 OA
ATOM     16  H   UNL     1      12.579  12.677  19.469  0.00  0.00    +0.000 HD
ENDBRANCH  11  15
ENDBRANCH   6   7
ENDBRANCH   2   5
BRANCH   3  17
ATOM     17  C   UNL     1       6.412   5.507  16.682  0.00  0.00    +0.000 C 
BRANCH  17  18
ATOM     18  C   UNL     1       4.961   5.352  17.115  0.00  0.00    +0.000 A 
ATOM     19  C   UNL     1       4.356   4.085  17.147  0.00  0.00    +0.000 A 
ATOM     20  C   UNL     1       3.026   3.943  17.550  0.00  0.00    +0.000 A 
ATOM     21  C   UNL     1       2.288   5.060  17.936  0.00  0.00    +0.000 A 
ATOM     22  C   UNL     1       2.876   6.321  17.918  0.00  0.00    +0.000 A 
ATOM     23  C   UNL     1       4.202   6.470  17.506  0.00  0.00    +0.000 A 
ENDBRANCH  17  18
BRANCH  17  24
ATOM     24  C   UNL     1       6.653   4.948  15.248  0.00  0.00    +0.000 C 
ATOM     25  O   UNL     1       7.080   5.614  14.301  0.00  0.00    +0.000 OA
ATOM     26  N   UNL     1       6.247   3.641  15.049  0.00  0.00    +0.000 N 
ATOM     27  H   UNL     1       5.470   3.270  15.596  0.00  0.00    +0.000 HD
BRANCH  26  28
ATOM     28  O   UNL     1       6.332   3.186  13.709  0.00  0.00    +0.000 OA
ATOM     29  H   UNL     1       5.387   3.125  13.446  0.00  0.00    +0.000 HD
ENDBRANCH  26  28
ENDBRANCH  17  24
ENDBRANCH   3  17
TORSDOF 8
ENDMDL
MODEL 9
REMARK VINA RESULT:      -8.3      1.405      2.128
REMARK  Name = 
REMARK  8 active torsions:
REMARK  status: ('A' for Active; 'I' for Inactive)
REMARK    1  A    between atoms: C_2  and  C_3
REMARK    2  A    between atoms: C_4  and  C_5
REMARK    3  A    between atoms: C_8  and  O_9
REMARK    4  A    between atoms: C_10  and  O_11
REMARK    5  A    between atoms: N_13  and  C_14
REMARK    6  A    between atoms: C_14  and  C_15
REMARK    7  A    between atoms: C_14  and  C_19
REMARK    8  A    between atoms: N_17  and  O_18
REMARK                            x       y       z     vdW  Elec       q    Type
REMARK                         _______ _______ _______ _____ _____    ______ ____
ROOT
ATOM      1  O   UNL     1       7.784   5.332  19.170  0.00  0.00    +0.000 OA
ATOM      2  C   UNL     1       7.718   6.317  18.449  0.00  0.00    +0.000 C 
ATOM      3  N   UNL     1       7.079   6.310  17.238  0.00  0.00    +0.000 N 
ATOM      4  H   UNL     1       7.126   7.119  16.631  0.00  0.00    +0.000 HD
ENDROOT
BRANCH   2   5
ATOM      5  C   UNL     1       8.417   7.589  18.747  0.00  0.00    +0.000 C 
ATOM      6  C   UNL     1       8.081   8.721  18.102  0.00  0.00    +0.000 C 
BRANCH   6   7
ATOM      7  C   UNL     1       8.679  10.030  18.414  0.00  0.00    +0.000 A 
ATOM      8  C   UNL     1       8.501  11.127  17.551  0.00  0.00    +0.000 A 
ATOM      9  C   UNL     1       9.063  12.377  17.851  0.00  0.00    +0.000 A 
ATOM     10  C   UNL     1       9.793  12.531  19.023  0.00  0.00    +0.000 A 
ATOM     11  C   UNL     1       9.948  11.460  19.892  0.00  0.00    +0.000 A 
ATOM     12  C   UNL     1       9.388  10.223  19.607  0.00  0.00    +0.000 A 
BRANCH  10  13
ATOM     13  O   UNL     1      10.379  13.713  19.373  0.00  0.00    +0.000 OA
ATOM     14  H   UNL     1       9.675  14.356  19.565  0.00  0.00    +0.000 HD
ENDBRANCH  10  13
BRANCH  11  15
ATOM     15  O   UNL     1      10.649  11.610  21.052  0.00  0.00    +0.000 OA
ATOM     16  H   UNL     1       9.963  11.667  21.747  0.00  0.00    +0.000 HD
ENDBRANCH  11  15
ENDBRANCH   6   7
ENDBRANCH   2   5
BRANCH   3  17
ATOM     17  C   UNL     1       6.387   5.121  16.729  0.00  0.00    +0.000 C 
BRANCH  17  18
ATOM     18  C   UNL     1       4.957   5.118  17.250  0.00  0.00    +0.000 A 
ATOM     19  C   UNL     1       4.253   6.323  17.413  0.00  0.00    +0.000 A 
ATOM     20  C   UNL     1       2.939   6.319  17.886  0.00  0.00    +0.000 A 
ATOM     21  C   UNL     1       2.307   5.115  18.190  0.00  0.00    +0.000 A 
ATOM     22  C   UNL     1       2.988   3.913  18.025  0.00  0.00    +0.000 A 
ATOM     23  C   UNL     1       4.305   3.911  17.562  0.00  0.00    +0.000 A 
ENDBRANCH  17  18
BRANCH  17  24
ATOM     24  C   UNL     1       6.440   5.003  15.176  0.00  0.00    +0.000 C 
ATOM     25  O   UNL     1       5.596   4.419  14.491  0.00  0.00    +0.000 OA
ATOM     26  N   UNL     1       7.581   5.513  14.586  0.00  0.00    +0.000 N 
ATOM     27  H   UNL     1       8.457   5.512  15.107  0.00  0.00    +0.000 HD
BRANCH  26  28
ATOM     28  O   UNL     1       7.691   5.272  13.193  0.00  0.00    +0.000 OA
ATOM     29  H   UNL     1       8.339   5.956  12.910  0.00  0.00    +0.000 HD
ENDBRANCH  26  28
ENDBRANCH  17  24
ENDBRANCH   3  17
TORSDOF 8
ENDMDL
