MODEL 1
REMARK VINA RESULT:      -8.2      0.000      0.000
REMARK  Name = 
REMARK  4 active torsions:
REMARK  status: ('A' for Active; 'I' for Inactive)
REMARK    1  A    between atoms: C_2  and  C_21
REMARK    2  A    between atoms: N_3  and  C_4
REMARK    3  A    between atoms: C_7  and  N_8
REMARK    4  A    between atoms: C_9  and  C_11
REMARK                            x       y       z     vdW  Elec       q    Type
REMARK                         _______ _______ _______ _____ _____    ______ ____
ROOT
ATOM      1  C   UNL     1       2.014   8.452  18.669  0.00  0.00    +0.000 A 
ATOM      2  C   UNL     1       1.780   8.267  20.023  0.00  0.00    +0.000 A 
ATOM      3  C   UNL     1       0.821   9.020  20.691  0.00  0.00    +0.000 A 
ATOM      4  C   UNL     1       0.069   9.993  20.035  0.00  0.00    +0.000 A 
ATOM      5  C   UNL     1       0.295  10.184  18.667  0.00  0.00    +0.000 A 
ATOM      6  C   UNL     1       1.271   9.425  17.990  0.00  0.00    +0.000 A 
ENDROOT
BRANCH   1   9
ATOM      7  O   UNL     1       2.541   5.556  18.776  0.00  0.00    +0.000 OA
ATOM      8  C   UNL     1       3.193   6.339  18.093  0.00  0.00    +0.000 C 
ATOM      9  N   UNL     1       2.979   7.704  17.966  0.00  0.00    +0.000 N 
ATOM     10  H   UNL     1       3.525   8.208  17.275  0.00  0.00    +0.000 HD
BRANCH   8  11
ATOM     11  C   UNL     1       4.320   5.763  17.327  0.00  0.00    +0.000 A 
ATOM     12  C   UNL     1       5.498   6.525  17.209  0.00  0.00    +0.000 A 
ATOM     13  C   UNL     1       6.593   6.011  16.517  0.00  0.00    +0.000 A 
ATOM     14  C   UNL     1       6.513   4.740  15.960  0.00  0.00    +0.000 A 
ATOM     15  F   UNL     1       7.569   4.241  15.302  0.00  0.00    +0.000 F 
ATOM     16  C   UNL     1       5.363   3.972  16.073  0.00  0.00    +0.000 A 
ATOM     17  C   UNL     1       4.267   4.494  16.754  0.00  0.00    +0.000 A 
ATOM     18  F   UNL     1       3.161   3.741  16.854  0.00  0.00    +0.000 F 
ENDBRANCH   8  11
ENDBRANCH   1   9
BRANCH   4  19
ATOM     19  N   UNL     1      -0.897  10.784  20.704  0.00  0.00    +0.000 N 
ATOM     20  C   UNL     1      -0.611  11.900  21.480  0.00  0.00    +0.000 C 
ATOM     21  O   UNL     1       0.507  12.369  21.674  0.00  0.00    +0.000 OA
ATOM     22  H   UNL     1      -1.868  10.517  20.585  0.00  0.00    +0.000 HD
BRANCH  20  23
ATOM     23  C   UNL     1      -1.726  12.616  22.145  0.00  0.00    +0.000 A 
ATOM     24  C   UNL     1      -2.017  13.916  21.686  0.00  0.00    +0.000 A 
ATOM     25  C   UNL     1      -3.024  14.674  22.277  0.00  0.00    +0.000 A 
ATOM     26  C   UNL     1      -3.747  14.131  23.329  0.00  0.00    +0.000 A 
ATOM     27  F   UNL     1      -4.709  14.860  23.907  0.00  0.00    +0.000 F 
ATOM     28  C   UNL     1      -3.491  12.843  23.790  0.00  0.00    +0.000 A 
ATOM     29  C   UNL     1      -2.480  12.090  23.194  0.00  0.00    +0.000 A 
ATOM     30  F   UNL     1      -2.250  10.851  23.656  0.00  0.00    +0.000 F 
ENDBRANCH  20  23
ENDBRANCH   4  19
TORSDOF 4
ENDMDL
MODEL 2
REMARK VINA RESULT:      -8.2      0.238     10.935
REMARK  Name = 
REMARK  4 active torsions:
REMARK  status: ('A' for Active; 'I' for Inactive)
REMARK    1  A    between atoms: C_2  and  C_21
REMARK    2  A    between atoms: N_3  and  C_4
REMARK    3  A    between atoms: C_7  and  N_8
REMARK    4  A    between atoms: C_9  and  C_11
REMARK                            x       y       z     vdW  Elec       q    Type
REMARK                         _______ _______ _______ _____ _____    ______ ____
ROOT
ATOM      1  C   UNL     1      -0.001  10.178  19.938  0.00  0.00    +0.000 A 
ATOM      2  C   UNL     1       0.220  10.320  18.576  0.00  0.00    +0.000 A 
ATOM      3  C   UNL     1       1.177   9.551  17.925  0.00  0.00    +0.000 A 
ATOM      4  C   UNL     1       1.956   8.620  18.609  0.00  0.00    +0.000 A 
ATOM      5  C   UNL     1       1.738   8.467  19.983  0.00  0.00    +0.000 A 
ATOM      6  C   UNL     1       0.772   9.251  20.646  0.00  0.00    +0.000 A 
ENDROOT
BRANCH   1   9
ATOM      7  O   UNL     1       0.409  12.483  21.725  0.00  0.00    +0.000 OA
ATOM      8  C   UNL     1      -0.692  12.001  21.482  0.00  0.00    +0.000 C 
ATOM      9  N   UNL     1      -0.963  10.944  20.626  0.00  0.00    +0.000 N 
ATOM     10  H   UNL     1      -1.935  10.726  20.432  0.00  0.00    +0.000 HD
BRANCH   8  11
ATOM     11  C   UNL     1      -1.847  12.615  22.175  0.00  0.00    +0.000 A 
ATOM     12  C   UNL     1      -2.294  13.872  21.728  0.00  0.00    +0.000 A 
ATOM     13  C   UNL     1      -3.394  14.477  22.335  0.00  0.00    +0.000 A 
ATOM     14  C   UNL     1      -4.046  13.821  23.374  0.00  0.00    +0.000 A 
ATOM     15  F   UNL     1      -5.108  14.397  23.953  0.00  0.00    +0.000 F 
ATOM     16  C   UNL     1      -3.622  12.578  23.822  0.00  0.00    +0.000 A 
ATOM     17  C   UNL     1      -2.517  11.983  23.221  0.00  0.00    +0.000 A 
ATOM     18  F   UNL     1      -2.118  10.782  23.666  0.00  0.00    +0.000 F 
ENDBRANCH   8  11
ENDBRANCH   1   9
BRANCH   4  19
ATOM     19  N   UNL     1       2.950   7.843  17.966  0.00  0.00    +0.000 N 
ATOM     20  C   UNL     1       3.133   6.478  18.145  0.00  0.00    +0.000 C 
ATOM     21  O   UNL     1       2.447   5.753  18.861  0.00  0.00    +0.000 OA
ATOM     22  H   UNL     1       3.558   8.327  17.313  0.00  0.00    +0.000 HD
BRANCH  20  23
ATOM     23  C   UNL     1       4.236   5.800  17.424  0.00  0.00    +0.000 A 
ATOM     24  C   UNL     1       5.447   6.509  17.295  0.00  0.00    +0.000 A 
ATOM     25  C   UNL     1       6.525   5.963  16.603  0.00  0.00    +0.000 A 
ATOM     26  C   UNL     1       6.395   4.702  16.041  0.00  0.00    +0.000 A 
ATOM     27  F   UNL     1       7.424   4.177  15.365  0.00  0.00    +0.000 F 
ATOM     28  C   UNL     1       5.216   3.975  16.168  0.00  0.00    +0.000 A 
ATOM     29  C   UNL     1       4.140   4.528  16.862  0.00  0.00    +0.000 A 
ATOM     30  F   UNL     1       3.013   3.808  16.972  0.00  0.00    +0.000 F 
ENDBRANCH  20  23
ENDBRANCH   4  19
TORSDOF 4
ENDMDL
MODEL 3
REMARK VINA RESULT:      -8.1      0.902      1.299
REMARK  Name = 
REMARK  4 active torsions:
REMARK  status: ('A' for Active; 'I' for Inactive)
REMARK    1  A    between atoms: C_2  and  C_21
REMARK    2  A    between atoms: N_3  and  C_4
REMARK    3  A    between atoms: C_7  and  N_8
REMARK    4  A    between atoms: C_9  and  C_11
REMARK                            x       y       z     vdW  Elec       q    Type
REMARK                         _______ _______ _______ _____ _____    ______ ____
ROOT
ATOM      1  C   UNL     1       1.898   8.526  18.701  0.00  0.00    +0.000 A 
ATOM      2  C   UNL     1       1.647   8.355  20.054  0.00  0.00    +0.000 A 
ATOM      3  C   UNL     1       0.677   9.110  20.701  0.00  0.00    +0.000 A 
ATOM      4  C   UNL     1      -0.072  10.072  20.025  0.00  0.00    +0.000 A 
ATOM      5  C   UNL     1       0.171  10.249  18.658  0.00  0.00    +0.000 A 
ATOM      6  C   UNL     1       1.159   9.488  18.002  0.00  0.00    +0.000 A 
ENDROOT
BRANCH   1   9
ATOM      7  O   UNL     1       2.457   5.640  18.870  0.00  0.00    +0.000 OA
ATOM      8  C   UNL     1       3.104   6.416  18.174  0.00  0.00    +0.000 C 
ATOM      9  N   UNL     1       2.875   7.776  18.018  0.00  0.00    +0.000 N 
ATOM     10  H   UNL     1       3.419   8.272  17.320  0.00  0.00    +0.000 HD
BRANCH   8  11
ATOM     11  C   UNL     1       4.243   5.838  17.426  0.00  0.00    +0.000 A 
ATOM     12  C   UNL     1       5.433   6.584  17.352  0.00  0.00    +0.000 A 
ATOM     13  C   UNL     1       6.539   6.067  16.679  0.00  0.00    +0.000 A 
ATOM     14  C   UNL     1       6.455   4.808  16.096  0.00  0.00    +0.000 A 
ATOM     15  F   UNL     1       7.520   4.307  15.455  0.00  0.00    +0.000 F 
ATOM     16  C   UNL     1       5.291   4.056  16.165  0.00  0.00    +0.000 A 
ATOM     17  C   UNL     1       4.186   4.580  16.828  0.00  0.00    +0.000 A 
ATOM     18  F   UNL     1       3.067   3.842  16.885  0.00  0.00    +0.000 F 
ENDBRANCH   8  11
ENDBRANCH   1   9
BRANCH   4  19
ATOM     19  N   UNL     1      -1.050  10.866  20.673  0.00  0.00    +0.000 N 
ATOM     20  C   UNL     1      -0.776  11.923  21.531  0.00  0.00    +0.000 C 
ATOM     21  O   UNL     1       0.344  12.332  21.826  0.00  0.00    +0.000 OA
ATOM     22  H   UNL     1      -2.021  10.648  20.474  0.00  0.00    +0.000 HD
BRANCH  20  23
ATOM     23  C   UNL     1      -1.905  12.648  22.161  0.00  0.00    +0.000 A 
ATOM     24  C   UNL     1      -2.560  12.007  23.230  0.00  0.00    +0.000 A 
ATOM     25  C   UNL     1      -3.653  12.599  23.858  0.00  0.00    +0.000 A 
ATOM     26  C   UNL     1      -4.092  13.839  23.417  0.00  0.00    +0.000 A 
ATOM     27  F   UNL     1      -5.149  14.408  24.009  0.00  0.00    +0.000 F 
ATOM     28  C   UNL     1      -3.452  14.500  22.373  0.00  0.00    +0.000 A 
ATOM     29  C   UNL     1      -2.359  13.900  21.750  0.00  0.00    +0.000 A 
ATOM     30  F   UNL     1      -1.758  14.557  20.745  0.00  0.00    +0.000 F 
ENDBRANCH  20  23
ENDBRANCH   4  19
TORSDOF 4
ENDMDL
MODEL 4
REMARK VINA RESULT:      -8.1      0.905     10.971
REMARK  Name = 
REMARK  4 active torsions:
REMARK  status: ('A' for Active; 'I' for Inactive)
REMARK    1  A    between atoms: C_2  and  C_21
REMARK    2  A    between atoms: N_3  and  C_4
REMARK    3  A    between atoms: C_7  and  N_8
REMARK    4  A    between atoms: C_9  and  C_11
REMARK                            x       y       z     vdW  Elec       q    Type
REMARK                         _______ _______ _______ _____ _____    ______ ____
ROOT
ATOM      1  C   UNL     1       0.010  10.120  20.001  0.00  0.00    +0.000 A 
ATOM      2  C   UNL     1       0.752   9.160  20.673  0.00  0.00    +0.000 A 
ATOM      3  C   UNL     1       1.718   8.411  20.011  0.00  0.00    +0.000 A 
ATOM      4  C   UNL     1       1.971   8.583  18.652  0.00  0.00    +0.000 A 
ATOM      5  C   UNL     1       1.230   9.552  17.965  0.00  0.00    +0.000 A 
ATOM      6  C   UNL     1       0.247  10.308  18.634  0.00  0.00    +0.000 A 
ENDROOT
BRANCH   1   9
ATOM      7  O   UNL     1       0.361  12.442  21.777  0.00  0.00    +0.000 OA
ATOM      8  C   UNL     1      -0.732  11.960  21.499  0.00  0.00    +0.000 C 
ATOM      9  N   UNL     1      -0.974  10.894  20.645  0.00  0.00    +0.000 N 
ATOM     10  H   UNL     1      -1.939  10.676  20.419  0.00  0.00    +0.000 HD
BRANCH   8  11
ATOM     11  C   UNL     1      -1.910  12.583  22.144  0.00  0.00    +0.000 A 
ATOM     12  C   UNL     1      -2.492  11.921  23.241  0.00  0.00    +0.000 A 
ATOM     13  C   UNL     1      -3.587  12.484  23.893  0.00  0.00    +0.000 A 
ATOM     14  C   UNL     1      -4.086  13.706  23.458  0.00  0.00    +0.000 A 
ATOM     15  F   UNL     1      -5.134  14.253  24.090  0.00  0.00    +0.000 F 
ATOM     16  C   UNL     1      -3.521  14.376  22.382  0.00  0.00    +0.000 A 
ATOM     17  C   UNL     1      -2.434  13.805  21.726  0.00  0.00    +0.000 A 
ATOM     18  F   UNL     1      -1.899  14.464  20.687  0.00  0.00    +0.000 F 
ENDBRANCH   8  11
ENDBRANCH   1   9
BRANCH   4  19
ATOM     19  N   UNL     1       2.936   7.814  17.956  0.00  0.00    +0.000 N 
ATOM     20  C   UNL     1       3.363   6.547  18.331  0.00  0.00    +0.000 C 
ATOM     21  O   UNL     1       2.950   5.908  19.296  0.00  0.00    +0.000 OA
ATOM     22  H   UNL     1       3.324   8.222  17.112  0.00  0.00    +0.000 HD
BRANCH  20  23
ATOM     23  C   UNL     1       4.404   5.871  17.519  0.00  0.00    +0.000 A 
ATOM     24  C   UNL     1       5.630   6.546  17.361  0.00  0.00    +0.000 A 
ATOM     25  C   UNL     1       6.651   6.001  16.586  0.00  0.00    +0.000 A 
ATOM     26  C   UNL     1       6.448   4.775  15.970  0.00  0.00    +0.000 A 
ATOM     27  F   UNL     1       7.422   4.253  15.215  0.00  0.00    +0.000 F 
ATOM     28  C   UNL     1       5.252   4.081  16.124  0.00  0.00    +0.000 A 
ATOM     29  C   UNL     1       4.234   4.634  16.901  0.00  0.00    +0.000 A 
ATOM     30  F   UNL     1       3.089   3.946  17.035  0.00  0.00    +0.000 F 
ENDBRANCH  20  23
ENDBRANCH   4  19
TORSDOF 4
ENDMDL
MODEL 5
REMARK VINA RESULT:      -8.0      1.382      1.896
REMARK  Name = 
REMARK  4 active torsions:
REMARK  status: ('A' for Active; 'I' for Inactive)
REMARK    1  A    between atoms: C_2  and  C_21
REMARK    2  A    between atoms: N_3  and  C_4
REMARK    3  A    between atoms: C_7  and  N_8
REMARK    4  A    between atoms: C_9  and  C_11
REMARK                            x       y       z     vdW  Elec       q    Type
REMARK                         _______ _______ _______ _____ _____    ______ ____
ROOT
ATOM      1  C   UNL     1       2.089   8.129  18.711  0.00  0.00    +0.000 A 
ATOM      2  C   UNL     1       1.926   7.885  20.066  0.00  0.00    +0.000 A 
ATOM      3  C   UNL     1       1.083   8.676  20.837  0.00  0.00    +0.000 A 
ATOM      4  C   UNL     1       0.380   9.747  20.288  0.00  0.00    +0.000 A 
ATOM      5  C   UNL     1       0.534   9.998  18.919  0.00  0.00    +0.000 A 
ATOM      6  C   UNL     1       1.394   9.201  18.138  0.00  0.00    +0.000 A 
ENDROOT
BRANCH   1   9
ATOM      7  O   UNL     1       3.774   5.841  19.485  0.00  0.00    +0.000 OA
ATOM      8  C   UNL     1       3.730   6.297  18.347  0.00  0.00    +0.000 C 
ATOM      9  N   UNL     1       2.936   7.344  17.904  0.00  0.00    +0.000 N 
ATOM     10  H   UNL     1       2.919   7.539  16.909  0.00  0.00    +0.000 HD
BRANCH   8  11
ATOM     11  C   UNL     1       4.618   5.659  17.348  0.00  0.00    +0.000 A 
ATOM     12  C   UNL     1       4.241   4.403  16.836  0.00  0.00    +0.000 A 
ATOM     13  C   UNL     1       5.034   3.778  15.875  0.00  0.00    +0.000 A 
ATOM     14  C   UNL     1       6.187   4.411  15.424  0.00  0.00    +0.000 A 
ATOM     15  F   UNL     1       6.946   3.813  14.495  0.00  0.00    +0.000 F 
ATOM     16  C   UNL     1       6.569   5.652  15.914  0.00  0.00    +0.000 A 
ATOM     17  C   UNL     1       5.781   6.268  16.881  0.00  0.00    +0.000 A 
ATOM     18  F   UNL     1       6.163   7.466  17.346  0.00  0.00    +0.000 F 
ENDBRANCH   8  11
ENDBRANCH   1   9
BRANCH   4  19
ATOM     19  N   UNL     1      -0.467  10.576  21.062  0.00  0.00    +0.000 N 
ATOM     20  C   UNL     1      -0.070  11.746  21.698  0.00  0.00    +0.000 C 
ATOM     21  O   UNL     1       1.057  12.235  21.657  0.00  0.00    +0.000 OA
ATOM     22  H   UNL     1      -1.439  10.296  21.137  0.00  0.00    +0.000 HD
BRANCH  20  23
ATOM     23  C   UNL     1      -1.062  12.499  22.501  0.00  0.00    +0.000 A 
ATOM     24  C   UNL     1      -2.211  11.799  22.920  0.00  0.00    +0.000 A 
ATOM     25  C   UNL     1      -3.211  12.438  23.648  0.00  0.00    +0.000 A 
ATOM     26  C   UNL     1      -3.062  13.781  23.963  0.00  0.00    +0.000 A 
ATOM     27  F   UNL     1      -4.026  14.402  24.653  0.00  0.00    +0.000 F 
ATOM     28  C   UNL     1      -1.930  14.490  23.575  0.00  0.00    +0.000 A 
ATOM     29  C   UNL     1      -0.932  13.844  22.846  0.00  0.00    +0.000 A 
ATOM     30  F   UNL     1       0.151  14.548  22.483  0.00  0.00    +0.000 F 
ENDBRANCH  20  23
ENDBRANCH   4  19
TORSDOF 4
ENDMDL
MODEL 6
REMARK VINA RESULT:      -8.0      1.276      1.496
REMARK  Name = 
REMARK  4 active torsions:
REMARK  status: ('A' for Active; 'I' for Inactive)
REMARK    1  A    between atoms: C_2  and  C_21
REMARK    2  A    between atoms: N_3  and  C_4
REMARK    3  A    between atoms: C_7  and  N_8
REMARK    4  A    between atoms: C_9  and  C_11
REMARK                            x       y       z     vdW  Elec       q    Type
REMARK                         _______ _______ _______ _____ _____    ______ ____
ROOT
ATOM      1  C   UNL     1       1.708   8.732  18.757  0.00  0.00    +0.000 A 
ATOM      2  C   UNL     1       1.204   8.386  20.002  0.00  0.00    +0.000 A 
ATOM      3  C   UNL     1       0.442   9.285  20.739  0.00  0.00    +0.000 A 
ATOM      4  C   UNL     1       0.164  10.566  20.267  0.00  0.00    +0.000 A 
ATOM      5  C   UNL     1       0.664  10.923  19.009  0.00  0.00    +0.000 A 
ATOM      6  C   UNL     1       1.442  10.015  18.264  0.00  0.00    +0.000 A 
ENDROOT
BRANCH   1   9
ATOM      7  O   UNL     1       3.125   6.299  19.622  0.00  0.00    +0.000 OA
ATOM      8  C   UNL     1       3.153   6.728  18.473  0.00  0.00    +0.000 C 
ATOM      9  N   UNL     1       2.483   7.843  17.988  0.00  0.00    +0.000 N 
ATOM     10  H   UNL     1       2.506   8.012  16.988  0.00  0.00    +0.000 HD
BRANCH   8  11
ATOM     11  C   UNL     1       3.987   5.976  17.509  0.00  0.00    +0.000 A 
ATOM     12  C   UNL     1       4.963   6.685  16.784  0.00  0.00    +0.000 A 
ATOM     13  C   UNL     1       5.788   6.012  15.885  0.00  0.00    +0.000 A 
ATOM     14  C   UNL     1       5.643   4.638  15.722  0.00  0.00    +0.000 A 
ATOM     15  F   UNL     1       6.441   3.989  14.863  0.00  0.00    +0.000 F 
ATOM     16  C   UNL     1       4.690   3.923  16.433  0.00  0.00    +0.000 A 
ATOM     17  C   UNL     1       3.861   4.600  17.323  0.00  0.00    +0.000 A 
ATOM     18  F   UNL     1       2.944   3.896  18.002  0.00  0.00    +0.000 F 
ENDBRANCH   8  11
ENDBRANCH   1   9
BRANCH   4  19
ATOM     19  N   UNL     1      -0.593  11.502  21.013  0.00  0.00    +0.000 N 
ATOM     20  C   UNL     1      -0.732  11.491  22.395  0.00  0.00    +0.000 C 
ATOM     21  O   UNL     1      -0.203  10.690  23.161  0.00  0.00    +0.000 OA
ATOM     22  H   UNL     1      -1.048  12.243  20.490  0.00  0.00    +0.000 HD
BRANCH  20  23
ATOM     23  C   UNL     1      -1.582  12.522  23.039  0.00  0.00    +0.000 A 
ATOM     24  C   UNL     1      -2.867  12.122  23.456  0.00  0.00    +0.000 A 
ATOM     25  C   UNL     1      -3.744  13.033  24.038  0.00  0.00    +0.000 A 
ATOM     26  C   UNL     1      -3.336  14.348  24.208  0.00  0.00    +0.000 A 
ATOM     27  F   UNL     1      -4.180  15.229  24.757  0.00  0.00    +0.000 F 
ATOM     28  C   UNL     1      -2.067  14.763  23.819  0.00  0.00    +0.000 A 
ATOM     29  C   UNL     1      -1.193  13.846  23.236  0.00  0.00    +0.000 A 
ATOM     30  F   UNL     1       0.026  14.270  22.869  0.00  0.00    +0.000 F 
ENDBRANCH  20  23
ENDBRANCH   4  19
TORSDOF 4
ENDMDL
MODEL 7
REMARK VINA RESULT:      -7.9      1.061      1.431
REMARK  Name = 
REMARK  4 active torsions:
REMARK  status: ('A' for Active; 'I' for Inactive)
REMARK    1  A    between atoms: C_2  and  C_21
REMARK    2  A    between atoms: N_3  and  C_4
REMARK    3  A    between atoms: C_7  and  N_8
REMARK    4  A    between atoms: C_9  and  C_11
REMARK                            x       y       z     vdW  Elec       q    Type
REMARK                         _______ _______ _______ _____ _____    ______ ____
ROOT
ATOM      1  C   UNL     1       2.185   8.198  18.575  0.00  0.00    +0.000 A 
ATOM      2  C   UNL     1       1.909   7.920  19.906  0.00  0.00    +0.000 A 
ATOM      3  C   UNL     1       1.021   8.707  20.630  0.00  0.00    +0.000 A 
ATOM      4  C   UNL     1       0.384   9.806  20.057  0.00  0.00    +0.000 A 
ATOM      5  C   UNL     1       0.652  10.091  18.713  0.00  0.00    +0.000 A 
ATOM      6  C   UNL     1       1.557   9.298  17.980  0.00  0.00    +0.000 A 
ENDROOT
BRANCH   1   9
ATOM      7  O   UNL     1       3.798   5.886  19.429  0.00  0.00    +0.000 OA
ATOM      8  C   UNL     1       3.835   6.359  18.297  0.00  0.00    +0.000 C 
ATOM      9  N   UNL     1       3.080   7.419  17.817  0.00  0.00    +0.000 N 
ATOM     10  H   UNL     1       3.132   7.627  16.826  0.00  0.00    +0.000 HD
BRANCH   8  11
ATOM     11  C   UNL     1       4.785   5.729  17.352  0.00  0.00    +0.000 A 
ATOM     12  C   UNL     1       4.435   4.485  16.795  0.00  0.00    +0.000 A 
ATOM     13  C   UNL     1       5.288   3.868  15.881  0.00  0.00    +0.000 A 
ATOM     14  C   UNL     1       6.474   4.497  15.521  0.00  0.00    +0.000 A 
ATOM     15  F   UNL     1       7.290   3.908  14.637  0.00  0.00    +0.000 F 
ATOM     16  C   UNL     1       6.831   5.727  16.056  0.00  0.00    +0.000 A 
ATOM     17  C   UNL     1       5.982   6.335  16.977  0.00  0.00    +0.000 A 
ATOM     18  F   UNL     1       6.341   7.522  17.486  0.00  0.00    +0.000 F 
ENDBRANCH   8  11
ENDBRANCH   1   9
BRANCH   4  19
ATOM     19  N   UNL     1      -0.508  10.631  20.785  0.00  0.00    +0.000 N 
ATOM     20  C   UNL     1      -0.145  11.784  21.470  0.00  0.00    +0.000 C 
ATOM     21  O   UNL     1       0.986  12.260  21.519  0.00  0.00    +0.000 OA
ATOM     22  H   UNL     1      -1.486  10.361  20.784  0.00  0.00    +0.000 HD
BRANCH  20  23
ATOM     23  C   UNL     1      -1.184  12.534  22.214  0.00  0.00    +0.000 A 
ATOM     24  C   UNL     1      -1.312  13.907  21.927  0.00  0.00    +0.000 A 
ATOM     25  C   UNL     1      -2.239  14.696  22.603  0.00  0.00    +0.000 A 
ATOM     26  C   UNL     1      -3.044  14.110  23.570  0.00  0.00    +0.000 A 
ATOM     27  F   UNL     1      -3.928  14.867  24.232  0.00  0.00    +0.000 F 
ATOM     28  C   UNL     1      -2.948  12.753  23.861  0.00  0.00    +0.000 A 
ATOM     29  C   UNL     1      -2.017  11.970  23.180  0.00  0.00    +0.000 A 
ATOM     30  F   UNL     1      -1.943  10.663  23.478  0.00  0.00    +0.000 F 
ENDBRANCH  20  23
ENDBRANCH   4  19
TORSDOF 4
ENDMDL
MODEL 8
REMARK VINA RESULT:      -7.9      1.114      1.148
REMARK  Name = 
REMARK  4 active torsions:
REMARK  status: ('A' for Active; 'I' for Inactive)
REMARK    1  A    between atoms: C_2  and  C_21
REMARK    2  A    between atoms: N_3  and  C_4
REMARK    3  A    between atoms: C_7  and  N_8
REMARK    4  A    between atoms: C_9  and  C_11
REMARK                            x       y       z     vdW  Elec       q    Type
REMARK                         _______ _______ _______ _____ _____    ______ ____
ROOT
ATOM      1  C   UNL     1       1.956   8.553  18.833  0.00  0.00    +0.000 A 
ATOM      2  C   UNL     1       1.574   8.464  20.164  0.00  0.00    +0.000 A 
ATOM      3  C   UNL     1       0.509   9.210  20.653  0.00  0.00    +0.000 A 
ATOM      4  C   UNL     1      -0.209  10.081  19.835  0.00  0.00    +0.000 A 
ATOM      5  C   UNL     1       0.165  10.175  18.490  0.00  0.00    +0.000 A 
ATOM      6  C   UNL     1       1.249   9.424  17.995  0.00  0.00    +0.000 A 
ENDROOT
BRANCH   1   9
ATOM      7  O   UNL     1       2.113   5.660  18.305  0.00  0.00    +0.000 OA
ATOM      8  C   UNL     1       3.045   6.436  18.118  0.00  0.00    +0.000 C 
ATOM      9  N   UNL     1       3.031   7.810  18.310  0.00  0.00    +0.000 N 
ATOM     10  H   UNL     1       3.840   8.340  18.004  0.00  0.00    +0.000 HD
BRANCH   8  11
ATOM     11  C   UNL     1       4.312   5.838  17.639  0.00  0.00    +0.000 A 
ATOM     12  C   UNL     1       4.742   6.156  16.337  0.00  0.00    +0.000 A 
ATOM     13  C   UNL     1       5.941   5.637  15.854  0.00  0.00    +0.000 A 
ATOM     14  C   UNL     1       6.708   4.815  16.672  0.00  0.00    +0.000 A 
ATOM     15  F   UNL     1       7.866   4.321  16.210  0.00  0.00    +0.000 F 
ATOM     16  C   UNL     1       6.302   4.496  17.960  0.00  0.00    +0.000 A 
ATOM     17  C   UNL     1       5.099   5.009  18.435  0.00  0.00    +0.000 A 
ATOM     18  F   UNL     1       4.719   4.691  19.682  0.00  0.00    +0.000 F 
ENDBRANCH   8  11
ENDBRANCH   1   9
BRANCH   4  19
ATOM     19  N   UNL     1      -1.284  10.865  20.321  0.00  0.00    +0.000 N 
ATOM     20  C   UNL     1      -1.149  11.986  21.130  0.00  0.00    +0.000 C 
ATOM     21  O   UNL     1      -0.086  12.466  21.515  0.00  0.00    +0.000 OA
ATOM     22  H   UNL     1      -2.217  10.589  20.035  0.00  0.00    +0.000 HD
BRANCH  20  23
ATOM     23  C   UNL     1      -2.369  12.693  21.587  0.00  0.00    +0.000 A 
ATOM     24  C   UNL     1      -2.864  13.718  20.756  0.00  0.00    +0.000 A 
ATOM     25  C   UNL     1      -3.985  14.457  21.123  0.00  0.00    +0.000 A 
ATOM     26  C   UNL     1      -4.617  14.171  22.324  0.00  0.00    +0.000 A 
ATOM     27  F   UNL     1      -5.687  14.887  22.688  0.00  0.00    +0.000 F 
ATOM     28  C   UNL     1      -4.157  13.154  23.155  0.00  0.00    +0.000 A 
ATOM     29  C   UNL     1      -3.034  12.418  22.781  0.00  0.00    +0.000 A 
ATOM     30  F   UNL     1      -2.609  11.441  23.598  0.00  0.00    +0.000 F 
ENDBRANCH  20  23
ENDBRANCH   4  19
TORSDOF 4
ENDMDL
MODEL 9
REMARK VINA RESULT:      -7.9      1.522     10.981
REMARK  Name = 
REMARK  4 active torsions:
REMARK  status: ('A' for Active; 'I' for Inactive)
REMARK    1  A    between atoms: C_2  and  C_21
REMARK    2  A    between atoms: N_3  and  C_4
REMARK    3  A    between atoms: C_7  and  N_8
REMARK    4  A    between atoms: C_9  and  C_11
REMARK                            x       y       z     vdW  Elec       q    Type
REMARK                         _______ _______ _______ _____ _____    ______ ____
ROOT
ATOM      1  C   UNL     1       0.184  10.560  20.423  0.00  0.00    +0.000 A 
ATOM      2  C   UNL     1       0.438   9.284  20.906  0.00  0.00    +0.000 A 
ATOM      3  C   UNL     1       1.205   8.384  20.175  0.00  0.00    +0.000 A 
ATOM      4  C   UNL     1       1.736   8.719  18.931  0.00  0.00    +0.000 A 
ATOM      5  C   UNL     1       1.488  10.005  18.437  0.00  0.00    +0.000 A 
ATOM      6  C   UNL     1       0.706  10.916  19.174  0.00  0.00    +0.000 A 
ENDROOT
BRANCH   1   9
ATOM      7  O   UNL     1      -0.260  10.740  23.329  0.00  0.00    +0.000 OA
ATOM      8  C   UNL     1      -0.781  11.496  22.515  0.00  0.00    +0.000 C 
ATOM      9  N   UNL     1      -0.589  11.493  21.141  0.00  0.00    +0.000 N 
ATOM     10  H   UNL     1      -0.996  12.251  20.603  0.00  0.00    +0.000 HD
BRANCH   8  11
ATOM     11  C   UNL     1      -1.706  12.515  23.061  0.00  0.00    +0.000 A 
ATOM     12  C   UNL     1      -3.001  12.104  23.426  0.00  0.00    +0.000 A 
ATOM     13  C   UNL     1      -3.897  13.024  23.967  0.00  0.00    +0.000 A 
ATOM     14  C   UNL     1      -3.493  14.342  24.152  0.00  0.00    +0.000 A 
ATOM     15  F   UNL     1      -4.352  15.226  24.680  0.00  0.00    +0.000 F 
ATOM     16  C   UNL     1      -2.218  14.762  23.803  0.00  0.00    +0.000 A 
ATOM     17  C   UNL     1      -1.330  13.843  23.253  0.00  0.00    +0.000 A 
ATOM     18  F   UNL     1      -0.101  14.264  22.919  0.00  0.00    +0.000 F 
ENDBRANCH   8  11
ENDBRANCH   1   9
BRANCH   4  19
ATOM     19  N   UNL     1       2.501   7.807  18.163  0.00  0.00    +0.000 N 
ATOM     20  C   UNL     1       3.099   6.656  18.658  0.00  0.00    +0.000 C 
ATOM     21  O   UNL     1       3.028   6.255  19.817  0.00  0.00    +0.000 OA
ATOM     22  H   UNL     1       2.598   8.012  17.174  0.00  0.00    +0.000 HD
BRANCH  20  23
ATOM     23  C   UNL     1       3.897   5.809  17.740  0.00  0.00    +0.000 A 
ATOM     24  C   UNL     1       3.447   4.490  17.532  0.00  0.00    +0.000 A 
ATOM     25  C   UNL     1       4.155   3.614  16.713  0.00  0.00    +0.000 A 
ATOM     26  C   UNL     1       5.315   4.058  16.095  0.00  0.00    +0.000 A 
ATOM     27  F   UNL     1       6.005   3.217  15.316  0.00  0.00    +0.000 F 
ATOM     28  C   UNL     1       5.771   5.361  16.271  0.00  0.00    +0.000 A 
ATOM     29  C   UNL     1       5.057   6.232  17.093  0.00  0.00    +0.000 A 
ATOM     30  F   UNL     1       5.517   7.483  17.248  0.00  0.00    +0.000 F 
ENDBRANCH  20  23
ENDBRANCH   4  19
TORSDOF 4
ENDMDL
