MODEL 1
REMARK VINA RESULT:      -6.7      0.000      0.000
REMARK  Name = 
REMARK  23 active torsions:
REMARK  status: ('A' for Active; 'I' for Inactive)
REMARK    1  A    between atoms: C_1  and  C_2
REMARK    2  A    between atoms: C_2  and  C_3
REMARK    3  A    between atoms: C_2  and  C_4
REMARK    4  A    between atoms: C_4  and  N_5
REMARK    5  A    between atoms: C_6  and  C_8
REMARK    6  A    between atoms: C_8  and  C_9
REMARK    7  A    between atoms: C_8  and  C_10
REMARK    8  A    between atoms: C_10  and  C_11
REMARK    9  A    between atoms: C_11  and  O_12
REMARK   10  A    between atoms: C_11  and  C_13
REMARK   11  A    between atoms: C_13  and  N_14
REMARK   12  A    between atoms: C_13  and  C_33
REMARK   13  A    between atoms: C_15  and  C_17
REMARK   14  A    between atoms: C_17  and  C_18
REMARK   15  A    between atoms: C_17  and  N_25
REMARK   16  A    between atoms: C_18  and  C_19
REMARK   17  A    between atoms: C_26  and  O_28
REMARK   18  A    between atoms: O_28  and  C_29
REMARK   19  A    between atoms: C_29  and  C_30
REMARK   20  A    between atoms: C_29  and  C_31
REMARK   21  A    between atoms: C_29  and  C_32
REMARK   22  A    between atoms: C_33  and  C_34
REMARK   23  A    between atoms: C_33  and  C_35
REMARK                            x       y       z     vdW  Elec       q    Type
REMARK                         _______ _______ _______ _____ _____    ______ ____
ROOT
ATOM      1  N   UNL     1       1.466   9.136  18.813  0.00  0.00    +0.000 N 
ATOM      2  C   UNL     1       2.253   8.503  17.864  0.00  0.00    +0.000 C 
ATOM      3  O   UNL     1       2.444   8.961  16.739  0.00  0.00    +0.000 OA
ATOM      4  H   UNL     1       1.366   8.687  19.713  0.00  0.00    +0.000 HD
ENDROOT
BRANCH   1   5
ATOM      5  C   UNL     1       0.723  10.391  18.568  0.00  0.00    +0.000 C 
BRANCH   5   6
ATOM      6  C   UNL     1      -0.542  10.478  19.507  0.00  0.00    +0.000 C 
ATOM      7  C   UNL     1      -1.854  10.198  18.759  0.00  0.00    +0.000 C 
ATOM      8  C   UNL     1      -0.475   9.518  20.706  0.00  0.00    +0.000 C 
ENDBRANCH   5   6
BRANCH   5   9
ATOM      9  C   UNL     1       1.690  11.618  18.756  0.00  0.00    +0.000 C 
BRANCH   9  10
ATOM     10  O   UNL     1       2.448  11.840  17.551  0.00  0.00    +0.000 OA
ATOM     11  H   UNL     1       1.961  12.434  16.960  0.00  0.00    +0.000 HD
ENDBRANCH   9  10
BRANCH   9  12
ATOM     12  C   UNL     1       1.039  12.981  19.114  0.00  0.00    +0.000 C 
BRANCH  12  13
ATOM     13  C   UNL     1       1.801  13.941  20.056  0.00  0.00    +0.000 C 
ATOM     14  C   UNL     1       1.982  15.347  19.492  0.00  0.00    +0.000 C 
BRANCH  13  16
ATOM     15  N   UNL     1      -0.085  13.353  21.505  0.00  0.00    +0.000 N 
ATOM     16  C   UNL     1       1.100  14.045  21.450  0.00  0.00    +0.000 C 
ATOM     17  O   UNL     1       1.556  14.656  22.403  0.00  0.00    +0.000 OA
ATOM     18  H   UNL     1      -0.151  12.701  20.769  0.00  0.00    +0.000 HD
BRANCH  15  19
ATOM     19  C   UNL     1      -0.815  12.890  22.675  0.00  0.00    +0.000 C 
BRANCH  19  21
ATOM     20  C   UNL     1      -3.223  12.403  23.479  0.00  0.00    +0.000 C 
ATOM     21  C   UNL     1      -2.197  12.322  22.337  0.00  0.00    +0.000 C 
ATOM     22  C   UNL     1      -2.763  13.068  21.119  0.00  0.00    +0.000 C 
ENDBRANCH  19  21
ENDBRANCH  15  19
ENDBRANCH  13  16
ENDBRANCH  12  13
ENDBRANCH   9  12
ENDBRANCH   5   9
ENDBRANCH   1   5
BRANCH   2  23
ATOM     23  C   UNL     1       2.905   7.182  18.347  0.00  0.00    +0.000 C 
BRANCH  23  24
ATOM     24  N   UNL     1       4.360   7.273  18.318  0.00  0.00    +0.000 N 
ATOM     25  C   UNL     1       5.057   6.554  17.396  0.00  0.00    +0.000 C 
ATOM     26  O   UNL     1       4.516   5.975  16.465  0.00  0.00    +0.000 OA
ATOM     27  H   UNL     1       4.844   7.565  19.160  0.00  0.00    +0.000 HD
BRANCH  25  28
ATOM     28  O   UNL     1       6.378   6.495  17.701  0.00  0.00    +0.000 OA
BRANCH  28  29
ATOM     29  C   UNL     1       6.860   5.320  18.413  0.00  0.00    +0.000 C 
ATOM     30  C   UNL     1       5.689   4.510  18.987  0.00  0.00    +0.000 C 
ATOM     31  C   UNL     1       7.571   4.451  17.365  0.00  0.00    +0.000 C 
ATOM     32  C   UNL     1       7.894   5.694  19.489  0.00  0.00    +0.000 C 
ENDBRANCH  28  29
ENDBRANCH  25  28
ENDBRANCH  23  24
BRANCH  23  33
ATOM     33  C   UNL     1       2.365   6.792  19.744  0.00  0.00    +0.000 C 
BRANCH  33  34
ATOM     34  C   UNL     1       2.019   5.329  19.829  0.00  0.00    +0.000 A 
ATOM     35  C   UNL     1       2.059   4.734  21.081  0.00  0.00    +0.000 A 
ATOM     36  C   UNL     1       1.832   3.371  21.261  0.00  0.00    +0.000 A 
ATOM     37  C   UNL     1       1.519   2.576  20.175  0.00  0.00    +0.000 A 
ATOM     38  C   UNL     1       1.520   3.141  18.910  0.00  0.00    +0.000 A 
ATOM     39  C   UNL     1       1.769   4.500  18.740  0.00  0.00    +0.000 A 
ENDBRANCH  33  34
ENDBRANCH  23  33
ENDBRANCH   2  23
TORSDOF 15
ENDMDL
MODEL 2
REMARK VINA RESULT:      -6.6      2.170      4.396
REMARK  Name = 
REMARK  23 active torsions:
REMARK  status: ('A' for Active; 'I' for Inactive)
REMARK    1  A    between atoms: C_1  and  C_2
REMARK    2  A    between atoms: C_2  and  C_3
REMARK    3  A    between atoms: C_2  and  C_4
REMARK    4  A    between atoms: C_4  and  N_5
REMARK    5  A    between atoms: C_6  and  C_8
REMARK    6  A    between atoms: C_8  and  C_9
REMARK    7  A    between atoms: C_8  and  C_10
REMARK    8  A    between atoms: C_10  and  C_11
REMARK    9  A    between atoms: C_11  and  O_12
REMARK   10  A    between atoms: C_11  and  C_13
REMARK   11  A    between atoms: C_13  and  N_14
REMARK   12  A    between atoms: C_13  and  C_33
REMARK   13  A    between atoms: C_15  and  C_17
REMARK   14  A    between atoms: C_17  and  C_18
REMARK   15  A    between atoms: C_17  and  N_25
REMARK   16  A    between atoms: C_18  and  C_19
REMARK   17  A    between atoms: C_26  and  O_28
REMARK   18  A    between atoms: O_28  and  C_29
REMARK   19  A    between atoms: C_29  and  C_30
REMARK   20  A    between atoms: C_29  and  C_31
REMARK   21  A    between atoms: C_29  and  C_32
REMARK   22  A    between atoms: C_33  and  C_34
REMARK   23  A    between atoms: C_33  and  C_35
REMARK                            x       y       z     vdW  Elec       q    Type
REMARK                         _______ _______ _______ _____ _____    ______ ____
ROOT
ATOM      1  N   UNL     1       1.833   8.621  19.545  0.00  0.00    +0.000 N 
ATOM      2  C   UNL     1       2.190   8.291  18.247  0.00  0.00    +0.000 C 
ATOM      3  O   UNL     1       1.728   8.861  17.260  0.00  0.00    +0.000 OA
ATOM      4  H   UNL     1       2.264   8.099  20.296  0.00  0.00    +0.000 HD
ENDROOT
BRANCH   1   5
ATOM      5  C   UNL     1       0.822   9.643  19.890  0.00  0.00    +0.000 C 
BRANCH   5   6
ATOM      6  C   UNL     1       0.351   9.473  21.386  0.00  0.00    +0.000 C 
ATOM      7  C   UNL     1      -0.677   8.344  21.556  0.00  0.00    +0.000 C 
ATOM      8  C   UNL     1       1.508   9.201  22.360  0.00  0.00    +0.000 C 
ENDBRANCH   5   6
BRANCH   5   9
ATOM      9  C   UNL     1       1.410  11.076  19.611  0.00  0.00    +0.000 C 
BRANCH   9  10
ATOM     10  O   UNL     1       1.143  11.465  18.249  0.00  0.00    +0.000 OA
ATOM     11  H   UNL     1       0.458  10.892  17.872  0.00  0.00    +0.000 HD
ENDBRANCH   9  10
BRANCH   9  12
ATOM     12  C   UNL     1       0.891  12.238  20.501  0.00  0.00    +0.000 C 
BRANCH  12  13
ATOM     13  C   UNL     1      -0.628  12.525  20.532  0.00  0.00    +0.000 C 
ATOM     14  C   UNL     1      -1.005  13.773  21.326  0.00  0.00    +0.000 C 
BRANCH  13  16
ATOM     15  N   UNL     1      -2.135  11.677  18.797  0.00  0.00    +0.000 N 
ATOM     16  C   UNL     1      -1.212  12.652  19.088  0.00  0.00    +0.000 C 
ATOM     17  O   UNL     1      -0.905  13.530  18.298  0.00  0.00    +0.000 OA
ATOM     18  H   UNL     1      -2.466  11.244  19.619  0.00  0.00    +0.000 HD
BRANCH  15  19
ATOM     19  C   UNL     1      -3.153  11.668  17.759  0.00  0.00    +0.000 C 
BRANCH  19  21
ATOM     20  C   UNL     1      -3.213  10.746  15.344  0.00  0.00    +0.000 C 
ATOM     21  C   UNL     1      -3.071  10.441  16.845  0.00  0.00    +0.000 C 
ATOM     22  C   UNL     1      -1.728   9.733  17.073  0.00  0.00    +0.000 C 
ENDBRANCH  19  21
ENDBRANCH  15  19
ENDBRANCH  13  16
ENDBRANCH  12  13
ENDBRANCH   9  12
ENDBRANCH   5   9
ENDBRANCH   1   5
BRANCH   2  23
ATOM     23  C   UNL     1       3.248   7.164  18.138  0.00  0.00    +0.000 C 
BRANCH  23  24
ATOM     24  N   UNL     1       2.614   5.850  18.112  0.00  0.00    +0.000 N 
ATOM     25  C   UNL     1       2.353   5.209  19.284  0.00  0.00    +0.000 C 
ATOM     26  O   UNL     1       2.452   5.758  20.372  0.00  0.00    +0.000 OA
ATOM     27  H   UNL     1       2.697   5.290  17.271  0.00  0.00    +0.000 HD
BRANCH  25  28
ATOM     28  O   UNL     1       2.070   3.897  19.086  0.00  0.00    +0.000 OA
BRANCH  28  29
ATOM     29  C   UNL     1       3.103   2.922  19.409  0.00  0.00    +0.000 C 
ATOM     30  C   UNL     1       4.499   3.549  19.305  0.00  0.00    +0.000 C 
ATOM     31  C   UNL     1       2.866   2.525  20.874  0.00  0.00    +0.000 C 
ATOM     32  C   UNL     1       2.968   1.651  18.553  0.00  0.00    +0.000 C 
ENDBRANCH  28  29
ENDBRANCH  25  28
ENDBRANCH  23  24
BRANCH  23  33
ATOM     33  C   UNL     1       4.169   7.401  16.917  0.00  0.00    +0.000 C 
BRANCH  33  34
ATOM     34  C   UNL     1       5.334   6.447  16.894  0.00  0.00    +0.000 A 
ATOM     35  C   UNL     1       5.313   5.436  15.945  0.00  0.00    +0.000 A 
ATOM     36  C   UNL     1       6.301   4.456  15.885  0.00  0.00    +0.000 A 
ATOM     37  C   UNL     1       7.365   4.495  16.767  0.00  0.00    +0.000 A 
ATOM     38  C   UNL     1       7.380   5.469  17.753  0.00  0.00    +0.000 A 
ATOM     39  C   UNL     1       6.377   6.431  17.816  0.00  0.00    +0.000 A 
ENDBRANCH  33  34
ENDBRANCH  23  33
ENDBRANCH   2  23
TORSDOF 15
ENDMDL
MODEL 3
REMARK VINA RESULT:      -6.6      1.923      3.614
REMARK  Name = 
REMARK  23 active torsions:
REMARK  status: ('A' for Active; 'I' for Inactive)
REMARK    1  A    between atoms: C_1  and  C_2
REMARK    2  A    between atoms: C_2  and  C_3
REMARK    3  A    between atoms: C_2  and  C_4
REMARK    4  A    between atoms: C_4  and  N_5
REMARK    5  A    between atoms: C_6  and  C_8
REMARK    6  A    between atoms: C_8  and  C_9
REMARK    7  A    between atoms: C_8  and  C_10
REMARK    8  A    between atoms: C_10  and  C_11
REMARK    9  A    between atoms: C_11  and  O_12
REMARK   10  A    between atoms: C_11  and  C_13
REMARK   11  A    between atoms: C_13  and  N_14
REMARK   12  A    between atoms: C_13  and  C_33
REMARK   13  A    between atoms: C_15  and  C_17
REMARK   14  A    between atoms: C_17  and  C_18
REMARK   15  A    between atoms: C_17  and  N_25
REMARK   16  A    between atoms: C_18  and  C_19
REMARK   17  A    between atoms: C_26  and  O_28
REMARK   18  A    between atoms: O_28  and  C_29
REMARK   19  A    between atoms: C_29  and  C_30
REMARK   20  A    between atoms: C_29  and  C_31
REMARK   21  A    between atoms: C_29  and  C_32
REMARK   22  A    between atoms: C_33  and  C_34
REMARK   23  A    between atoms: C_33  and  C_35
REMARK                            x       y       z     vdW  Elec       q    Type
REMARK                         _______ _______ _______ _____ _____    ______ ____
ROOT
ATOM      1  N   UNL     1       1.582   8.923  19.257  0.00  0.00    +0.000 N 
ATOM      2  C   UNL     1       2.072   8.390  18.075  0.00  0.00    +0.000 C 
ATOM      3  O   UNL     1       1.969   8.959  16.990  0.00  0.00    +0.000 OA
ATOM      4  H   UNL     1       1.713   8.385  20.103  0.00  0.00    +0.000 HD
ENDROOT
BRANCH   1   5
ATOM      5  C   UNL     1       0.835  10.196  19.343  0.00  0.00    +0.000 C 
BRANCH   5   6
ATOM      6  C   UNL     1       0.068  10.296  20.718  0.00  0.00    +0.000 C 
ATOM      7  C   UNL     1      -1.290  11.002  20.588  0.00  0.00    +0.000 C 
ATOM      8  C   UNL     1      -0.179   8.929  21.376  0.00  0.00    +0.000 C 
ENDBRANCH   5   6
BRANCH   5   9
ATOM      9  C   UNL     1       1.824  11.400  19.124  0.00  0.00    +0.000 C 
BRANCH   9  10
ATOM     10  O   UNL     1       2.012  11.637  17.715  0.00  0.00    +0.000 OA
ATOM     11  H   UNL     1       2.826  11.204  17.415  0.00  0.00    +0.000 HD
ENDBRANCH   9  10
BRANCH   9  12
ATOM     12  C   UNL     1       1.420  12.766  19.742  0.00  0.00    +0.000 C 
BRANCH  12  13
ATOM     13  C   UNL     1       1.121  13.948  18.792  0.00  0.00    +0.000 C 
ATOM     14  C   UNL     1      -0.164  14.700  19.126  0.00  0.00    +0.000 C 
BRANCH  13  16
ATOM     15  N   UNL     1       3.390  14.505  18.054  0.00  0.00    +0.000 N 
ATOM     16  C   UNL     1       2.307  14.967  18.761  0.00  0.00    +0.000 C 
ATOM     17  O   UNL     1       2.279  16.067  19.288  0.00  0.00    +0.000 OA
ATOM     18  H   UNL     1       3.139  13.751  17.472  0.00  0.00    +0.000 HD
BRANCH  15  19
ATOM     19  C   UNL     1       4.491  15.261  17.479  0.00  0.00    +0.000 C 
BRANCH  19  21
ATOM     20  C   UNL     1       7.029  14.834  17.728  0.00  0.00    +0.000 C 
ATOM     21  C   UNL     1       5.725  15.313  18.386  0.00  0.00    +0.000 C 
ATOM     22  C   UNL     1       5.928  16.755  18.876  0.00  0.00    +0.000 C 
ENDBRANCH  19  21
ENDBRANCH  15  19
ENDBRANCH  13  16
ENDBRANCH  12  13
ENDBRANCH   9  12
ENDBRANCH   5   9
ENDBRANCH   1   5
BRANCH   2  23
ATOM     23  C   UNL     1       2.792   7.027  18.235  0.00  0.00    +0.000 C 
BRANCH  23  24
ATOM     24  N   UNL     1       4.145   7.081  17.691  0.00  0.00    +0.000 N 
ATOM     25  C   UNL     1       4.675   5.973  17.104  0.00  0.00    +0.000 C 
ATOM     26  O   UNL     1       4.008   4.984  16.839  0.00  0.00    +0.000 OA
ATOM     27  H   UNL     1       4.784   7.781  18.052  0.00  0.00    +0.000 HD
BRANCH  25  28
ATOM     28  O   UNL     1       6.018   6.084  16.947  0.00  0.00    +0.000 OA
BRANCH  28  29
ATOM     29  C   UNL     1       6.869   5.678  18.057  0.00  0.00    +0.000 C 
ATOM     30  C   UNL     1       6.025   5.198  19.246  0.00  0.00    +0.000 C 
ATOM     31  C   UNL     1       7.692   4.486  17.545  0.00  0.00    +0.000 C 
ATOM     32  C   UNL     1       7.854   6.791  18.452  0.00  0.00    +0.000 C 
ENDBRANCH  28  29
ENDBRANCH  25  28
ENDBRANCH  23  24
BRANCH  23  33
ATOM     33  C   UNL     1       2.767   6.571  19.714  0.00  0.00    +0.000 C 
BRANCH  33  34
ATOM     34  C   UNL     1       2.157   5.204  19.874  0.00  0.00    +0.000 A 
ATOM     35  C   UNL     1       2.246   4.608  21.123  0.00  0.00    +0.000 A 
ATOM     36  C   UNL     1       1.782   3.315  21.361  0.00  0.00    +0.000 A 
ATOM     37  C   UNL     1       1.178   2.602  20.343  0.00  0.00    +0.000 A 
ATOM     38  C   UNL     1       1.121   3.162  19.076  0.00  0.00    +0.000 A 
ATOM     39  C   UNL     1       1.606   4.446  18.846  0.00  0.00    +0.000 A 
ENDBRANCH  33  34
ENDBRANCH  23  33
ENDBRANCH   2  23
TORSDOF 15
ENDMDL
MODEL 4
REMARK VINA RESULT:      -6.6      0.979      1.510
REMARK  Name = 
REMARK  23 active torsions:
REMARK  status: ('A' for Active; 'I' for Inactive)
REMARK    1  A    between atoms: C_1  and  C_2
REMARK    2  A    between atoms: C_2  and  C_3
REMARK    3  A    between atoms: C_2  and  C_4
REMARK    4  A    between atoms: C_4  and  N_5
REMARK    5  A    between atoms: C_6  and  C_8
REMARK    6  A    between atoms: C_8  and  C_9
REMARK    7  A    between atoms: C_8  and  C_10
REMARK    8  A    between atoms: C_10  and  C_11
REMARK    9  A    between atoms: C_11  and  O_12
REMARK   10  A    between atoms: C_11  and  C_13
REMARK   11  A    between atoms: C_13  and  N_14
REMARK   12  A    between atoms: C_13  and  C_33
REMARK   13  A    between atoms: C_15  and  C_17
REMARK   14  A    between atoms: C_17  and  C_18
REMARK   15  A    between atoms: C_17  and  N_25
REMARK   16  A    between atoms: C_18  and  C_19
REMARK   17  A    between atoms: C_26  and  O_28
REMARK   18  A    between atoms: O_28  and  C_29
REMARK   19  A    between atoms: C_29  and  C_30
REMARK   20  A    between atoms: C_29  and  C_31
REMARK   21  A    between atoms: C_29  and  C_32
REMARK   22  A    between atoms: C_33  and  C_34
REMARK   23  A    between atoms: C_33  and  C_35
REMARK                            x       y       z     vdW  Elec       q    Type
REMARK                         _______ _______ _______ _____ _____    ______ ____
ROOT
ATOM      1  N   UNL     1       1.336   8.880  18.707  0.00  0.00    +0.000 N 
ATOM      2  C   UNL     1       2.287   8.171  17.990  0.00  0.00    +0.000 C 
ATOM      3  O   UNL     1       2.820   8.606  16.971  0.00  0.00    +0.000 OA
ATOM      4  H   UNL     1       0.951   8.444  19.534  0.00  0.00    +0.000 HD
ENDROOT
BRANCH   1   5
ATOM      5  C   UNL     1       0.813  10.203  18.303  0.00  0.00    +0.000 C 
BRANCH   5   6
ATOM      6  C   UNL     1      -0.499  10.549  19.107  0.00  0.00    +0.000 C 
ATOM      7  C   UNL     1      -1.778  10.224  18.320  0.00  0.00    +0.000 C 
ATOM      8  C   UNL     1      -0.590   9.827  20.461  0.00  0.00    +0.000 C 
ENDBRANCH   5   6
BRANCH   5   9
ATOM      9  C   UNL     1       1.934  11.291  18.497  0.00  0.00    +0.000 C 
BRANCH   9  10
ATOM     10  O   UNL     1       2.568  11.579  17.236  0.00  0.00    +0.000 OA
ATOM     11  H   UNL     1       2.039  12.223  16.741  0.00  0.00    +0.000 HD
ENDBRANCH   9  10
BRANCH   9  12
ATOM     12  C   UNL     1       1.495  12.660  19.083  0.00  0.00    +0.000 C 
BRANCH  12  13
ATOM     13  C   UNL     1       2.567  13.565  19.731  0.00  0.00    +0.000 C 
ATOM     14  C   UNL     1       2.991  14.744  18.860  0.00  0.00    +0.000 C 
BRANCH  13  16
ATOM     15  N   UNL     1       0.748  14.410  21.138  0.00  0.00    +0.000 N 
ATOM     16  C   UNL     1       2.088  14.111  21.116  0.00  0.00    +0.000 C 
ATOM     17  O   UNL     1       2.813  14.243  22.089  0.00  0.00    +0.000 OA
ATOM     18  H   UNL     1       0.275  13.982  20.387  0.00  0.00    +0.000 HD
BRANCH  15  19
ATOM     19  C   UNL     1      -0.132  14.562  22.286  0.00  0.00    +0.000 C 
BRANCH  19  21
ATOM     20  C   UNL     1      -1.847  13.417  20.727  0.00  0.00    +0.000 C 
ATOM     21  C   UNL     1      -1.423  13.746  22.168  0.00  0.00    +0.000 C 
ATOM     22  C   UNL     1      -1.258  12.430  22.941  0.00  0.00    +0.000 C 
ENDBRANCH  19  21
ENDBRANCH  15  19
ENDBRANCH  13  16
ENDBRANCH  12  13
ENDBRANCH   9  12
ENDBRANCH   5   9
ENDBRANCH   1   5
BRANCH   2  23
ATOM     23  C   UNL     1       2.650   6.791  18.596  0.00  0.00    +0.000 C 
BRANCH  23  24
ATOM     24  N   UNL     1       4.092   6.662  18.780  0.00  0.00    +0.000 N 
ATOM     25  C   UNL     1       4.720   5.528  18.366  0.00  0.00    +0.000 C 
ATOM     26  O   UNL     1       4.169   4.683  17.676  0.00  0.00    +0.000 OA
ATOM     27  H   UNL     1       4.539   7.220  19.498  0.00  0.00    +0.000 HD
BRANCH  25  28
ATOM     28  O   UNL     1       5.968   5.428  18.889  0.00  0.00    +0.000 OA
BRANCH  28  29
ATOM     29  C   UNL     1       7.095   5.759  18.028  0.00  0.00    +0.000 C 
ATOM     30  C   UNL     1       7.680   4.495  17.382  0.00  0.00    +0.000 C 
ATOM     31  C   UNL     1       6.527   6.646  16.910  0.00  0.00    +0.000 C 
ATOM     32  C   UNL     1       8.160   6.577  18.778  0.00  0.00    +0.000 C 
ENDBRANCH  28  29
ENDBRANCH  25  28
ENDBRANCH  23  24
BRANCH  23  33
ATOM     33  C   UNL     1       1.862   6.551  19.907  0.00  0.00    +0.000 C 
BRANCH  33  34
ATOM     34  C   UNL     1       1.811   5.092  20.276  0.00  0.00    +0.000 A 
ATOM     35  C   UNL     1       1.074   4.251  19.455  0.00  0.00    +0.000 A 
ATOM     36  C   UNL     1       0.898   2.900  19.746  0.00  0.00    +0.000 A 
ATOM     37  C   UNL     1       1.498   2.353  20.864  0.00  0.00    +0.000 A 
ATOM     38  C   UNL     1       2.199   3.185  21.723  0.00  0.00    +0.000 A 
ATOM     39  C   UNL     1       2.351   4.538  21.432  0.00  0.00    +0.000 A 
ENDBRANCH  33  34
ENDBRANCH  23  33
ENDBRANCH   2  23
TORSDOF 15
ENDMDL
MODEL 5
REMARK VINA RESULT:      -6.6      1.709      3.481
REMARK  Name = 
REMARK  23 active torsions:
REMARK  status: ('A' for Active; 'I' for Inactive)
REMARK    1  A    between atoms: C_1  and  C_2
REMARK    2  A    between atoms: C_2  and  C_3
REMARK    3  A    between atoms: C_2  and  C_4
REMARK    4  A    between atoms: C_4  and  N_5
REMARK    5  A    between atoms: C_6  and  C_8
REMARK    6  A    between atoms: C_8  and  C_9
REMARK    7  A    between atoms: C_8  and  C_10
REMARK    8  A    between atoms: C_10  and  C_11
REMARK    9  A    between atoms: C_11  and  O_12
REMARK   10  A    between atoms: C_11  and  C_13
REMARK   11  A    between atoms: C_13  and  N_14
REMARK   12  A    between atoms: C_13  and  C_33
REMARK   13  A    between atoms: C_15  and  C_17
REMARK   14  A    between atoms: C_17  and  C_18
REMARK   15  A    between atoms: C_17  and  N_25
REMARK   16  A    between atoms: C_18  and  C_19
REMARK   17  A    between atoms: C_26  and  O_28
REMARK   18  A    between atoms: O_28  and  C_29
REMARK   19  A    between atoms: C_29  and  C_30
REMARK   20  A    between atoms: C_29  and  C_31
REMARK   21  A    between atoms: C_29  and  C_32
REMARK   22  A    between atoms: C_33  and  C_34
REMARK   23  A    between atoms: C_33  and  C_35
REMARK                            x       y       z     vdW  Elec       q    Type
REMARK                         _______ _______ _______ _____ _____    ______ ____
ROOT
ATOM      1  N   UNL     1       1.207   9.220  19.278  0.00  0.00    +0.000 N 
ATOM      2  C   UNL     1       1.991   8.767  18.228  0.00  0.00    +0.000 C 
ATOM      3  O   UNL     1       2.170   9.412  17.198  0.00  0.00    +0.000 OA
ATOM      4  H   UNL     1       1.118   8.622  20.088  0.00  0.00    +0.000 HD
ENDROOT
BRANCH   1   5
ATOM      5  C   UNL     1       0.454  10.492  19.258  0.00  0.00    +0.000 C 
BRANCH   5   6
ATOM      6  C   UNL     1      -1.064  10.230  18.919  0.00  0.00    +0.000 C 
ATOM      7  C   UNL     1      -1.967  11.415  19.295  0.00  0.00    +0.000 C 
ATOM      8  C   UNL     1      -1.309   9.911  17.435  0.00  0.00    +0.000 C 
ENDBRANCH   5   6
BRANCH   5   9
ATOM      9  C   UNL     1       0.637  11.232  20.634  0.00  0.00    +0.000 C 
BRANCH   9  10
ATOM     10  O   UNL     1       1.267  10.354  21.589  0.00  0.00    +0.000 OA
ATOM     11  H   UNL     1       1.301  10.783  22.457  0.00  0.00    +0.000 HD
ENDBRANCH   9  10
BRANCH   9  12
ATOM     12  C   UNL     1       1.479  12.537  20.628  0.00  0.00    +0.000 C 
BRANCH  12  13
ATOM     13  C   UNL     1       0.741  13.894  20.609  0.00  0.00    +0.000 C 
ATOM     14  C   UNL     1       0.906  14.706  21.891  0.00  0.00    +0.000 C 
BRANCH  13  16
ATOM     15  N   UNL     1       2.505  14.563  19.047  0.00  0.00    +0.000 N 
ATOM     16  C   UNL     1       1.194  14.771  19.396  0.00  0.00    +0.000 C 
ATOM     17  O   UNL     1       0.464  15.548  18.802  0.00  0.00    +0.000 OA
ATOM     18  H   UNL     1       2.846  13.721  19.429  0.00  0.00    +0.000 HD
BRANCH  15  19
ATOM     19  C   UNL     1       3.172  14.870  17.792  0.00  0.00    +0.000 C 
BRANCH  19  21
ATOM     20  C   UNL     1       4.553  16.455  19.297  0.00  0.00    +0.000 C 
ATOM     21  C   UNL     1       4.464  15.674  17.976  0.00  0.00    +0.000 C 
ATOM     22  C   UNL     1       5.665  14.721  17.892  0.00  0.00    +0.000 C 
ENDBRANCH  19  21
ENDBRANCH  15  19
ENDBRANCH  13  16
ENDBRANCH  12  13
ENDBRANCH   9  12
ENDBRANCH   5   9
ENDBRANCH   1   5
BRANCH   2  23
ATOM     23  C   UNL     1       2.656   7.387  18.473  0.00  0.00    +0.000 C 
BRANCH  23  24
ATOM     24  N   UNL     1       4.099   7.457  18.271  0.00  0.00    +0.000 N 
ATOM     25  C   UNL     1       4.703   6.560  17.444  0.00  0.00    +0.000 C 
ATOM     26  O   UNL     1       4.074   5.811  16.712  0.00  0.00    +0.000 OA
ATOM     27  H   UNL     1       4.665   7.907  18.982  0.00  0.00    +0.000 HD
BRANCH  25  28
ATOM     28  O   UNL     1       6.049   6.551  17.613  0.00  0.00    +0.000 OA
BRANCH  28  29
ATOM     29  C   UNL     1       6.653   5.367  18.208  0.00  0.00    +0.000 C 
ATOM     30  C   UNL     1       7.307   4.488  17.133  0.00  0.00    +0.000 C 
ATOM     31  C   UNL     1       7.759   5.880  19.143  0.00  0.00    +0.000 C 
ATOM     32  C   UNL     1       5.642   4.585  19.065  0.00  0.00    +0.000 C 
ENDBRANCH  28  29
ENDBRANCH  25  28
ENDBRANCH  23  24
BRANCH  23  33
ATOM     33  C   UNL     1       2.279   6.845  19.873  0.00  0.00    +0.000 C 
BRANCH  33  34
ATOM     34  C   UNL     1       2.049   5.357  19.860  0.00  0.00    +0.000 A 
ATOM     35  C   UNL     1       1.666   4.781  18.658  0.00  0.00    +0.000 A 
ATOM     36  C   UNL     1       1.354   3.426  18.552  0.00  0.00    +0.000 A 
ATOM     37  C   UNL     1       1.459   2.607  19.660  0.00  0.00    +0.000 A 
ATOM     38  C   UNL     1       1.795   3.172  20.881  0.00  0.00    +0.000 A 
ATOM     39  C   UNL     1       2.085   4.530  20.978  0.00  0.00    +0.000 A 
ENDBRANCH  33  34
ENDBRANCH  23  33
ENDBRANCH   2  23
TORSDOF 15
ENDMDL
MODEL 6
REMARK VINA RESULT:      -6.4      2.287      4.338
REMARK  Name = 
REMARK  23 active torsions:
REMARK  status: ('A' for Active; 'I' for Inactive)
REMARK    1  A    between atoms: C_1  and  C_2
REMARK    2  A    between atoms: C_2  and  C_3
REMARK    3  A    between atoms: C_2  and  C_4
REMARK    4  A    between atoms: C_4  and  N_5
REMARK    5  A    between atoms: C_6  and  C_8
REMARK    6  A    between atoms: C_8  and  C_9
REMARK    7  A    between atoms: C_8  and  C_10
REMARK    8  A    between atoms: C_10  and  C_11
REMARK    9  A    between atoms: C_11  and  O_12
REMARK   10  A    between atoms: C_11  and  C_13
REMARK   11  A    between atoms: C_13  and  N_14
REMARK   12  A    between atoms: C_13  and  C_33
REMARK   13  A    between atoms: C_15  and  C_17
REMARK   14  A    between atoms: C_17  and  C_18
REMARK   15  A    between atoms: C_17  and  N_25
REMARK   16  A    between atoms: C_18  and  C_19
REMARK   17  A    between atoms: C_26  and  O_28
REMARK   18  A    between atoms: O_28  and  C_29
REMARK   19  A    between atoms: C_29  and  C_30
REMARK   20  A    between atoms: C_29  and  C_31
REMARK   21  A    between atoms: C_29  and  C_32
REMARK   22  A    between atoms: C_33  and  C_34
REMARK   23  A    between atoms: C_33  and  C_35
REMARK                            x       y       z     vdW  Elec       q    Type
REMARK                         _______ _______ _______ _____ _____    ______ ____
ROOT
ATOM      1  N   UNL     1       1.823   8.698  19.584  0.00  0.00    +0.000 N 
ATOM      2  C   UNL     1       2.146   8.372  18.275  0.00  0.00    +0.000 C 
ATOM      3  O   UNL     1       1.686   8.967  17.303  0.00  0.00    +0.000 OA
ATOM      4  H   UNL     1       2.251   8.154  20.321  0.00  0.00    +0.000 HD
ENDROOT
BRANCH   1   5
ATOM      5  C   UNL     1       0.852   9.748  19.958  0.00  0.00    +0.000 C 
BRANCH   5   6
ATOM      6  C   UNL     1       0.311   9.506  21.419  0.00  0.00    +0.000 C 
ATOM      7  C   UNL     1      -0.665   8.323  21.500  0.00  0.00    +0.000 C 
ATOM      8  C   UNL     1       1.427   9.259  22.447  0.00  0.00    +0.000 C 
ENDBRANCH   5   6
BRANCH   5   9
ATOM      9  C   UNL     1       1.523  11.162  19.799  0.00  0.00    +0.000 C 
BRANCH   9  10
ATOM     10  O   UNL     1       1.649  11.497  18.403  0.00  0.00    +0.000 OA
ATOM     11  H   UNL     1       1.434  10.725  17.858  0.00  0.00    +0.000 HD
ENDBRANCH   9  10
BRANCH   9  12
ATOM     12  C   UNL     1       0.803  12.365  20.468  0.00  0.00    +0.000 C 
BRANCH  12  13
ATOM     13  C   UNL     1      -0.668  12.650  20.091  0.00  0.00    +0.000 C 
ATOM     14  C   UNL     1      -1.240  13.907  20.739  0.00  0.00    +0.000 C 
BRANCH  13  16
ATOM     15  N   UNL     1      -1.462  11.655  17.998  0.00  0.00    +0.000 N 
ATOM     16  C   UNL     1      -0.848  12.756  18.541  0.00  0.00    +0.000 C 
ATOM     17  O   UNL     1      -0.501  13.718  17.875  0.00  0.00    +0.000 OA
ATOM     18  H   UNL     1      -1.921  11.125  18.691  0.00  0.00    +0.000 HD
BRANCH  15  19
ATOM     19  C   UNL     1      -2.138  11.530  16.716  0.00  0.00    +0.000 C 
BRANCH  19  21
ATOM     20  C   UNL     1      -3.511   9.479  17.488  0.00  0.00    +0.000 C 
ATOM     21  C   UNL     1      -2.601  10.101  16.416  0.00  0.00    +0.000 C 
ATOM     22  C   UNL     1      -3.348  10.086  15.074  0.00  0.00    +0.000 C 
ENDBRANCH  19  21
ENDBRANCH  15  19
ENDBRANCH  13  16
ENDBRANCH  12  13
ENDBRANCH   9  12
ENDBRANCH   5   9
ENDBRANCH   1   5
BRANCH   2  23
ATOM     23  C   UNL     1       3.166   7.212  18.136  0.00  0.00    +0.000 C 
BRANCH  23  24
ATOM     24  N   UNL     1       2.488   5.922  18.067  0.00  0.00    +0.000 N 
ATOM     25  C   UNL     1       2.265   5.221  19.212  0.00  0.00    +0.000 C 
ATOM     26  O   UNL     1       2.439   5.701  20.323  0.00  0.00    +0.000 OA
ATOM     27  H   UNL     1       2.508   5.411  17.192  0.00  0.00    +0.000 HD
BRANCH  25  28
ATOM     28  O   UNL     1       1.929   3.933  18.954  0.00  0.00    +0.000 OA
BRANCH  28  29
ATOM     29  C   UNL     1       3.004   2.990  18.678  0.00  0.00    +0.000 C 
ATOM     30  C   UNL     1       2.548   1.549  18.942  0.00  0.00    +0.000 C 
ATOM     31  C   UNL     1       3.312   3.126  17.180  0.00  0.00    +0.000 C 
ATOM     32  C   UNL     1       4.284   3.349  19.453  0.00  0.00    +0.000 C 
ENDBRANCH  28  29
ENDBRANCH  25  28
ENDBRANCH  23  24
BRANCH  23  33
ATOM     33  C   UNL     1       4.099   7.455  16.925  0.00  0.00    +0.000 C 
BRANCH  33  34
ATOM     34  C   UNL     1       5.241   6.474  16.886  0.00  0.00    +0.000 A 
ATOM     35  C   UNL     1       5.384   5.706  15.740  0.00  0.00    +0.000 A 
ATOM     36  C   UNL     1       6.358   4.716  15.628  0.00  0.00    +0.000 A 
ATOM     37  C   UNL     1       7.244   4.502  16.668  0.00  0.00    +0.000 A 
ATOM     38  C   UNL     1       7.088   5.225  17.839  0.00  0.00    +0.000 A 
ATOM     39  C   UNL     1       6.098   6.198  17.946  0.00  0.00    +0.000 A 
ENDBRANCH  33  34
ENDBRANCH  23  33
ENDBRANCH   2  23
TORSDOF 15
ENDMDL
MODEL 7
REMARK VINA RESULT:      -6.4      2.006      3.297
REMARK  Name = 
REMARK  23 active torsions:
REMARK  status: ('A' for Active; 'I' for Inactive)
REMARK    1  A    between atoms: C_1  and  C_2
REMARK    2  A    between atoms: C_2  and  C_3
REMARK    3  A    between atoms: C_2  and  C_4
REMARK    4  A    between atoms: C_4  and  N_5
REMARK    5  A    between atoms: C_6  and  C_8
REMARK    6  A    between atoms: C_8  and  C_9
REMARK    7  A    between atoms: C_8  and  C_10
REMARK    8  A    between atoms: C_10  and  C_11
REMARK    9  A    between atoms: C_11  and  O_12
REMARK   10  A    between atoms: C_11  and  C_13
REMARK   11  A    between atoms: C_13  and  N_14
REMARK   12  A    between atoms: C_13  and  C_33
REMARK   13  A    between atoms: C_15  and  C_17
REMARK   14  A    between atoms: C_17  and  C_18
REMARK   15  A    between atoms: C_17  and  N_25
REMARK   16  A    between atoms: C_18  and  C_19
REMARK   17  A    between atoms: C_26  and  O_28
REMARK   18  A    between atoms: O_28  and  C_29
REMARK   19  A    between atoms: C_29  and  C_30
REMARK   20  A    between atoms: C_29  and  C_31
REMARK   21  A    between atoms: C_29  and  C_32
REMARK   22  A    between atoms: C_33  and  C_34
REMARK   23  A    between atoms: C_33  and  C_35
REMARK                            x       y       z     vdW  Elec       q    Type
REMARK                         _______ _______ _______ _____ _____    ______ ____
ROOT
ATOM      1  N   UNL     1       1.425   9.027  19.037  0.00  0.00    +0.000 N 
ATOM      2  C   UNL     1       2.165   8.236  18.172  0.00  0.00    +0.000 C 
ATOM      3  O   UNL     1       2.525   8.615  17.059  0.00  0.00    +0.000 OA
ATOM      4  H   UNL     1       1.174   8.632  19.933  0.00  0.00    +0.000 HD
ENDROOT
BRANCH   1   5
ATOM      5  C   UNL     1       0.935  10.381  18.703  0.00  0.00    +0.000 C 
BRANCH   5   6
ATOM      6  C   UNL     1      -0.171  10.838  19.730  0.00  0.00    +0.000 C 
ATOM      7  C   UNL     1      -1.512  11.157  19.052  0.00  0.00    +0.000 C 
ATOM      8  C   UNL     1      -0.442   9.801  20.832  0.00  0.00    +0.000 C 
ENDBRANCH   5   6
BRANCH   5   9
ATOM      9  C   UNL     1       2.150  11.380  18.654  0.00  0.00    +0.000 C 
BRANCH   9  10
ATOM     10  O   UNL     1       2.506  11.660  17.286  0.00  0.00    +0.000 OA
ATOM     11  H   UNL     1       1.722  11.949  16.794  0.00  0.00    +0.000 HD
ENDBRANCH   9  10
BRANCH   9  12
ATOM     12  C   UNL     1       1.959  12.759  19.341  0.00  0.00    +0.000 C 
BRANCH  12  13
ATOM     13  C   UNL     1       1.915  14.027  18.459  0.00  0.00    +0.000 C 
ATOM     14  C   UNL     1       0.901  15.068  18.922  0.00  0.00    +0.000 C 
BRANCH  13  16
ATOM     15  N   UNL     1       3.299  16.033  18.701  0.00  0.00    +0.000 N 
ATOM     16  C   UNL     1       3.322  14.703  18.363  0.00  0.00    +0.000 C 
ATOM     17  O   UNL     1       4.343  14.117  18.044  0.00  0.00    +0.000 OA
ATOM     18  H   UNL     1       2.479  16.261  19.197  0.00  0.00    +0.000 HD
BRANCH  15  19
ATOM     19  C   UNL     1       4.404  16.889  19.104  0.00  0.00    +0.000 C 
BRANCH  19  21
ATOM     20  C   UNL     1       3.061  17.270  21.281  0.00  0.00    +0.000 C 
ATOM     21  C   UNL     1       4.441  17.155  20.612  0.00  0.00    +0.000 C 
ATOM     22  C   UNL     1       5.224  16.027  21.302  0.00  0.00    +0.000 C 
ENDBRANCH  19  21
ENDBRANCH  15  19
ENDBRANCH  13  16
ENDBRANCH  12  13
ENDBRANCH   9  12
ENDBRANCH   5   9
ENDBRANCH   1   5
BRANCH   2  23
ATOM     23  C   UNL     1       2.534   6.839  18.735  0.00  0.00    +0.000 C 
BRANCH  23  24
ATOM     24  N   UNL     1       3.978   6.698  18.885  0.00  0.00    +0.000 N 
ATOM     25  C   UNL     1       4.596   5.588  18.397  0.00  0.00    +0.000 C 
ATOM     26  O   UNL     1       4.030   4.784  17.671  0.00  0.00    +0.000 OA
ATOM     27  H   UNL     1       4.440   7.214  19.625  0.00  0.00    +0.000 HD
BRANCH  25  28
ATOM     28  O   UNL     1       5.853   5.457  18.889  0.00  0.00    +0.000 OA
BRANCH  28  29
ATOM     29  C   UNL     1       6.966   5.810  18.018  0.00  0.00    +0.000 C 
ATOM     30  C   UNL     1       6.593   6.987  17.106  0.00  0.00    +0.000 C 
ATOM     31  C   UNL     1       8.101   6.268  18.946  0.00  0.00    +0.000 C 
ATOM     32  C   UNL     1       7.473   4.594  17.225  0.00  0.00    +0.000 C 
ENDBRANCH  28  29
ENDBRANCH  25  28
ENDBRANCH  23  24
BRANCH  23  33
ATOM     33  C   UNL     1       1.773   6.570  20.056  0.00  0.00    +0.000 C 
BRANCH  33  34
ATOM     34  C   UNL     1       1.621   5.098  20.331  0.00  0.00    +0.000 A 
ATOM     35  C   UNL     1       2.269   4.586  21.445  0.00  0.00    +0.000 A 
ATOM     36  C   UNL     1       2.257   3.226  21.749  0.00  0.00    +0.000 A 
ATOM     37  C   UNL     1       1.551   2.348  20.949  0.00  0.00    +0.000 A 
ATOM     38  C   UNL     1       0.935   2.832  19.805  0.00  0.00    +0.000 A 
ATOM     39  C   UNL     1       0.971   4.190  19.501  0.00  0.00    +0.000 A 
ENDBRANCH  33  34
ENDBRANCH  23  33
ENDBRANCH   2  23
TORSDOF 15
ENDMDL
MODEL 8
REMARK VINA RESULT:      -6.3      1.514      3.255
REMARK  Name = 
REMARK  23 active torsions:
REMARK  status: ('A' for Active; 'I' for Inactive)
REMARK    1  A    between atoms: C_1  and  C_2
REMARK    2  A    between atoms: C_2  and  C_3
REMARK    3  A    between atoms: C_2  and  C_4
REMARK    4  A    between atoms: C_4  and  N_5
REMARK    5  A    between atoms: C_6  and  C_8
REMARK    6  A    between atoms: C_8  and  C_9
REMARK    7  A    between atoms: C_8  and  C_10
REMARK    8  A    between atoms: C_10  and  C_11
REMARK    9  A    between atoms: C_11  and  O_12
REMARK   10  A    between atoms: C_11  and  C_13
REMARK   11  A    between atoms: C_13  and  N_14
REMARK   12  A    between atoms: C_13  and  C_33
REMARK   13  A    between atoms: C_15  and  C_17
REMARK   14  A    between atoms: C_17  and  C_18
REMARK   15  A    between atoms: C_17  and  N_25
REMARK   16  A    between atoms: C_18  and  C_19
REMARK   17  A    between atoms: C_26  and  O_28
REMARK   18  A    between atoms: O_28  and  C_29
REMARK   19  A    between atoms: C_29  and  C_30
REMARK   20  A    between atoms: C_29  and  C_31
REMARK   21  A    between atoms: C_29  and  C_32
REMARK   22  A    between atoms: C_33  and  C_34
REMARK   23  A    between atoms: C_33  and  C_35
REMARK                            x       y       z     vdW  Elec       q    Type
REMARK                         _______ _______ _______ _____ _____    ______ ____
ROOT
ATOM      1  N   UNL     1       1.129   9.186  19.242  0.00  0.00    +0.000 N 
ATOM      2  C   UNL     1       1.975   8.819  18.207  0.00  0.00    +0.000 C 
ATOM      3  O   UNL     1       2.174   9.526  17.221  0.00  0.00    +0.000 OA
ATOM      4  H   UNL     1       1.026   8.541  20.014  0.00  0.00    +0.000 HD
ENDROOT
BRANCH   1   5
ATOM      5  C   UNL     1       0.329  10.430  19.254  0.00  0.00    +0.000 C 
BRANCH   5   6
ATOM      6  C   UNL     1      -1.157  10.136  18.815  0.00  0.00    +0.000 C 
ATOM      7  C   UNL     1      -2.111  11.292  19.149  0.00  0.00    +0.000 C 
ATOM      8  C   UNL     1      -1.299   9.835  17.314  0.00  0.00    +0.000 C 
ENDBRANCH   5   6
BRANCH   5   9
ATOM      9  C   UNL     1       0.409  11.090  20.680  0.00  0.00    +0.000 C 
BRANCH   9  10
ATOM     10  O   UNL     1       1.272  10.316  21.537  0.00  0.00    +0.000 OA
ATOM     11  H   UNL     1       0.775   9.579  21.925  0.00  0.00    +0.000 HD
ENDBRANCH   9  10
BRANCH   9  12
ATOM     12  C   UNL     1       0.927  12.552  20.754  0.00  0.00    +0.000 C 
BRANCH  12  13
ATOM     13  C   UNL     1      -0.092  13.686  21.005  0.00  0.00    +0.000 C 
ATOM     14  C   UNL     1      -0.257  14.055  22.477  0.00  0.00    +0.000 C 
BRANCH  13  16
ATOM     15  N   UNL     1       1.584  15.368  20.401  0.00  0.00    +0.000 N 
ATOM     16  C   UNL     1       0.283  14.975  20.203  0.00  0.00    +0.000 C 
ATOM     17  O   UNL     1      -0.483  15.568  19.461  0.00  0.00    +0.000 OA
ATOM     18  H   UNL     1       2.122  14.637  20.784  0.00  0.00    +0.000 HD
BRANCH  15  19
ATOM     19  C   UNL     1       2.405  16.242  19.579  0.00  0.00    +0.000 C 
BRANCH  19  21
ATOM     20  C   UNL     1       3.115  16.725  17.140  0.00  0.00    +0.000 C 
ATOM     21  C   UNL     1       2.666  15.682  18.177  0.00  0.00    +0.000 C 
ATOM     22  C   UNL     1       3.740  14.588  18.265  0.00  0.00    +0.000 C 
ENDBRANCH  19  21
ENDBRANCH  15  19
ENDBRANCH  13  16
ENDBRANCH  12  13
ENDBRANCH   9  12
ENDBRANCH   5   9
ENDBRANCH   1   5
BRANCH   2  23
ATOM     23  C   UNL     1       2.679   7.452  18.408  0.00  0.00    +0.000 C 
BRANCH  23  24
ATOM     24  N   UNL     1       4.115   7.562  18.170  0.00  0.00    +0.000 N 
ATOM     25  C   UNL     1       4.737   6.636  17.391  0.00  0.00    +0.000 C 
ATOM     26  O   UNL     1       4.123   5.817  16.723  0.00  0.00    +0.000 OA
ATOM     27  H   UNL     1       4.677   8.079  18.837  0.00  0.00    +0.000 HD
BRANCH  25  28
ATOM     28  O   UNL     1       6.085   6.688  17.530  0.00  0.00    +0.000 OA
BRANCH  28  29
ATOM     29  C   UNL     1       6.747   5.562  18.175  0.00  0.00    +0.000 C 
ATOM     30  C   UNL     1       7.899   6.044  19.068  0.00  0.00    +0.000 C 
ATOM     31  C   UNL     1       5.688   4.908  19.075  0.00  0.00    +0.000 C 
ATOM     32  C   UNL     1       7.204   4.510  17.150  0.00  0.00    +0.000 C 
ENDBRANCH  28  29
ENDBRANCH  25  28
ENDBRANCH  23  24
BRANCH  23  33
ATOM     33  C   UNL     1       2.353   6.876  19.807  0.00  0.00    +0.000 C 
BRANCH  33  34
ATOM     34  C   UNL     1       2.007   5.412  19.748  0.00  0.00    +0.000 A 
ATOM     35  C   UNL     1       1.732   4.870  18.501  0.00  0.00    +0.000 A 
ATOM     36  C   UNL     1       1.327   3.546  18.342  0.00  0.00    +0.000 A 
ATOM     37  C   UNL     1       1.226   2.719  19.445  0.00  0.00    +0.000 A 
ATOM     38  C   UNL     1       1.450   3.253  20.704  0.00  0.00    +0.000 A 
ATOM     39  C   UNL     1       1.835   4.583  20.853  0.00  0.00    +0.000 A 
ENDBRANCH  33  34
ENDBRANCH  23  33
ENDBRANCH   2  23
TORSDOF 15
ENDMDL
MODEL 9
REMARK VINA RESULT:      -6.3      1.690      3.332
REMARK  Name = 
REMARK  23 active torsions:
REMARK  status: ('A' for Active; 'I' for Inactive)
REMARK    1  A    between atoms: C_1  and  C_2
REMARK    2  A    between atoms: C_2  and  C_3
REMARK    3  A    between atoms: C_2  and  C_4
REMARK    4  A    between atoms: C_4  and  N_5
REMARK    5  A    between atoms: C_6  and  C_8
REMARK    6  A    between atoms: C_8  and  C_9
REMARK    7  A    between atoms: C_8  and  C_10
REMARK    8  A    between atoms: C_10  and  C_11
REMARK    9  A    between atoms: C_11  and  O_12
REMARK   10  A    between atoms: C_11  and  C_13
REMARK   11  A    between atoms: C_13  and  N_14
REMARK   12  A    between atoms: C_13  and  C_33
REMARK   13  A    between atoms: C_15  and  C_17
REMARK   14  A    between atoms: C_17  and  C_18
REMARK   15  A    between atoms: C_17  and  N_25
REMARK   16  A    between atoms: C_18  and  C_19
REMARK   17  A    between atoms: C_26  and  O_28
REMARK   18  A    between atoms: O_28  and  C_29
REMARK   19  A    between atoms: C_29  and  C_30
REMARK   20  A    between atoms: C_29  and  C_31
REMARK   21  A    between atoms: C_29  and  C_32
REMARK   22  A    between atoms: C_33  and  C_34
REMARK   23  A    between atoms: C_33  and  C_35
REMARK                            x       y       z     vdW  Elec       q    Type
REMARK                         _______ _______ _______ _____ _____    ______ ____
ROOT
ATOM      1  N   UNL     1       1.608   9.185  19.142  0.00  0.00    +0.000 N 
ATOM      2  C   UNL     1       2.197   8.561  18.053  0.00  0.00    +0.000 C 
ATOM      3  O   UNL     1       2.217   9.054  16.927  0.00  0.00    +0.000 OA
ATOM      4  H   UNL     1       1.640   8.704  20.030  0.00  0.00    +0.000 HD
ENDROOT
BRANCH   1   5
ATOM      5  C   UNL     1       0.891  10.475  19.066  0.00  0.00    +0.000 C 
BRANCH   5   6
ATOM      6  C   UNL     1      -0.070  10.648  20.305  0.00  0.00    +0.000 C 
ATOM      7  C   UNL     1      -1.459  11.169  19.908  0.00  0.00    +0.000 C 
ATOM      8  C   UNL     1      -0.270   9.350  21.104  0.00  0.00    +0.000 C 
ENDBRANCH   5   6
BRANCH   5   9
ATOM      9  C   UNL     1       1.933  11.648  18.953  0.00  0.00    +0.000 C 
BRANCH   9  10
ATOM     10  O   UNL     1       2.161  11.978  17.569  0.00  0.00    +0.000 OA
ATOM     11  H   UNL     1       3.114  12.026  17.395  0.00  0.00    +0.000 HD
ENDBRANCH   9  10
BRANCH   9  12
ATOM     12  C   UNL     1       1.574  12.983  19.661  0.00  0.00    +0.000 C 
BRANCH  12  13
ATOM     13  C   UNL     1       1.039  14.154  18.805  0.00  0.00    +0.000 C 
ATOM     14  C   UNL     1      -0.169  14.861  19.411  0.00  0.00    +0.000 C 
BRANCH  13  16
ATOM     15  N   UNL     1       2.041  16.329  19.321  0.00  0.00    +0.000 N 
ATOM     16  C   UNL     1       2.156  15.213  18.529  0.00  0.00    +0.000 C 
ATOM     17  O   UNL     1       3.052  15.069  17.714  0.00  0.00    +0.000 OA
ATOM     18  H   UNL     1       1.457  16.157  20.097  0.00  0.00    +0.000 HD
BRANCH  15  19
ATOM     19  C   UNL     1       3.050  17.325  19.643  0.00  0.00    +0.000 C 
BRANCH  19  21
ATOM     20  C   UNL     1       5.614  17.135  19.361  0.00  0.00    +0.000 C 
ATOM     21  C   UNL     1       4.362  16.713  20.147  0.00  0.00    +0.000 C 
ATOM     22  C   UNL     1       4.560  17.095  21.621  0.00  0.00    +0.000 C 
ENDBRANCH  19  21
ENDBRANCH  15  19
ENDBRANCH  13  16
ENDBRANCH  12  13
ENDBRANCH   9  12
ENDBRANCH   5   9
ENDBRANCH   1   5
BRANCH   2  23
ATOM     23  C   UNL     1       2.861   7.197  18.376  0.00  0.00    +0.000 C 
BRANCH  23  24
ATOM     24  N   UNL     1       4.315   7.293  18.309  0.00  0.00    +0.000 N 
ATOM     25  C   UNL     1       4.990   6.580  17.366  0.00  0.00    +0.000 C 
ATOM     26  O   UNL     1       4.426   6.004  16.447  0.00  0.00    +0.000 OA
ATOM     27  H   UNL     1       4.820   7.582  19.139  0.00  0.00    +0.000 HD
BRANCH  25  28
ATOM     28  O   UNL     1       6.318   6.523  17.636  0.00  0.00    +0.000 OA
BRANCH  28  29
ATOM     29  C   UNL     1       6.815   5.368  18.371  0.00  0.00    +0.000 C 
ATOM     30  C   UNL     1       5.655   4.571  18.984  0.00  0.00    +0.000 C 
ATOM     31  C   UNL     1       7.512   4.475  17.334  0.00  0.00    +0.000 C 
ATOM     32  C   UNL     1       7.864   5.773  19.421  0.00  0.00    +0.000 C 
ENDBRANCH  28  29
ENDBRANCH  25  28
ENDBRANCH  23  24
BRANCH  23  33
ATOM     33  C   UNL     1       2.366   6.664  19.742  0.00  0.00    +0.000 C 
BRANCH  33  34
ATOM     34  C   UNL     1       1.952   5.218  19.668  0.00  0.00    +0.000 A 
ATOM     35  C   UNL     1       1.900   4.632  18.412  0.00  0.00    +0.000 A 
ATOM     36  C   UNL     1       1.458   3.324  18.224  0.00  0.00    +0.000 A 
ATOM     37  C   UNL     1       1.090   2.557  19.313  0.00  0.00    +0.000 A 
ATOM     38  C   UNL     1       1.091   3.139  20.571  0.00  0.00    +0.000 A 
ATOM     39  C   UNL     1       1.515   4.453  20.745  0.00  0.00    +0.000 A 
ENDBRANCH  33  34
ENDBRANCH  23  33
ENDBRANCH   2  23
TORSDOF 15
ENDMDL
