MODEL 1
REMARK VINA RESULT:      -7.7      0.000      0.000
REMARK  Name = 
REMARK  4 active torsions:
REMARK  status: ('A' for Active; 'I' for Inactive)
REMARK    1  A    between atoms: C_1  and  N_2
REMARK    2  A    between atoms: N_9  and  C_10
REMARK    3  A    between atoms: C_10  and  C_11
REMARK    4  A    between atoms: N_13  and  C_14
REMARK                            x       y       z     vdW  Elec       q    Type
REMARK                         _______ _______ _______ _____ _____    ______ ____
ROOT
ATOM      1  C   UNL     1       7.627   5.972  18.364  0.00  0.00    +0.000 C 
ENDROOT
BRANCH   1  10
ATOM      2  C   UNL     1       1.332   3.910  19.103  0.00  0.00    +0.000 C 
ATOM      3  N   UNL     1       2.703   4.269  18.789  0.00  0.00    +0.000 N 
ATOM      4  C   UNL     1       3.480   4.973  19.716  0.00  0.00    +0.000 A 
ATOM      5  C   UNL     1       4.746   5.356  19.482  0.00  0.00    +0.000 A 
ATOM      6  C   UNL     1       5.268   5.007  18.214  0.00  0.00    +0.000 A 
ATOM      7  C   UNL     1       4.566   4.289  17.269  0.00  0.00    +0.000 A 
ATOM      8  C   UNL     1       5.426   4.086  16.167  0.00  0.00    +0.000 A 
ATOM      9  C   UNL     1       6.618   4.710  16.469  0.00  0.00    +0.000 A 
ATOM     10  N   UNL     1       6.511   5.296  17.718  0.00  0.00    +0.000 N 
ATOM     11  C   UNL     1       3.194   3.865  17.525  0.00  0.00    +0.000 A 
ATOM     12  O   UNL     1       2.540   3.225  16.705  0.00  0.00    +0.000 OA
ENDBRANCH   1  10
BRANCH   1  13
ATOM     13  C   UNL     1       7.787   7.436  18.005  0.00  0.00    +0.000 C 
ATOM     14  O   UNL     1       7.176   7.912  17.047  0.00  0.00    +0.000 OA
ATOM     15  N   UNL     1       8.621   8.152  18.849  0.00  0.00    +0.000 N 
ATOM     16  H   UNL     1       9.346   7.626  19.326  0.00  0.00    +0.000 HD
BRANCH  15  17
ATOM     17  C   UNL     1       8.809   9.547  18.753  0.00  0.00    +0.000 A 
ATOM     18  C   UNL     1       8.299  10.305  17.691  0.00  0.00    +0.000 A 
ATOM     19  C   UNL     1       8.529  11.685  17.631  0.00  0.00    +0.000 A 
ATOM     20  C   UNL     1       9.290  12.300  18.619  0.00  0.00    +0.000 A 
ATOM     21 BR   UNL     1       9.657  14.152  18.513  0.00  0.00    +0.000 Br
ATOM     22  C   UNL     1       9.794  11.557  19.687  0.00  0.00    +0.000 A 
ATOM     23  C   UNL     1       9.526  10.187  19.768  0.00  0.00    +0.000 A 
ENDBRANCH  15  17
ENDBRANCH   1  13
TORSDOF 3
ENDMDL
MODEL 2
REMARK VINA RESULT:      -7.7      4.409      6.218
REMARK  Name = 
REMARK  4 active torsions:
REMARK  status: ('A' for Active; 'I' for Inactive)
REMARK    1  A    between atoms: C_1  and  N_2
REMARK    2  A    between atoms: N_9  and  C_10
REMARK    3  A    between atoms: C_10  and  C_11
REMARK    4  A    between atoms: N_13  and  C_14
REMARK                            x       y       z     vdW  Elec       q    Type
REMARK                         _______ _______ _______ _____ _____    ______ ____
ROOT
ATOM      1  C   UNL     1       3.896   4.439  19.928  0.00  0.00    +0.000 C 
ENDROOT
BRANCH   1  10
ATOM      2  C   UNL     1       6.152   3.880  13.680  0.00  0.00    +0.000 C 
ATOM      3  N   UNL     1       5.825   4.052  15.084  0.00  0.00    +0.000 N 
ATOM      4  C   UNL     1       4.565   3.682  15.568  0.00  0.00    +0.000 A 
ATOM      5  C   UNL     1       4.189   3.835  16.849  0.00  0.00    +0.000 A 
ATOM      6  C   UNL     1       5.156   4.411  17.707  0.00  0.00    +0.000 A 
ATOM      7  C   UNL     1       6.423   4.770  17.300  0.00  0.00    +0.000 A 
ATOM      8  C   UNL     1       7.113   5.250  18.435  0.00  0.00    +0.000 A 
ATOM      9  C   UNL     1       6.231   5.191  19.494  0.00  0.00    +0.000 A 
ATOM     10  N   UNL     1       5.021   4.697  19.039  0.00  0.00    +0.000 N 
ATOM     11  C   UNL     1       6.836   4.596  15.911  0.00  0.00    +0.000 A 
ATOM     12  O   UNL     1       7.957   4.905  15.515  0.00  0.00    +0.000 OA
ENDBRANCH   1  10
BRANCH   1  13
ATOM     13  C   UNL     1       2.741   5.413  19.803  0.00  0.00    +0.000 C 
ATOM     14  O   UNL     1       1.586   5.038  20.010  0.00  0.00    +0.000 OA
ATOM     15  N   UNL     1       3.109   6.711  19.484  0.00  0.00    +0.000 N 
ATOM     16  H   UNL     1       3.975   6.825  18.969  0.00  0.00    +0.000 HD
BRANCH  15  17
ATOM     17  C   UNL     1       2.196   7.786  19.436  0.00  0.00    +0.000 A 
ATOM     18  C   UNL     1       1.497   8.232  20.564  0.00  0.00    +0.000 A 
ATOM     19  C   UNL     1       0.587   9.291  20.460  0.00  0.00    +0.000 A 
ATOM     20  C   UNL     1       0.358   9.885  19.224  0.00  0.00    +0.000 A 
ATOM     21 BR   UNL     1      -0.914  11.274  19.063  0.00  0.00    +0.000 Br
ATOM     22  C   UNL     1       1.056   9.454  18.095  0.00  0.00    +0.000 A 
ATOM     23  C   UNL     1       1.997   8.426  18.210  0.00  0.00    +0.000 A 
ENDBRANCH  15  17
ENDBRANCH   1  13
TORSDOF 3
ENDMDL
MODEL 3
REMARK VINA RESULT:      -7.6      4.307      6.213
REMARK  Name = 
REMARK  4 active torsions:
REMARK  status: ('A' for Active; 'I' for Inactive)
REMARK    1  A    between atoms: C_1  and  N_2
REMARK    2  A    between atoms: N_9  and  C_10
REMARK    3  A    between atoms: C_10  and  C_11
REMARK    4  A    between atoms: N_13  and  C_14
REMARK                            x       y       z     vdW  Elec       q    Type
REMARK                         _______ _______ _______ _____ _____    ______ ____
ROOT
ATOM      1  C   UNL     1       4.039   4.521  19.840  0.00  0.00    +0.000 C 
ENDROOT
BRANCH   1  10
ATOM      2  C   UNL     1       6.116   3.977  13.529  0.00  0.00    +0.000 C 
ATOM      3  N   UNL     1       5.825   4.160  14.939  0.00  0.00    +0.000 N 
ATOM      4  C   UNL     1       4.614   3.709  15.477  0.00  0.00    +0.000 A 
ATOM      5  C   UNL     1       4.271   3.865  16.766  0.00  0.00    +0.000 A 
ATOM      6  C   UNL     1       5.221   4.532  17.576  0.00  0.00    +0.000 A 
ATOM      7  C   UNL     1       6.443   4.973  17.116  0.00  0.00    +0.000 A 
ATOM      8  C   UNL     1       7.134   5.531  18.215  0.00  0.00    +0.000 A 
ATOM      9  C   UNL     1       6.295   5.433  19.306  0.00  0.00    +0.000 A 
ATOM     10  N   UNL     1       5.110   4.839  18.905  0.00  0.00    +0.000 N 
ATOM     11  C   UNL     1       6.820   4.796  15.718  0.00  0.00    +0.000 A 
ATOM     12  O   UNL     1       7.901   5.178  15.275  0.00  0.00    +0.000 OA
ENDBRANCH   1  10
BRANCH   1  13
ATOM     13  C   UNL     1       2.831   5.434  19.769  0.00  0.00    +0.000 C 
ATOM     14  O   UNL     1       1.697   4.977  19.915  0.00  0.00    +0.000 OA
ATOM     15  N   UNL     1       3.127   6.773  19.570  0.00  0.00    +0.000 N 
ATOM     16  H   UNL     1       3.996   6.980  19.087  0.00  0.00    +0.000 HD
BRANCH  15  17
ATOM     17  C   UNL     1       2.154   7.794  19.589  0.00  0.00    +0.000 A 
ATOM     18  C   UNL     1       1.848   8.565  18.460  0.00  0.00    +0.000 A 
ATOM     19  C   UNL     1       0.886   9.579  18.535  0.00  0.00    +0.000 A 
ATOM     20  C   UNL     1       0.251   9.840  19.745  0.00  0.00    +0.000 A 
ATOM     21 BR   UNL     1      -1.003  11.248  19.870  0.00  0.00    +0.000 Br
ATOM     22  C   UNL     1       0.541   9.072  20.873  0.00  0.00    +0.000 A 
ATOM     23  C   UNL     1       1.469   8.029  20.784  0.00  0.00    +0.000 A 
ENDBRANCH  15  17
ENDBRANCH   1  13
TORSDOF 3
ENDMDL
MODEL 4
REMARK VINA RESULT:      -7.5      5.402      7.515
REMARK  Name = 
REMARK  4 active torsions:
REMARK  status: ('A' for Active; 'I' for Inactive)
REMARK    1  A    between atoms: C_1  and  N_2
REMARK    2  A    between atoms: N_9  and  C_10
REMARK    3  A    between atoms: C_10  and  C_11
REMARK    4  A    between atoms: N_13  and  C_14
REMARK                            x       y       z     vdW  Elec       q    Type
REMARK                         _______ _______ _______ _____ _____    ______ ____
ROOT
ATOM      1  C   UNL     1       2.337   6.771  19.909  0.00  0.00    +0.000 C 
ENDROOT
BRANCH   1  10
ATOM      2  C   UNL     1      -1.029  11.780  22.739  0.00  0.00    +0.000 C 
ATOM      3  N   UNL     1      -0.311  10.780  21.970  0.00  0.00    +0.000 N 
ATOM      4  C   UNL     1       0.069   9.570  22.563  0.00  0.00    +0.000 A 
ATOM      5  C   UNL     1       0.755   8.612  21.918  0.00  0.00    +0.000 A 
ATOM      6  C   UNL     1       1.087   8.896  20.573  0.00  0.00    +0.000 A 
ATOM      7  C   UNL     1       0.718  10.054  19.921  0.00  0.00    +0.000 A 
ATOM      8  C   UNL     1       1.175   9.955  18.588  0.00  0.00    +0.000 A 
ATOM      9  C   UNL     1       1.831   8.747  18.479  0.00  0.00    +0.000 A 
ATOM     10  N   UNL     1       1.797   8.108  19.707  0.00  0.00    +0.000 N 
ATOM     11  C   UNL     1      -0.034  11.092  20.618  0.00  0.00    +0.000 A 
ATOM     12  O   UNL     1      -0.379  12.136  20.069  0.00  0.00    +0.000 OA
ENDBRANCH   1  10
BRANCH   1  13
ATOM     13  C   UNL     1       2.752   6.047  18.644  0.00  0.00    +0.000 C 
ATOM     14  O   UNL     1       1.910   5.479  17.947  0.00  0.00    +0.000 OA
ATOM     15  N   UNL     1       4.104   6.122  18.349  0.00  0.00    +0.000 N 
ATOM     16  H   UNL     1       4.734   6.250  19.135  0.00  0.00    +0.000 HD
BRANCH  15  17
ATOM     17  C   UNL     1       4.669   5.613  17.161  0.00  0.00    +0.000 A 
ATOM     18  C   UNL     1       4.993   6.431  16.071  0.00  0.00    +0.000 A 
ATOM     19  C   UNL     1       5.535   5.875  14.905  0.00  0.00    +0.000 A 
ATOM     20  C   UNL     1       5.725   4.500  14.821  0.00  0.00    +0.000 A 
ATOM     21 BR   UNL     1       6.398   3.735  13.228  0.00  0.00    +0.000 Br
ATOM     22  C   UNL     1       5.415   3.678  15.904  0.00  0.00    +0.000 A 
ATOM     23  C   UNL     1       4.917   4.240  17.083  0.00  0.00    +0.000 A 
ENDBRANCH  15  17
ENDBRANCH   1  13
TORSDOF 3
ENDMDL
MODEL 5
REMARK VINA RESULT:      -7.5      0.283      1.046
REMARK  Name = 
REMARK  4 active torsions:
REMARK  status: ('A' for Active; 'I' for Inactive)
REMARK    1  A    between atoms: C_1  and  N_2
REMARK    2  A    between atoms: N_9  and  C_10
REMARK    3  A    between atoms: C_10  and  C_11
REMARK    4  A    between atoms: N_13  and  C_14
REMARK                            x       y       z     vdW  Elec       q    Type
REMARK                         _______ _______ _______ _____ _____    ______ ____
ROOT
ATOM      1  C   UNL     1       7.783   6.039  18.357  0.00  0.00    +0.000 C 
ENDROOT
BRANCH   1  10
ATOM      2  C   UNL     1       1.459   4.046  19.047  0.00  0.00    +0.000 C 
ATOM      3  N   UNL     1       2.836   4.391  18.743  0.00  0.00    +0.000 N 
ATOM      4  C   UNL     1       3.617   5.078  19.680  0.00  0.00    +0.000 A 
ATOM      5  C   UNL     1       4.889   5.448  19.456  0.00  0.00    +0.000 A 
ATOM      6  C   UNL     1       5.413   5.103  18.187  0.00  0.00    +0.000 A 
ATOM      7  C   UNL     1       4.707   4.402  17.233  0.00  0.00    +0.000 A 
ATOM      8  C   UNL     1       5.570   4.197  16.133  0.00  0.00    +0.000 A 
ATOM      9  C   UNL     1       6.768   4.805  16.446  0.00  0.00    +0.000 A 
ATOM     10  N   UNL     1       6.661   5.382  17.700  0.00  0.00    +0.000 N 
ATOM     11  C   UNL     1       3.329   3.992  17.478  0.00  0.00    +0.000 A 
ATOM     12  O   UNL     1       2.671   3.366  16.650  0.00  0.00    +0.000 OA
ENDBRANCH   1  10
BRANCH   1  13
ATOM     13  C   UNL     1       7.884   7.532  18.115  0.00  0.00    +0.000 C 
ATOM     14  O   UNL     1       7.185   8.072  17.257  0.00  0.00    +0.000 OA
ATOM     15  N   UNL     1       8.773   8.195  18.946  0.00  0.00    +0.000 N 
ATOM     16  H   UNL     1       9.546   7.649  19.314  0.00  0.00    +0.000 HD
BRANCH  15  17
ATOM     17  C   UNL     1       8.926   9.597  18.958  0.00  0.00    +0.000 A 
ATOM     18  C   UNL     1       9.291  10.306  20.109  0.00  0.00    +0.000 A 
ATOM     19  C   UNL     1       9.411  11.701  20.073  0.00  0.00    +0.000 A 
ATOM     20  C   UNL     1       9.141  12.386  18.894  0.00  0.00    +0.000 A 
ATOM     21 BR   UNL     1       9.242  14.274  18.853  0.00  0.00    +0.000 Br
ATOM     22  C   UNL     1       8.788  11.689  17.738  0.00  0.00    +0.000 A 
ATOM     23  C   UNL     1       8.712  10.293  17.765  0.00  0.00    +0.000 A 
ENDBRANCH  15  17
ENDBRANCH   1  13
TORSDOF 3
ENDMDL
MODEL 6
REMARK VINA RESULT:      -7.5      5.449      7.580
REMARK  Name = 
REMARK  4 active torsions:
REMARK  status: ('A' for Active; 'I' for Inactive)
REMARK    1  A    between atoms: C_1  and  N_2
REMARK    2  A    between atoms: N_9  and  C_10
REMARK    3  A    between atoms: C_10  and  C_11
REMARK    4  A    between atoms: N_13  and  C_14
REMARK                            x       y       z     vdW  Elec       q    Type
REMARK                         _______ _______ _______ _____ _____    ______ ____
ROOT
ATOM      1  C   UNL     1       2.244   6.849  20.094  0.00  0.00    +0.000 C 
ENDROOT
BRANCH   1  10
ATOM      2  C   UNL     1      -1.178  11.933  22.717  0.00  0.00    +0.000 C 
ATOM      3  N   UNL     1      -0.445  10.912  21.991  0.00  0.00    +0.000 N 
ATOM      4  C   UNL     1      -0.076   9.719  22.625  0.00  0.00    +0.000 A 
ATOM      5  C   UNL     1       0.622   8.744  22.020  0.00  0.00    +0.000 A 
ATOM      6  C   UNL     1       0.981   8.991  20.674  0.00  0.00    +0.000 A 
ATOM      7  C   UNL     1       0.624  10.130  19.984  0.00  0.00    +0.000 A 
ATOM      8  C   UNL     1       1.106   9.994  18.663  0.00  0.00    +0.000 A 
ATOM      9  C   UNL     1       1.765   8.784  18.601  0.00  0.00    +0.000 A 
ATOM     10  N   UNL     1       1.707   8.179  19.844  0.00  0.00    +0.000 N 
ATOM     11  C   UNL     1      -0.142  11.186  20.637  0.00  0.00    +0.000 A 
ATOM     12  O   UNL     1      -0.476  12.214  20.052  0.00  0.00    +0.000 OA
ENDBRANCH   1  10
BRANCH   1  13
ATOM     13  C   UNL     1       2.655   6.079  18.856  0.00  0.00    +0.000 C 
ATOM     14  O   UNL     1       1.814   5.469  18.194  0.00  0.00    +0.000 OA
ATOM     15  N   UNL     1       4.003   6.161  18.542  0.00  0.00    +0.000 N 
ATOM     16  H   UNL     1       4.640   6.331  19.314  0.00  0.00    +0.000 HD
BRANCH  15  17
ATOM     17  C   UNL     1       4.561   5.611  17.369  0.00  0.00    +0.000 A 
ATOM     18  C   UNL     1       4.842   4.245  17.237  0.00  0.00    +0.000 A 
ATOM     19  C   UNL     1       5.414   3.751  16.059  0.00  0.00    +0.000 A 
ATOM     20  C   UNL     1       5.729   4.626  15.025  0.00  0.00    +0.000 A 
ATOM     21 BR   UNL     1       6.558   3.977  13.455  0.00  0.00    +0.000 Br
ATOM     22  C   UNL     1       5.444   5.987  15.142  0.00  0.00    +0.000 A 
ATOM     23  C   UNL     1       4.831   6.471  16.302  0.00  0.00    +0.000 A 
ENDBRANCH  15  17
ENDBRANCH   1  13
TORSDOF 3
ENDMDL
MODEL 7
REMARK VINA RESULT:      -7.3      4.388      6.427
REMARK  Name = 
REMARK  4 active torsions:
REMARK  status: ('A' for Active; 'I' for Inactive)
REMARK    1  A    between atoms: C_1  and  N_2
REMARK    2  A    between atoms: N_9  and  C_10
REMARK    3  A    between atoms: C_10  and  C_11
REMARK    4  A    between atoms: N_13  and  C_14
REMARK                            x       y       z     vdW  Elec       q    Type
REMARK                         _______ _______ _______ _____ _____    ______ ____
ROOT
ATOM      1  C   UNL     1       2.857   4.372  20.652  0.00  0.00    +0.000 C 
ENDROOT
BRANCH   1  10
ATOM      2  C   UNL     1       7.412   5.340  15.882  0.00  0.00    +0.000 C 
ATOM      3  N   UNL     1       6.350   5.006  16.814  0.00  0.00    +0.000 N 
ATOM      4  C   UNL     1       6.179   5.748  17.988  0.00  0.00    +0.000 A 
ATOM      5  C   UNL     1       5.233   5.480  18.903  0.00  0.00    +0.000 A 
ATOM      6  C   UNL     1       4.399   4.374  18.616  0.00  0.00    +0.000 A 
ATOM      7  C   UNL     1       4.495   3.621  17.465  0.00  0.00    +0.000 A 
ATOM      8  C   UNL     1       3.468   2.652  17.505  0.00  0.00    +0.000 A 
ATOM      9  C   UNL     1       2.794   2.832  18.695  0.00  0.00    +0.000 A 
ATOM     10  N   UNL     1       3.382   3.877  19.387  0.00  0.00    +0.000 N 
ATOM     11  C   UNL     1       5.516   3.917  16.466  0.00  0.00    +0.000 A 
ATOM     12  O   UNL     1       5.631   3.266  15.430  0.00  0.00    +0.000 OA
ENDBRANCH   1  10
BRANCH   1  13
ATOM     13  C   UNL     1       1.851   5.499  20.533  0.00  0.00    +0.000 C 
ATOM     14  O   UNL     1       0.643   5.256  20.531  0.00  0.00    +0.000 OA
ATOM     15  N   UNL     1       2.405   6.767  20.468  0.00  0.00    +0.000 N 
ATOM     16  H   UNL     1       3.344   6.835  20.091  0.00  0.00    +0.000 HD
BRANCH  15  17
ATOM     17  C   UNL     1       1.636   7.950  20.471  0.00  0.00    +0.000 A 
ATOM     18  C   UNL     1       1.004   8.436  21.622  0.00  0.00    +0.000 A 
ATOM     19  C   UNL     1       0.236   9.605  21.569  0.00  0.00    +0.000 A 
ATOM     20  C   UNL     1       0.080  10.273  20.359  0.00  0.00    +0.000 A 
ATOM     21 BR   UNL     1      -1.005  11.818  20.264  0.00  0.00    +0.000 Br
ATOM     22  C   UNL     1       0.714   9.804  19.208  0.00  0.00    +0.000 A 
ATOM     23  C   UNL     1       1.516   8.661  19.273  0.00  0.00    +0.000 A 
ENDBRANCH  15  17
ENDBRANCH   1  13
TORSDOF 3
ENDMDL
MODEL 8
REMARK VINA RESULT:      -7.3      6.366      8.020
REMARK  Name = 
REMARK  4 active torsions:
REMARK  status: ('A' for Active; 'I' for Inactive)
REMARK    1  A    between atoms: C_1  and  N_2
REMARK    2  A    between atoms: N_9  and  C_10
REMARK    3  A    between atoms: C_10  and  C_11
REMARK    4  A    between atoms: N_13  and  C_14
REMARK                            x       y       z     vdW  Elec       q    Type
REMARK                         _______ _______ _______ _____ _____    ______ ____
ROOT
ATOM      1  C   UNL     1       1.731   8.054  21.410  0.00  0.00    +0.000 C 
ENDROOT
BRANCH   1  10
ATOM      2  C   UNL     1       2.650   1.959  18.872  0.00  0.00    +0.000 C 
ATOM      3  N   UNL     1       2.494   3.348  19.264  0.00  0.00    +0.000 N 
ATOM      4  C   UNL     1       2.232   3.682  20.598  0.00  0.00    +0.000 A 
ATOM      5  C   UNL     1       2.053   4.943  21.025  0.00  0.00    +0.000 A 
ATOM      6  C   UNL     1       2.141   5.945  20.030  0.00  0.00    +0.000 A 
ATOM      7  C   UNL     1       2.426   5.686  18.706  0.00  0.00    +0.000 A 
ATOM      8  C   UNL     1       2.487   6.927  18.035  0.00  0.00    +0.000 A 
ATOM      9  C   UNL     1       2.212   7.902  18.971  0.00  0.00    +0.000 A 
ATOM     10  N   UNL     1       1.976   7.294  20.192  0.00  0.00    +0.000 N 
ATOM     11  C   UNL     1       2.628   4.317  18.243  0.00  0.00    +0.000 A 
ATOM     12  O   UNL     1       2.883   4.051  17.070  0.00  0.00    +0.000 OA
ENDBRANCH   1  10
BRANCH   1  13
ATOM     13  C   UNL     1       0.395   8.769  21.463  0.00  0.00    +0.000 C 
ATOM     14  O   UNL     1      -0.656   8.127  21.441  0.00  0.00    +0.000 OA
ATOM     15  N   UNL     1       0.480  10.148  21.573  0.00  0.00    +0.000 N 
ATOM     16  H   UNL     1       1.316  10.584  21.198  0.00  0.00    +0.000 HD
BRANCH  15  17
ATOM     17  C   UNL     1      -0.644  10.982  21.751  0.00  0.00    +0.000 A 
ATOM     18  C   UNL     1      -1.252  11.169  22.999  0.00  0.00    +0.000 A 
ATOM     19  C   UNL     1      -2.378  11.994  23.121  0.00  0.00    +0.000 A 
ATOM     20  C   UNL     1      -2.908  12.608  21.992  0.00  0.00    +0.000 A 
ATOM     21 BR   UNL     1      -4.464  13.673  22.137  0.00  0.00    +0.000 Br
ATOM     22  C   UNL     1      -2.304  12.437  20.746  0.00  0.00    +0.000 A 
ATOM     23  C   UNL     1      -1.154  11.649  20.634  0.00  0.00    +0.000 A 
ENDBRANCH  15  17
ENDBRANCH   1  13
TORSDOF 3
ENDMDL
MODEL 9
REMARK VINA RESULT:      -7.3      6.391      7.979
REMARK  Name = 
REMARK  4 active torsions:
REMARK  status: ('A' for Active; 'I' for Inactive)
REMARK    1  A    between atoms: C_1  and  N_2
REMARK    2  A    between atoms: N_9  and  C_10
REMARK    3  A    between atoms: C_10  and  C_11
REMARK    4  A    between atoms: N_13  and  C_14
REMARK                            x       y       z     vdW  Elec       q    Type
REMARK                         _______ _______ _______ _____ _____    ______ ____
ROOT
ATOM      1  C   UNL     1       1.725   8.124  21.375  0.00  0.00    +0.000 C 
ENDROOT
BRANCH   1  10
ATOM      2  C   UNL     1       2.617   1.989  18.926  0.00  0.00    +0.000 C 
ATOM      3  N   UNL     1       2.469   3.384  19.299  0.00  0.00    +0.000 N 
ATOM      4  C   UNL     1       2.193   3.737  20.625  0.00  0.00    +0.000 A 
ATOM      5  C   UNL     1       2.021   5.006  21.033  0.00  0.00    +0.000 A 
ATOM      6  C   UNL     1       2.132   5.994  20.027  0.00  0.00    +0.000 A 
ATOM      7  C   UNL     1       2.432   5.716  18.710  0.00  0.00    +0.000 A 
ATOM      8  C   UNL     1       2.514   6.948  18.024  0.00  0.00    +0.000 A 
ATOM      9  C   UNL     1       2.236   7.937  18.944  0.00  0.00    +0.000 A 
ATOM     10  N   UNL     1       1.978   7.347  20.170  0.00  0.00    +0.000 N 
ATOM     11  C   UNL     1       2.626   4.339  18.267  0.00  0.00    +0.000 A 
ATOM     12  O   UNL     1       2.894   4.056  17.101  0.00  0.00    +0.000 OA
ENDBRANCH   1  10
BRANCH   1  13
ATOM     13  C   UNL     1       0.378   8.819  21.420  0.00  0.00    +0.000 C 
ATOM     14  O   UNL     1      -0.662   8.159  21.424  0.00  0.00    +0.000 OA
ATOM     15  N   UNL     1       0.441  10.201  21.492  0.00  0.00    +0.000 N 
ATOM     16  H   UNL     1       1.267  10.640  21.098  0.00  0.00    +0.000 HD
BRANCH  15  17
ATOM     17  C   UNL     1      -0.695  11.022  21.657  0.00  0.00    +0.000 A 
ATOM     18  C   UNL     1      -1.290  11.708  20.591  0.00  0.00    +0.000 A 
ATOM     19  C   UNL     1      -2.406  12.525  20.810  0.00  0.00    +0.000 A 
ATOM     20  C   UNL     1      -2.908  12.676  22.098  0.00  0.00    +0.000 A 
ATOM     21 BR   UNL     1      -4.375  13.826  22.412  0.00  0.00    +0.000 Br
ATOM     22  C   UNL     1      -2.329  11.989  23.166  0.00  0.00    +0.000 A 
ATOM     23  C   UNL     1      -1.243  11.139  22.937  0.00  0.00    +0.000 A 
ENDBRANCH  15  17
ENDBRANCH   1  13
TORSDOF 3
ENDMDL
