MODEL 1
REMARK VINA RESULT:      -7.7      0.000      0.000
REMARK  Name = 
REMARK  4 active torsions:
REMARK  status: ('A' for Active; 'I' for Inactive)
REMARK    1  A    between atoms: C_1  and  C_2
REMARK    2  A    between atoms: C_5  and  C_6
REMARK    3  A    between atoms: C_11  and  C_12
REMARK    4  A    between atoms: C_21  and  C_22
REMARK                            x       y       z     vdW  Elec       q    Type
REMARK                         _______ _______ _______ _____ _____    ______ ____
ROOT
ATOM      1  C   UNL     1      -0.348  15.497  19.333  0.00  0.00    +0.000 C 
ATOM      2  C   UNL     1      -0.022  14.057  19.165  0.00  0.00    +0.000 A 
ATOM      3  N   UNL     1      -0.943  13.256  18.629  0.00  0.00    +0.000 NA
ATOM      4  N   UNL     1      -0.374  12.038  18.557  0.00  0.00    +0.000 N 
ATOM      5  C   UNL     1      -0.929  10.864  18.071  0.00  0.00    +0.000 A 
ATOM      6  C   UNL     1      -0.199   9.732  18.079  0.00  0.00    +0.000 A 
ATOM      7  C   UNL     1       1.178   9.823  18.649  0.00  0.00    +0.000 A 
ATOM      8  N   UNL     1       1.718  10.931  19.073  0.00  0.00    +0.000 NA
ATOM      9  C   UNL     1       0.935  12.060  19.061  0.00  0.00    +0.000 A 
ATOM     10  C   UNL     1       1.154  13.350  19.531  0.00  0.00    +0.000 A 
ENDROOT
BRANCH  10  11
ATOM     11  C   UNL     1       2.342  13.902  20.180  0.00  0.00    +0.000 C 
ATOM     12  O   UNL     1       2.641  13.535  21.320  0.00  0.00    +0.000 OA
ATOM     13  N   UNL     1       3.133  14.817  19.488  0.00  0.00    +0.000 N 
ATOM     14  C   UNL     1       4.299  15.418  20.141  0.00  0.00    +0.000 C 
ATOM     15  C   UNL     1       4.499  16.882  19.705  0.00  0.00    +0.000 C 
ATOM     16  O   UNL     1       4.433  17.054  18.278  0.00  0.00    +0.000 OA
ATOM     17  C   UNL     1       3.195  16.534  17.761  0.00  0.00    +0.000 C 
ATOM     18  C   UNL     1       3.124  15.034  18.039  0.00  0.00    +0.000 C 
ENDBRANCH  10  11
BRANCH   7  19
ATOM     19  C   UNL     1       1.954   8.545  18.736  0.00  0.00    +0.000 A 
ATOM     20  C   UNL     1       1.797   7.725  19.862  0.00  0.00    +0.000 A 
ATOM     21  C   UNL     1       2.487   6.512  19.956  0.00  0.00    +0.000 A 
ATOM     22  C   UNL     1       3.333   6.112  18.923  0.00  0.00    +0.000 A 
ATOM     23 CL   UNL     1       4.182   4.621  19.036  0.00  0.00    +0.000 Cl
ATOM     24  C   UNL     1       3.487   6.911  17.793  0.00  0.00    +0.000 A 
ATOM     25  C   UNL     1       2.794   8.121  17.693  0.00  0.00    +0.000 A 
ENDBRANCH   7  19
BRANCH   5  26
ATOM     26  C   UNL     1      -2.321  10.876  17.556  0.00  0.00    +0.000 C 
ATOM     27  F   UNL     1      -3.261  11.470  18.325  0.00  0.00    +0.000 F 
ATOM     28  F   UNL     1      -2.373  11.487  16.341  0.00  0.00    +0.000 F 
ATOM     29  F   UNL     1      -2.754   9.601  17.344  0.00  0.00    +0.000 F 
ENDBRANCH   5  26
TORSDOF 3
ENDMDL
MODEL 2
REMARK VINA RESULT:      -7.3      6.035      8.185
REMARK  Name = 
REMARK  4 active torsions:
REMARK  status: ('A' for Active; 'I' for Inactive)
REMARK    1  A    between atoms: C_1  and  C_2
REMARK    2  A    between atoms: C_5  and  C_6
REMARK    3  A    between atoms: C_11  and  C_12
REMARK    4  A    between atoms: C_21  and  C_22
REMARK                            x       y       z     vdW  Elec       q    Type
REMARK                         _______ _______ _______ _____ _____    ______ ____
ROOT
ATOM      1  C   UNL     1      -7.005  15.374  23.848  0.00  0.00    +0.000 C 
ATOM      2  C   UNL     1      -5.720  14.673  23.588  0.00  0.00    +0.000 A 
ATOM      3  N   UNL     1      -4.583  15.298  23.890  0.00  0.00    +0.000 NA
ATOM      4  N   UNL     1      -3.598  14.429  23.596  0.00  0.00    +0.000 N 
ATOM      5  C   UNL     1      -2.229  14.612  23.735  0.00  0.00    +0.000 A 
ATOM      6  C   UNL     1      -1.389  13.619  23.387  0.00  0.00    +0.000 A 
ATOM      7  C   UNL     1      -2.007  12.375  22.838  0.00  0.00    +0.000 A 
ATOM      8  N   UNL     1      -3.293  12.184  22.740  0.00  0.00    +0.000 NA
ATOM      9  C   UNL     1      -4.115  13.226  23.093  0.00  0.00    +0.000 A 
ATOM     10  C   UNL     1      -5.493  13.396  23.010  0.00  0.00    +0.000 A 
ENDROOT
BRANCH  10  11
ATOM     11  C   UNL     1      -6.505  12.461  22.522  0.00  0.00    +0.000 C 
ATOM     12  O   UNL     1      -7.280  11.929  23.322  0.00  0.00    +0.000 OA
ATOM     13  N   UNL     1      -6.596  12.207  21.155  0.00  0.00    +0.000 N 
ATOM     14  C   UNL     1      -7.572  11.235  20.655  0.00  0.00    +0.000 C 
ATOM     15  C   UNL     1      -7.021  10.451  19.447  0.00  0.00    +0.000 C 
ATOM     16  O   UNL     1      -6.429  11.304  18.451  0.00  0.00    +0.000 OA
ATOM     17  C   UNL     1      -5.405  12.129  19.031  0.00  0.00    +0.000 C 
ATOM     18  C   UNL     1      -6.028  13.036  20.090  0.00  0.00    +0.000 C 
ENDBRANCH  10  11
BRANCH   7  19
ATOM     19  C   UNL     1      -1.066  11.308  22.371  0.00  0.00    +0.000 A 
ATOM     20  C   UNL     1      -0.837  10.193  23.190  0.00  0.00    +0.000 A 
ATOM     21  C   UNL     1       0.015   9.167  22.766  0.00  0.00    +0.000 A 
ATOM     22  C   UNL     1       0.636   9.249  21.521  0.00  0.00    +0.000 A 
ATOM     23 CL   UNL     1       1.682   7.989  20.997  0.00  0.00    +0.000 Cl
ATOM     24  C   UNL     1       0.405  10.344  20.692  0.00  0.00    +0.000 A 
ATOM     25  C   UNL     1      -0.450  11.368  21.111  0.00  0.00    +0.000 A 
ENDBRANCH   7  19
BRANCH   5  26
ATOM     26  C   UNL     1      -1.718  15.901  24.261  0.00  0.00    +0.000 C 
ATOM     27  F   UNL     1      -2.176  16.305  25.467  0.00  0.00    +0.000 F 
ATOM     28  F   UNL     1      -0.360  15.872  24.354  0.00  0.00    +0.000 F 
ATOM     29  F   UNL     1      -2.004  16.910  23.390  0.00  0.00    +0.000 F 
ENDBRANCH   5  26
TORSDOF 3
ENDMDL
MODEL 3
REMARK VINA RESULT:      -7.1      0.853      1.116
REMARK  Name = 
REMARK  4 active torsions:
REMARK  status: ('A' for Active; 'I' for Inactive)
REMARK    1  A    between atoms: C_1  and  C_2
REMARK    2  A    between atoms: C_5  and  C_6
REMARK    3  A    between atoms: C_11  and  C_12
REMARK    4  A    between atoms: C_21  and  C_22
REMARK                            x       y       z     vdW  Elec       q    Type
REMARK                         _______ _______ _______ _____ _____    ______ ____
ROOT
ATOM      1  C   UNL     1      -0.909  15.812  20.354  0.00  0.00    +0.000 C 
ATOM      2  C   UNL     1      -0.558  14.404  20.030  0.00  0.00    +0.000 A 
ATOM      3  N   UNL     1      -1.508  13.609  19.543  0.00  0.00    +0.000 NA
ATOM      4  N   UNL     1      -0.912  12.426  19.304  0.00  0.00    +0.000 N 
ATOM      5  C   UNL     1      -1.481  11.269  18.792  0.00  0.00    +0.000 A 
ATOM      6  C   UNL     1      -0.718  10.173  18.620  0.00  0.00    +0.000 A 
ATOM      7  C   UNL     1       0.715  10.280  19.029  0.00  0.00    +0.000 A 
ATOM      8  N   UNL     1       1.264  11.374  19.476  0.00  0.00    +0.000 NA
ATOM      9  C   UNL     1       0.448  12.465  19.650  0.00  0.00    +0.000 A 
ATOM     10  C   UNL     1       0.678  13.723  20.196  0.00  0.00    +0.000 A 
ENDROOT
BRANCH  10  11
ATOM     11  C   UNL     1       1.916  14.275  20.743  0.00  0.00    +0.000 C 
ATOM     12  O   UNL     1       2.244  14.004  21.902  0.00  0.00    +0.000 OA
ATOM     13  N   UNL     1       2.720  15.077  19.936  0.00  0.00    +0.000 N 
ATOM     14  C   UNL     1       3.938  15.678  20.483  0.00  0.00    +0.000 C 
ATOM     15  C   UNL     1       4.189  17.082  19.898  0.00  0.00    +0.000 C 
ATOM     16  O   UNL     1       4.072  17.118  18.464  0.00  0.00    +0.000 OA
ATOM     17  C   UNL     1       2.791  16.614  18.047  0.00  0.00    +0.000 C 
ATOM     18  C   UNL     1       2.661  15.154  18.474  0.00  0.00    +0.000 C 
ENDBRANCH  10  11
BRANCH   7  19
ATOM     19  C   UNL     1       1.538   9.034  18.918  0.00  0.00    +0.000 A 
ATOM     20  C   UNL     1       1.555   8.129  19.988  0.00  0.00    +0.000 A 
ATOM     21  C   UNL     1       2.293   6.943  19.900  0.00  0.00    +0.000 A 
ATOM     22  C   UNL     1       3.012   6.656  18.741  0.00  0.00    +0.000 A 
ATOM     23 CL   UNL     1       3.919   5.200  18.630  0.00  0.00    +0.000 Cl
ATOM     24  C   UNL     1       2.993   7.541  17.666  0.00  0.00    +0.000 A 
ATOM     25  C   UNL     1       2.251   8.724  17.749  0.00  0.00    +0.000 A 
ENDBRANCH   7  19
BRANCH   5  26
ATOM     26  C   UNL     1      -2.924  11.261  18.448  0.00  0.00    +0.000 C 
ATOM     27  F   UNL     1      -3.507  10.058  18.246  0.00  0.00    +0.000 F 
ATOM     28  F   UNL     1      -3.649  11.883  19.418  0.00  0.00    +0.000 F 
ATOM     29  F   UNL     1      -3.139  11.981  17.311  0.00  0.00    +0.000 F 
ENDBRANCH   5  26
TORSDOF 3
ENDMDL
MODEL 4
REMARK VINA RESULT:      -6.9      1.312      1.525
REMARK  Name = 
REMARK  4 active torsions:
REMARK  status: ('A' for Active; 'I' for Inactive)
REMARK    1  A    between atoms: C_1  and  C_2
REMARK    2  A    between atoms: C_5  and  C_6
REMARK    3  A    between atoms: C_11  and  C_12
REMARK    4  A    between atoms: C_21  and  C_22
REMARK                            x       y       z     vdW  Elec       q    Type
REMARK                         _______ _______ _______ _____ _____    ______ ____
ROOT
ATOM      1  C   UNL     1      -1.764  15.770  20.501  0.00  0.00    +0.000 C 
ATOM      2  C   UNL     1      -1.287  14.408  20.144  0.00  0.00    +0.000 A 
ATOM      3  N   UNL     1      -2.137  13.573  19.549  0.00  0.00    +0.000 NA
ATOM      4  N   UNL     1      -1.439  12.448  19.306  0.00  0.00    +0.000 N 
ATOM      5  C   UNL     1      -1.883  11.282  18.700  0.00  0.00    +0.000 A 
ATOM      6  C   UNL     1      -1.030  10.251  18.540  0.00  0.00    +0.000 A 
ATOM      7  C   UNL     1       0.356  10.437  19.065  0.00  0.00    +0.000 A 
ATOM      8  N   UNL     1       0.788  11.543  19.601  0.00  0.00    +0.000 NA
ATOM      9  C   UNL     1      -0.116  12.565  19.758  0.00  0.00    +0.000 A 
ATOM     10  C   UNL     1      -0.021  13.807  20.376  0.00  0.00    +0.000 A 
ENDROOT
BRANCH  10  11
ATOM     11  C   UNL     1       1.129  14.416  21.042  0.00  0.00    +0.000 C 
ATOM     12  O   UNL     1       1.418  14.074  22.193  0.00  0.00    +0.000 OA
ATOM     13  N   UNL     1       1.897  15.354  20.356  0.00  0.00    +0.000 N 
ATOM     14  C   UNL     1       3.023  16.010  21.026  0.00  0.00    +0.000 C 
ATOM     15  C   UNL     1       3.172  17.477  20.575  0.00  0.00    +0.000 C 
ATOM     16  O   UNL     1       3.129  17.628  19.145  0.00  0.00    +0.000 OA
ATOM     17  C   UNL     1       1.926  17.052  18.609  0.00  0.00    +0.000 C 
ATOM     18  C   UNL     1       1.910  15.554  18.905  0.00  0.00    +0.000 C 
ENDBRANCH  10  11
BRANCH   7  19
ATOM     19  C   UNL     1       1.275   9.259  18.964  0.00  0.00    +0.000 A 
ATOM     20  C   UNL     1       1.373   8.375  20.047  0.00  0.00    +0.000 A 
ATOM     21  C   UNL     1       2.202   7.250  19.970  0.00  0.00    +0.000 A 
ATOM     22  C   UNL     1       2.930   7.002  18.807  0.00  0.00    +0.000 A 
ATOM     23 CL   UNL     1       3.948   5.620  18.709  0.00  0.00    +0.000 Cl
ATOM     24  C   UNL     1       2.831   7.865  17.719  0.00  0.00    +0.000 A 
ATOM     25  C   UNL     1       1.998   8.987  17.792  0.00  0.00    +0.000 A 
ENDBRANCH   7  19
BRANCH   5  26
ATOM     26  C   UNL     1      -3.291  11.190  18.243  0.00  0.00    +0.000 C 
ATOM     27  F   UNL     1      -3.641  11.922  17.161  0.00  0.00    +0.000 F 
ATOM     28  F   UNL     1      -3.616   9.900  17.958  0.00  0.00    +0.000 F 
ATOM     29  F   UNL     1      -4.135  11.568  19.245  0.00  0.00    +0.000 F 
ENDBRANCH   5  26
TORSDOF 3
ENDMDL
MODEL 5
REMARK VINA RESULT:      -6.9      5.190      7.409
REMARK  Name = 
REMARK  4 active torsions:
REMARK  status: ('A' for Active; 'I' for Inactive)
REMARK    1  A    between atoms: C_1  and  C_2
REMARK    2  A    between atoms: C_5  and  C_6
REMARK    3  A    between atoms: C_11  and  C_12
REMARK    4  A    between atoms: C_21  and  C_22
REMARK                            x       y       z     vdW  Elec       q    Type
REMARK                         _______ _______ _______ _____ _____    ______ ____
ROOT
ATOM      1  C   UNL     1      -1.835  14.072  24.116  0.00  0.00    +0.000 C 
ATOM      2  C   UNL     1      -1.893  13.370  22.807  0.00  0.00    +0.000 A 
ATOM      3  N   UNL     1      -0.975  12.443  22.542  0.00  0.00    +0.000 NA
ATOM      4  N   UNL     1      -1.289  11.951  21.329  0.00  0.00    +0.000 N 
ATOM      5  C   UNL     1      -0.632  10.960  20.613  0.00  0.00    +0.000 A 
ATOM      6  C   UNL     1      -1.099  10.596  19.403  0.00  0.00    +0.000 A 
ATOM      7  C   UNL     1      -2.302  11.322  18.899  0.00  0.00    +0.000 A 
ATOM      8  N   UNL     1      -2.944  12.227  19.583  0.00  0.00    +0.000 NA
ATOM      9  C   UNL     1      -2.428  12.580  20.806  0.00  0.00    +0.000 A 
ATOM     10  C   UNL     1      -2.790  13.561  21.723  0.00  0.00    +0.000 A 
ENDROOT
BRANCH  10  11
ATOM     11  C   UNL     1      -3.888  14.524  21.652  0.00  0.00    +0.000 C 
ATOM     12  O   UNL     1      -3.738  15.575  21.023  0.00  0.00    +0.000 OA
ATOM     13  N   UNL     1      -5.098  14.224  22.275  0.00  0.00    +0.000 N 
ATOM     14  C   UNL     1      -6.192  15.199  22.256  0.00  0.00    +0.000 C 
ATOM     15  C   UNL     1      -6.996  15.172  23.571  0.00  0.00    +0.000 C 
ATOM     16  O   UNL     1      -7.361  13.840  23.975  0.00  0.00    +0.000 OA
ATOM     17  C   UNL     1      -6.196  13.002  24.075  0.00  0.00    +0.000 C 
ATOM     18  C   UNL     1      -5.536  12.893  22.702  0.00  0.00    +0.000 C 
ENDBRANCH  10  11
BRANCH   7  19
ATOM     19  C   UNL     1      -2.765  10.976  17.518  0.00  0.00    +0.000 A 
ATOM     20  C   UNL     1      -2.047  10.029  16.774  0.00  0.00    +0.000 A 
ATOM     21  C   UNL     1      -2.474   9.664  15.493  0.00  0.00    +0.000 A 
ATOM     22  C   UNL     1      -3.622  10.241  14.952  0.00  0.00    +0.000 A 
ATOM     23 CL   UNL     1      -4.149   9.794  13.378  0.00  0.00    +0.000 Cl
ATOM     24  C   UNL     1      -4.352  11.173  15.686  0.00  0.00    +0.000 A 
ATOM     25  C   UNL     1      -3.931  11.534  16.970  0.00  0.00    +0.000 A 
ENDBRANCH   7  19
BRANCH   5  26
ATOM     26  C   UNL     1       0.576  10.324  21.193  0.00  0.00    +0.000 C 
ATOM     27  F   UNL     1       0.457   9.772  22.422  0.00  0.00    +0.000 F 
ATOM     28  F   UNL     1       1.038   9.342  20.372  0.00  0.00    +0.000 F 
ATOM     29  F   UNL     1       1.588  11.233  21.283  0.00  0.00    +0.000 F 
ENDBRANCH   5  26
TORSDOF 3
ENDMDL
MODEL 6
REMARK VINA RESULT:      -6.7      4.280      6.645
REMARK  Name = 
REMARK  4 active torsions:
REMARK  status: ('A' for Active; 'I' for Inactive)
REMARK    1  A    between atoms: C_1  and  C_2
REMARK    2  A    between atoms: C_5  and  C_6
REMARK    3  A    between atoms: C_11  and  C_12
REMARK    4  A    between atoms: C_21  and  C_22
REMARK                            x       y       z     vdW  Elec       q    Type
REMARK                         _______ _______ _______ _____ _____    ______ ____
ROOT
ATOM      1  C   UNL     1      -4.753  15.894  21.303  0.00  0.00    +0.000 C 
ATOM      2  C   UNL     1      -3.642  14.961  20.980  0.00  0.00    +0.000 A 
ATOM      3  N   UNL     1      -2.474  15.473  20.597  0.00  0.00    +0.000 NA
ATOM      4  N   UNL     1      -1.654  14.421  20.414  0.00  0.00    +0.000 N 
ATOM      5  C   UNL     1      -0.326  14.434  20.013  0.00  0.00    +0.000 A 
ATOM      6  C   UNL     1       0.339  13.269  19.884  0.00  0.00    +0.000 A 
ATOM      7  C   UNL     1      -0.430  12.020  20.163  0.00  0.00    +0.000 A 
ATOM      8  N   UNL     1      -1.666  12.004  20.574  0.00  0.00    +0.000 NA
ATOM      9  C   UNL     1      -2.313  13.212  20.680  0.00  0.00    +0.000 A 
ATOM     10  C   UNL     1      -3.631  13.540  20.976  0.00  0.00    +0.000 A 
ENDROOT
BRANCH  10  11
ATOM     11  C   UNL     1      -4.749  12.654  21.297  0.00  0.00    +0.000 C 
ATOM     12  O   UNL     1      -4.944  12.318  22.469  0.00  0.00    +0.000 OA
ATOM     13  N   UNL     1      -5.594  12.226  20.276  0.00  0.00    +0.000 N 
ATOM     14  C   UNL     1      -6.688  11.298  20.572  0.00  0.00    +0.000 C 
ATOM     15  C   UNL     1      -6.916  10.304  19.416  0.00  0.00    +0.000 C 
ATOM     16  O   UNL     1      -6.981  10.949  18.130  0.00  0.00    +0.000 OA
ATOM     17  C   UNL     1      -5.802  11.738  17.897  0.00  0.00    +0.000 C 
ATOM     18  C   UNL     1      -5.718  12.840  18.952  0.00  0.00    +0.000 C 
ENDBRANCH  10  11
BRANCH   7  19
ATOM     19  C   UNL     1       0.287  10.726  19.934  0.00  0.00    +0.000 A 
ATOM     20  C   UNL     1       0.842  10.466  18.673  0.00  0.00    +0.000 A 
ATOM     21  C   UNL     1       1.542   9.277  18.439  0.00  0.00    +0.000 A 
ATOM     22  C   UNL     1       1.694   8.347  19.466  0.00  0.00    +0.000 A 
ATOM     23 CL   UNL     1       2.555   6.886  19.183  0.00  0.00    +0.000 Cl
ATOM     24  C   UNL     1       1.160   8.600  20.727  0.00  0.00    +0.000 A 
ATOM     25  C   UNL     1       0.465   9.790  20.965  0.00  0.00    +0.000 A 
ENDBRANCH   7  19
BRANCH   5  26
ATOM     26  C   UNL     1       0.336  15.731  19.730  0.00  0.00    +0.000 C 
ATOM     27  F   UNL     1       0.398  16.629  20.739  0.00  0.00    +0.000 F 
ATOM     28  F   UNL     1       1.616  15.531  19.312  0.00  0.00    +0.000 F 
ATOM     29  F   UNL     1      -0.292  16.363  18.699  0.00  0.00    +0.000 F 
ENDBRANCH   5  26
TORSDOF 3
ENDMDL
MODEL 7
REMARK VINA RESULT:      -6.6      4.693      6.421
REMARK  Name = 
REMARK  4 active torsions:
REMARK  status: ('A' for Active; 'I' for Inactive)
REMARK    1  A    between atoms: C_1  and  C_2
REMARK    2  A    between atoms: C_5  and  C_6
REMARK    3  A    between atoms: C_11  and  C_12
REMARK    4  A    between atoms: C_21  and  C_22
REMARK                            x       y       z     vdW  Elec       q    Type
REMARK                         _______ _______ _______ _____ _____    ______ ____
ROOT
ATOM      1  C   UNL     1      -3.561  15.473  24.575  0.00  0.00    +0.000 C 
ATOM      2  C   UNL     1      -3.745  14.656  23.347  0.00  0.00    +0.000 A 
ATOM      3  N   UNL     1      -4.909  14.036  23.165  0.00  0.00    +0.000 NA
ATOM      4  N   UNL     1      -4.814  13.416  21.974  0.00  0.00    +0.000 N 
ATOM      5  C   UNL     1      -5.770  12.637  21.338  0.00  0.00    +0.000 A 
ATOM      6  C   UNL     1      -5.491  12.095  20.136  0.00  0.00    +0.000 A 
ATOM      7  C   UNL     1      -4.132  12.359  19.578  0.00  0.00    +0.000 A 
ATOM      8  N   UNL     1      -3.244  13.120  20.153  0.00  0.00    +0.000 NA
ATOM      9  C   UNL     1      -3.562  13.642  21.384  0.00  0.00    +0.000 A 
ATOM     10  C   UNL     1      -2.825  14.385  22.300  0.00  0.00    +0.000 A 
ENDROOT
BRANCH  10  11
ATOM     11  C   UNL     1      -1.447  14.863  22.198  0.00  0.00    +0.000 C 
ATOM     12  O   UNL     1      -1.213  16.072  22.283  0.00  0.00    +0.000 OA
ATOM     13  N   UNL     1      -0.416  13.940  22.032  0.00  0.00    +0.000 N 
ATOM     14  C   UNL     1       0.965  14.405  21.878  0.00  0.00    +0.000 C 
ATOM     15  C   UNL     1       1.756  13.514  20.900  0.00  0.00    +0.000 C 
ATOM     16  O   UNL     1       1.602  12.109  21.176  0.00  0.00    +0.000 OA
ATOM     17  C   UNL     1       0.212  11.743  21.186  0.00  0.00    +0.000 C 
ATOM     18  C   UNL     1      -0.501  12.503  22.303  0.00  0.00    +0.000 C 
ENDBRANCH  10  11
BRANCH   7  19
ATOM     19  C   UNL     1      -3.796  11.684  18.284  0.00  0.00    +0.000 A 
ATOM     20  C   UNL     1      -4.682  11.798  17.204  0.00  0.00    +0.000 A 
ATOM     21  C   UNL     1      -4.379  11.202  15.974  0.00  0.00    +0.000 A 
ATOM     22  C   UNL     1      -3.188  10.495  15.819  0.00  0.00    +0.000 A 
ATOM     23 CL   UNL     1      -2.814   9.762  14.310  0.00  0.00    +0.000 Cl
ATOM     24  C   UNL     1      -2.293  10.386  16.881  0.00  0.00    +0.000 A 
ATOM     25  C   UNL     1      -2.590  10.986  18.109  0.00  0.00    +0.000 A 
ENDBRANCH   7  19
BRANCH   5  26
ATOM     26  C   UNL     1      -7.080  12.411  21.997  0.00  0.00    +0.000 C 
ATOM     27  F   UNL     1      -7.917  13.469  22.092  0.00  0.00    +0.000 F 
ATOM     28  F   UNL     1      -7.770  11.428  21.358  0.00  0.00    +0.000 F 
ATOM     29  F   UNL     1      -6.893  11.960  23.269  0.00  0.00    +0.000 F 
ENDBRANCH   5  26
TORSDOF 3
ENDMDL
MODEL 8
REMARK VINA RESULT:      -6.6      4.799      7.394
REMARK  Name = 
REMARK  4 active torsions:
REMARK  status: ('A' for Active; 'I' for Inactive)
REMARK    1  A    between atoms: C_1  and  C_2
REMARK    2  A    between atoms: C_5  and  C_6
REMARK    3  A    between atoms: C_11  and  C_12
REMARK    4  A    between atoms: C_21  and  C_22
REMARK                            x       y       z     vdW  Elec       q    Type
REMARK                         _______ _______ _______ _____ _____    ______ ____
ROOT
ATOM      1  C   UNL     1      -2.515   9.782  16.215  0.00  0.00    +0.000 C 
ATOM      2  C   UNL     1      -3.016  10.685  17.284  0.00  0.00    +0.000 A 
ATOM      3  N   UNL     1      -4.293  11.061  17.250  0.00  0.00    +0.000 NA
ATOM      4  N   UNL     1      -4.480  11.827  18.342  0.00  0.00    +0.000 N 
ATOM      5  C   UNL     1      -5.645  12.457  18.754  0.00  0.00    +0.000 A 
ATOM      6  C   UNL     1      -5.640  13.187  19.885  0.00  0.00    +0.000 A 
ATOM      7  C   UNL     1      -4.341  13.289  20.615  0.00  0.00    +0.000 A 
ATOM      8  N   UNL     1      -3.253  12.669  20.253  0.00  0.00    +0.000 NA
ATOM      9  C   UNL     1      -3.296  11.946  19.085  0.00  0.00    +0.000 A 
ATOM     10  C   UNL     1      -2.314  11.271  18.370  0.00  0.00    +0.000 A 
ENDROOT
BRANCH  10  11
ATOM     11  C   UNL     1      -0.895  11.113  18.684  0.00  0.00    +0.000 C 
ATOM     12  O   UNL     1      -0.432   9.983  18.864  0.00  0.00    +0.000 OA
ATOM     13  N   UNL     1      -0.081  12.242  18.747  0.00  0.00    +0.000 N 
ATOM     14  C   UNL     1       1.332  12.107  19.109  0.00  0.00    +0.000 C 
ATOM     15  C   UNL     1       1.818  13.304  19.951  0.00  0.00    +0.000 C 
ATOM     16  O   UNL     1       1.442  14.573  19.385  0.00  0.00    +0.000 OA
ATOM     17  C   UNL     1       0.020  14.638  19.183  0.00  0.00    +0.000 C 
ATOM     18  C   UNL     1      -0.396  13.558  18.186  0.00  0.00    +0.000 C 
ENDBRANCH  10  11
BRANCH   7  19
ATOM     19  C   UNL     1      -4.318  14.172  21.824  0.00  0.00    +0.000 A 
ATOM     20  C   UNL     1      -3.083  14.551  22.369  0.00  0.00    +0.000 A 
ATOM     21  C   UNL     1      -3.031  15.399  23.481  0.00  0.00    +0.000 A 
ATOM     22  C   UNL     1      -4.213  15.876  24.048  0.00  0.00    +0.000 A 
ATOM     23 CL   UNL     1      -4.151  16.918  25.413  0.00  0.00    +0.000 Cl
ATOM     24  C   UNL     1      -5.445  15.517  23.507  0.00  0.00    +0.000 A 
ATOM     25  C   UNL     1      -5.499  14.675  22.392  0.00  0.00    +0.000 A 
ENDBRANCH   7  19
BRANCH   5  26
ATOM     26  C   UNL     1      -6.876  12.317  17.936  0.00  0.00    +0.000 C 
ATOM     27  F   UNL     1      -6.834  12.783  16.668  0.00  0.00    +0.000 F 
ATOM     28  F   UNL     1      -7.247  11.010  17.855  0.00  0.00    +0.000 F 
ATOM     29  F   UNL     1      -7.916  12.956  18.541  0.00  0.00    +0.000 F 
ENDBRANCH   5  26
TORSDOF 3
ENDMDL
MODEL 9
REMARK VINA RESULT:      -6.6      5.270      8.198
REMARK  Name = 
REMARK  4 active torsions:
REMARK  status: ('A' for Active; 'I' for Inactive)
REMARK    1  A    between atoms: C_1  and  C_2
REMARK    2  A    between atoms: C_5  and  C_6
REMARK    3  A    between atoms: C_11  and  C_12
REMARK    4  A    between atoms: C_21  and  C_22
REMARK                            x       y       z     vdW  Elec       q    Type
REMARK                         _______ _______ _______ _____ _____    ______ ____
ROOT
ATOM      1  C   UNL     1      -3.074   9.927  15.163  0.00  0.00    +0.000 C 
ATOM      2  C   UNL     1      -2.744  10.437  16.520  0.00  0.00    +0.000 A 
ATOM      3  N   UNL     1      -1.594  10.060  17.077  0.00  0.00    +0.000 NA
ATOM      4  N   UNL     1      -1.535  10.694  18.263  0.00  0.00    +0.000 N 
ATOM      5  C   UNL     1      -0.531  10.629  19.217  0.00  0.00    +0.000 A 
ATOM      6  C   UNL     1      -0.648  11.342  20.354  0.00  0.00    +0.000 A 
ATOM      7  C   UNL     1      -1.895  12.147  20.518  0.00  0.00    +0.000 A 
ATOM      8  N   UNL     1      -2.824  12.241  19.609  0.00  0.00    +0.000 NA
ATOM      9  C   UNL     1      -2.673  11.488  18.470  0.00  0.00    +0.000 A 
ATOM     10  C   UNL     1      -3.506  11.272  17.378  0.00  0.00    +0.000 A 
ENDROOT
BRANCH  10  11
ATOM     11  C   UNL     1      -4.830  11.831  17.108  0.00  0.00    +0.000 C 
ATOM     12  O   UNL     1      -5.053  12.377  16.024  0.00  0.00    +0.000 OA
ATOM     13  N   UNL     1      -5.829  11.711  18.072  0.00  0.00    +0.000 N 
ATOM     14  C   UNL     1      -7.146  12.308  17.839  0.00  0.00    +0.000 C 
ATOM     15  C   UNL     1      -7.756  12.861  19.143  0.00  0.00    +0.000 C 
ATOM     16  O   UNL     1      -7.685  11.924  20.233  0.00  0.00    +0.000 OA
ATOM     17  C   UNL     1      -6.329  11.496  20.448  0.00  0.00    +0.000 C 
ATOM     18  C   UNL     1      -5.826  10.775  19.199  0.00  0.00    +0.000 C 
ENDBRANCH  10  11
BRANCH   7  19
ATOM     19  C   UNL     1      -2.062  12.869  21.819  0.00  0.00    +0.000 A 
ATOM     20  C   UNL     1      -1.029  13.699  22.277  0.00  0.00    +0.000 A 
ATOM     21  C   UNL     1      -1.170  14.408  23.476  0.00  0.00    +0.000 A 
ATOM     22  C   UNL     1      -2.345  14.293  24.217  0.00  0.00    +0.000 A 
ATOM     23 CL   UNL     1      -2.520  15.163  25.689  0.00  0.00    +0.000 Cl
ATOM     24  C   UNL     1      -3.383  13.482  23.766  0.00  0.00    +0.000 A 
ATOM     25  C   UNL     1      -3.247  12.777  22.566  0.00  0.00    +0.000 A 
ENDBRANCH   7  19
BRANCH   5  26
ATOM     26  C   UNL     1       0.654   9.770  18.969  0.00  0.00    +0.000 C 
ATOM     27  F   UNL     1       0.659   9.035  17.834  0.00  0.00    +0.000 F 
ATOM     28  F   UNL     1       1.789  10.520  18.949  0.00  0.00    +0.000 F 
ATOM     29  F   UNL     1       0.816   8.886  19.994  0.00  0.00    +0.000 F 
ENDBRANCH   5  26
TORSDOF 3
ENDMDL
