MODEL 1
REMARK VINA RESULT:      -8.5      0.000      0.000
REMARK  Name = 
REMARK  6 active torsions:
REMARK  status: ('A' for Active; 'I' for Inactive)
REMARK    1  A    between atoms: C_1  and  C_2
REMARK    2  A    between atoms: C_3  and  C_4
REMARK    3  A    between atoms: C_4  and  C_5
REMARK    4  A    between atoms: C_8  and  C_9
REMARK    5  A    between atoms: C_17  and  C_18
REMARK    6  A    between atoms: N_20  and  C_21
REMARK                            x       y       z     vdW  Elec       q    Type
REMARK                         _______ _______ _______ _____ _____    ______ ____
ROOT
ATOM      1  C   UNL     1       5.115   6.811  15.813  0.00  0.00    +0.000 C 
ATOM      2  C   UNL     1       6.140   5.808  16.228  0.00  0.00    +0.000 A 
ATOM      3  C   UNL     1       6.482   5.449  17.584  0.00  0.00    +0.000 A 
ATOM      4  C   UNL     1       7.561   4.588  17.493  0.00  0.00    +0.000 A 
ATOM      5  N   UNL     1       7.860   4.392  16.169  0.00  0.00    +0.000 N 
ATOM      6  C   UNL     1       6.953   5.053  15.371  0.00  0.00    +0.000 A 
ATOM      7  H   UNL     1       8.604   3.812  15.810  0.00  0.00    +0.000 HD
ENDROOT
BRANCH   6   8
ATOM      8  C   UNL     1       6.983   4.898  13.923  0.00  0.00    +0.000 C 
ATOM      9  O   UNL     1       7.736   5.545  13.199  0.00  0.00    +0.000 OA
ATOM     10  N   UNL     1       6.165   3.900  13.445  0.00  0.00    +0.000 N 
ATOM     11  H   UNL     1       5.791   3.291  14.159  0.00  0.00    +0.000 HD
BRANCH  10  12
ATOM     12  C   UNL     1       6.166   3.407  12.059  0.00  0.00    +0.000 C 
ATOM     13  C   UNL     1       5.143   2.311  11.690  0.00  0.00    +0.000 C 
ATOM     14  C   UNL     1       6.275   1.652  10.857  0.00  0.00    +0.000 C 
ATOM     15  F   UNL     1       6.299   0.300  10.842  0.00  0.00    +0.000 F 
ATOM     16  C   UNL     1       7.259   2.333  11.829  0.00  0.00    +0.000 C 
ENDBRANCH  10  12
ENDBRANCH   6   8
BRANCH   3  17
ATOM     17  C   UNL     1       5.867   5.941  18.867  0.00  0.00    +0.000 C 
BRANCH  17  18
ATOM     18  C   UNL     1       4.572   5.193  19.042  0.00  0.00    +0.000 A 
ATOM     19  C   UNL     1       3.339   5.848  19.105  0.00  0.00    +0.000 A 
ATOM     20  C   UNL     1       2.170   5.121  19.340  0.00  0.00    +0.000 A 
ATOM     21  C   UNL     1       2.250   3.739  19.511  0.00  0.00    +0.000 A 
ATOM     22  N   UNL     1       3.436   3.075  19.390  0.00  0.00    +0.000 NA
ATOM     23  C   UNL     1       4.550   3.808  19.161  0.00  0.00    +0.000 A 
BRANCH  21  24
ATOM     24  C   UNL     1       1.004   2.948  19.896  0.00  0.00    +0.000 C 
ATOM     25  F   UNL     1       1.192   2.140  20.984  0.00  0.00    +0.000 F 
ATOM     26  F   UNL     1      -0.065   3.734  20.212  0.00  0.00    +0.000 F 
ATOM     27  F   UNL     1       0.578   2.113  18.903  0.00  0.00    +0.000 F 
ENDBRANCH  21  24
ENDBRANCH  17  18
ENDBRANCH   3  17
TORSDOF 5
ENDMDL
MODEL 2
REMARK VINA RESULT:      -8.2      0.617      1.005
REMARK  Name = 
REMARK  6 active torsions:
REMARK  status: ('A' for Active; 'I' for Inactive)
REMARK    1  A    between atoms: C_1  and  C_2
REMARK    2  A    between atoms: C_3  and  C_4
REMARK    3  A    between atoms: C_4  and  C_5
REMARK    4  A    between atoms: C_8  and  C_9
REMARK    5  A    between atoms: C_17  and  C_18
REMARK    6  A    between atoms: N_20  and  C_21
REMARK                            x       y       z     vdW  Elec       q    Type
REMARK                         _______ _______ _______ _____ _____    ______ ____
ROOT
ATOM      1  C   UNL     1       5.148   6.730  16.059  0.00  0.00    +0.000 C 
ATOM      2  C   UNL     1       6.207   5.736  16.405  0.00  0.00    +0.000 A 
ATOM      3  C   UNL     1       6.607   5.344  17.735  0.00  0.00    +0.000 A 
ATOM      4  C   UNL     1       7.697   4.506  17.578  0.00  0.00    +0.000 A 
ATOM      5  N   UNL     1       7.948   4.354  16.238  0.00  0.00    +0.000 N 
ATOM      6  C   UNL     1       6.998   5.021  15.496  0.00  0.00    +0.000 A 
ATOM      7  H   UNL     1       8.688   3.799  15.834  0.00  0.00    +0.000 HD
ENDROOT
BRANCH   6   8
ATOM      8  C   UNL     1       6.976   4.909  14.044  0.00  0.00    +0.000 C 
ATOM      9  O   UNL     1       7.680   5.598  13.311  0.00  0.00    +0.000 OA
ATOM     10  N   UNL     1       6.168   3.901  13.568  0.00  0.00    +0.000 N 
ATOM     11  H   UNL     1       5.840   3.261  14.278  0.00  0.00    +0.000 HD
BRANCH  10  12
ATOM     12  C   UNL     1       6.128   3.449  12.169  0.00  0.00    +0.000 C 
ATOM     13  C   UNL     1       5.144   2.313  11.814  0.00  0.00    +0.000 C 
ATOM     14  C   UNL     1       6.265   1.736  10.910  0.00  0.00    +0.000 C 
ATOM     15  F   UNL     1       6.355   0.388  10.852  0.00  0.00    +0.000 F 
ATOM     16  C   UNL     1       7.260   2.438  11.856  0.00  0.00    +0.000 C 
ENDBRANCH  10  12
ENDBRANCH   6   8
BRANCH   3  17
ATOM     17  C   UNL     1       6.034   5.786  19.055  0.00  0.00    +0.000 C 
BRANCH  17  18
ATOM     18  C   UNL     1       4.776   4.987  19.272  0.00  0.00    +0.000 A 
ATOM     19  C   UNL     1       4.761   3.592  19.196  0.00  0.00    +0.000 A 
ATOM     20  C   UNL     1       3.558   2.896  19.333  0.00  0.00    +0.000 A 
ATOM     21  C   UNL     1       2.378   3.609  19.547  0.00  0.00    +0.000 A 
ATOM     22  N   UNL     1       2.383   4.967  19.687  0.00  0.00    +0.000 NA
ATOM     23  C   UNL     1       3.566   5.612  19.550  0.00  0.00    +0.000 A 
BRANCH  21  24
ATOM     24  C   UNL     1       1.041   2.876  19.570  0.00  0.00    +0.000 C 
ATOM     25  F   UNL     1       1.093   1.677  20.227  0.00  0.00    +0.000 F 
ATOM     26  F   UNL     1       0.043   3.579  20.179  0.00  0.00    +0.000 F 
ATOM     27  F   UNL     1       0.581   2.575  18.319  0.00  0.00    +0.000 F 
ENDBRANCH  21  24
ENDBRANCH  17  18
ENDBRANCH   3  17
TORSDOF 5
ENDMDL
MODEL 3
REMARK VINA RESULT:      -7.6      4.411      6.512
REMARK  Name = 
REMARK  6 active torsions:
REMARK  status: ('A' for Active; 'I' for Inactive)
REMARK    1  A    between atoms: C_1  and  C_2
REMARK    2  A    between atoms: C_3  and  C_4
REMARK    3  A    between atoms: C_4  and  C_5
REMARK    4  A    between atoms: C_8  and  C_9
REMARK    5  A    between atoms: C_17  and  C_18
REMARK    6  A    between atoms: N_20  and  C_21
REMARK                            x       y       z     vdW  Elec       q    Type
REMARK                         _______ _______ _______ _____ _____    ______ ____
ROOT
ATOM      1  C   UNL     1       5.382   7.062  16.294  0.00  0.00    +0.000 C 
ATOM      2  C   UNL     1       6.462   6.545  17.187  0.00  0.00    +0.000 A 
ATOM      3  C   UNL     1       6.695   5.163  17.532  0.00  0.00    +0.000 A 
ATOM      4  C   UNL     1       7.706   5.167  18.476  0.00  0.00    +0.000 A 
ATOM      5  N   UNL     1       8.106   6.462  18.689  0.00  0.00    +0.000 N 
ATOM      6  C   UNL     1       7.427   7.316  17.849  0.00  0.00    +0.000 A 
ATOM      7  H   UNL     1       8.828   6.760  19.330  0.00  0.00    +0.000 HD
ENDROOT
BRANCH   6   8
ATOM      8  C   UNL     1       7.763   8.732  17.797  0.00  0.00    +0.000 C 
ATOM      9  O   UNL     1       7.180   9.530  17.068  0.00  0.00    +0.000 OA
ATOM     10  N   UNL     1       8.726   9.116  18.704  0.00  0.00    +0.000 N 
ATOM     11  H   UNL     1       8.943   8.419  19.401  0.00  0.00    +0.000 HD
BRANCH  10  12
ATOM     12  C   UNL     1       9.094  10.511  18.995  0.00  0.00    +0.000 C 
ATOM     13  C   UNL     1      10.527  10.960  18.639  0.00  0.00    +0.000 C 
ATOM     14  C   UNL     1      10.526  11.743  19.979  0.00  0.00    +0.000 C 
ATOM     15  F   UNL     1      11.699  11.787  20.649  0.00  0.00    +0.000 F 
ATOM     16  C   UNL     1       9.502  10.703  20.477  0.00  0.00    +0.000 C 
ENDBRANCH  10  12
ENDBRANCH   6   8
BRANCH   3  17
ATOM     17  C   UNL     1       5.964   3.940  17.047  0.00  0.00    +0.000 C 
BRANCH  17  18
ATOM     18  C   UNL     1       4.708   3.829  17.871  0.00  0.00    +0.000 A 
ATOM     19  C   UNL     1       3.440   4.042  17.323  0.00  0.00    +0.000 A 
ATOM     20  C   UNL     1       2.307   3.999  18.140  0.00  0.00    +0.000 A 
ATOM     21  C   UNL     1       2.459   3.742  19.502  0.00  0.00    +0.000 A 
ATOM     22  N   UNL     1       3.683   3.469  20.043  0.00  0.00    +0.000 NA
ATOM     23  C   UNL     1       4.760   3.518  19.224  0.00  0.00    +0.000 A 
BRANCH  21  24
ATOM     24  C   UNL     1       1.250   3.820  20.429  0.00  0.00    +0.000 C 
ATOM     25  F   UNL     1       0.128   3.238  19.905  0.00  0.00    +0.000 F 
ATOM     26  F   UNL     1       1.445   3.208  21.632  0.00  0.00    +0.000 F 
ATOM     27  F   UNL     1       0.884   5.105  20.714  0.00  0.00    +0.000 F 
ENDBRANCH  21  24
ENDBRANCH  17  18
ENDBRANCH   3  17
TORSDOF 5
ENDMDL
MODEL 4
REMARK VINA RESULT:      -7.6      4.096      6.330
REMARK  Name = 
REMARK  6 active torsions:
REMARK  status: ('A' for Active; 'I' for Inactive)
REMARK    1  A    between atoms: C_1  and  C_2
REMARK    2  A    between atoms: C_3  and  C_4
REMARK    3  A    between atoms: C_4  and  C_5
REMARK    4  A    between atoms: C_8  and  C_9
REMARK    5  A    between atoms: C_17  and  C_18
REMARK    6  A    between atoms: N_20  and  C_21
REMARK                            x       y       z     vdW  Elec       q    Type
REMARK                         _______ _______ _______ _____ _____    ______ ____
ROOT
ATOM      1  C   UNL     1       7.614   4.525  17.897  0.00  0.00    +0.000 C 
ATOM      2  C   UNL     1       6.799   5.609  17.274  0.00  0.00    +0.000 A 
ATOM      3  C   UNL     1       5.634   5.429  16.441  0.00  0.00    +0.000 A 
ATOM      4  C   UNL     1       5.287   6.689  15.987  0.00  0.00    +0.000 A 
ATOM      5  N   UNL     1       6.155   7.606  16.522  0.00  0.00    +0.000 N 
ATOM      6  C   UNL     1       7.033   6.987  17.383  0.00  0.00    +0.000 A 
ATOM      7  H   UNL     1       6.138   8.602  16.358  0.00  0.00    +0.000 HD
ENDROOT
BRANCH   6   8
ATOM      8  C   UNL     1       7.976   7.767  18.173  0.00  0.00    +0.000 C 
ATOM      9  O   UNL     1       8.650   7.282  19.078  0.00  0.00    +0.000 OA
ATOM     10  N   UNL     1       8.116   9.072  17.756  0.00  0.00    +0.000 N 
ATOM     11  H   UNL     1       7.693   9.270  16.861  0.00  0.00    +0.000 HD
BRANCH  10  12
ATOM     12  C   UNL     1       9.145  10.002  18.247  0.00  0.00    +0.000 C 
ATOM     13  C   UNL     1       9.124  10.362  19.748  0.00  0.00    +0.000 C 
ATOM     14  C   UNL     1       9.452  11.817  19.320  0.00  0.00    +0.000 C 
ATOM     15  F   UNL     1       8.881  12.800  20.050  0.00  0.00    +0.000 F 
ATOM     16  C   UNL     1       8.759  11.480  17.984  0.00  0.00    +0.000 C 
ENDBRANCH  10  12
ENDBRANCH   6   8
BRANCH   3  17
ATOM     17  C   UNL     1       4.946   4.146  16.057  0.00  0.00    +0.000 C 
BRANCH  17  18
ATOM     18  C   UNL     1       3.935   3.856  17.136  0.00  0.00    +0.000 A 
ATOM     19  C   UNL     1       2.912   4.753  17.454  0.00  0.00    +0.000 A 
ATOM     20  C   UNL     1       2.040   4.476  18.510  0.00  0.00    +0.000 A 
ATOM     21  C   UNL     1       2.203   3.296  19.236  0.00  0.00    +0.000 A 
ATOM     22  N   UNL     1       3.157   2.379  18.899  0.00  0.00    +0.000 NA
ATOM     23  C   UNL     1       3.985   2.678  17.871  0.00  0.00    +0.000 A 
BRANCH  21  24
ATOM     24  C   UNL     1       1.344   3.039  20.470  0.00  0.00    +0.000 C 
ATOM     25  F   UNL     1       1.034   4.180  21.160  0.00  0.00    +0.000 F 
ATOM     26  F   UNL     1       0.147   2.451  20.189  0.00  0.00    +0.000 F 
ATOM     27  F   UNL     1       1.958   2.228  21.382  0.00  0.00    +0.000 F 
ENDBRANCH  21  24
ENDBRANCH  17  18
ENDBRANCH   3  17
TORSDOF 5
ENDMDL
MODEL 5
REMARK VINA RESULT:      -7.6      4.508      6.585
REMARK  Name = 
REMARK  6 active torsions:
REMARK  status: ('A' for Active; 'I' for Inactive)
REMARK    1  A    between atoms: C_1  and  C_2
REMARK    2  A    between atoms: C_3  and  C_4
REMARK    3  A    between atoms: C_4  and  C_5
REMARK    4  A    between atoms: C_8  and  C_9
REMARK    5  A    between atoms: C_17  and  C_18
REMARK    6  A    between atoms: N_20  and  C_21
REMARK                            x       y       z     vdW  Elec       q    Type
REMARK                         _______ _______ _______ _____ _____    ______ ____
ROOT
ATOM      1  C   UNL     1       5.676   7.081  16.353  0.00  0.00    +0.000 C 
ATOM      2  C   UNL     1       6.663   6.583  17.357  0.00  0.00    +0.000 A 
ATOM      3  C   UNL     1       6.813   5.218  17.802  0.00  0.00    +0.000 A 
ATOM      4  C   UNL     1       7.750   5.246  18.819  0.00  0.00    +0.000 A 
ATOM      5  N   UNL     1       8.185   6.536  18.985  0.00  0.00    +0.000 N 
ATOM      6  C   UNL     1       7.606   7.359  18.045  0.00  0.00    +0.000 A 
ATOM      7  H   UNL     1       8.868   6.848  19.660  0.00  0.00    +0.000 HD
ENDROOT
BRANCH   6   8
ATOM      8  C   UNL     1       8.003   8.757  17.934  0.00  0.00    +0.000 C 
ATOM      9  O   UNL     1       7.564   9.508  17.067  0.00  0.00    +0.000 OA
ATOM     10  N   UNL     1       8.839   9.186  18.940  0.00  0.00    +0.000 N 
ATOM     11  H   UNL     1       8.925   8.543  19.713  0.00  0.00    +0.000 HD
BRANCH  10  12
ATOM     12  C   UNL     1       9.216  10.589  19.173  0.00  0.00    +0.000 C 
ATOM     13  C   UNL     1      10.611  11.043  18.691  0.00  0.00    +0.000 C 
ATOM     14  C   UNL     1      10.714  11.851  20.011  0.00  0.00    +0.000 C 
ATOM     15  F   UNL     1      11.938  11.917  20.581  0.00  0.00    +0.000 F 
ATOM     16  C   UNL     1       9.745  10.813  20.612  0.00  0.00    +0.000 C 
ENDBRANCH  10  12
ENDBRANCH   6   8
BRANCH   3  17
ATOM     17  C   UNL     1       6.071   3.994  17.335  0.00  0.00    +0.000 C 
BRANCH  17  18
ATOM     18  C   UNL     1       4.815   3.906  18.162  0.00  0.00    +0.000 A 
ATOM     19  C   UNL     1       4.774   3.217  19.378  0.00  0.00    +0.000 A 
ATOM     20  C   UNL     1       3.570   3.100  20.076  0.00  0.00    +0.000 A 
ATOM     21  C   UNL     1       2.416   3.679  19.547  0.00  0.00    +0.000 A 
ATOM     22  N   UNL     1       2.451   4.408  18.394  0.00  0.00    +0.000 NA
ATOM     23  C   UNL     1       3.633   4.503  17.741  0.00  0.00    +0.000 A 
BRANCH  21  24
ATOM     24  C   UNL     1       1.071   3.451  20.229  0.00  0.00    +0.000 C 
ATOM     25  F   UNL     1       1.176   2.798  21.427  0.00  0.00    +0.000 F 
ATOM     26  F   UNL     1       0.397   4.603  20.504  0.00  0.00    +0.000 F 
ATOM     27  F   UNL     1       0.221   2.686  19.481  0.00  0.00    +0.000 F 
ENDBRANCH  21  24
ENDBRANCH  17  18
ENDBRANCH   3  17
TORSDOF 5
ENDMDL
MODEL 6
REMARK VINA RESULT:      -7.4      4.586      6.676
REMARK  Name = 
REMARK  6 active torsions:
REMARK  status: ('A' for Active; 'I' for Inactive)
REMARK    1  A    between atoms: C_1  and  C_2
REMARK    2  A    between atoms: C_3  and  C_4
REMARK    3  A    between atoms: C_4  and  C_5
REMARK    4  A    between atoms: C_8  and  C_9
REMARK    5  A    between atoms: C_17  and  C_18
REMARK    6  A    between atoms: N_20  and  C_21
REMARK                            x       y       z     vdW  Elec       q    Type
REMARK                         _______ _______ _______ _____ _____    ______ ____
ROOT
ATOM      1  C   UNL     1       5.797   7.074  16.480  0.00  0.00    +0.000 C 
ATOM      2  C   UNL     1       6.798   6.628  17.494  0.00  0.00    +0.000 A 
ATOM      3  C   UNL     1       6.979   5.280  17.978  0.00  0.00    +0.000 A 
ATOM      4  C   UNL     1       7.918   5.358  18.991  0.00  0.00    +0.000 A 
ATOM      5  N   UNL     1       8.325   6.662  19.116  0.00  0.00    +0.000 N 
ATOM      6  C   UNL     1       7.725   7.444  18.155  0.00  0.00    +0.000 A 
ATOM      7  H   UNL     1       9.003   7.008  19.779  0.00  0.00    +0.000 HD
ENDROOT
BRANCH   6   8
ATOM      8  C   UNL     1       8.092   8.846  18.001  0.00  0.00    +0.000 C 
ATOM      9  O   UNL     1       7.614   9.568  17.130  0.00  0.00    +0.000 OA
ATOM     10  N   UNL     1       8.945   9.315  18.974  0.00  0.00    +0.000 N 
ATOM     11  H   UNL     1       9.065   8.692  19.760  0.00  0.00    +0.000 HD
BRANCH  10  12
ATOM     12  C   UNL     1       9.301  10.730  19.165  0.00  0.00    +0.000 C 
ATOM     13  C   UNL     1      10.710  11.178  18.721  0.00  0.00    +0.000 C 
ATOM     14  C   UNL     1      10.752  12.040  20.011  0.00  0.00    +0.000 C 
ATOM     15  F   UNL     1      11.951  12.142  20.626  0.00  0.00    +0.000 F 
ATOM     16  C   UNL     1       9.769  11.017  20.614  0.00  0.00    +0.000 C 
ENDBRANCH  10  12
ENDBRANCH   6   8
BRANCH   3  17
ATOM     17  C   UNL     1       6.262   4.027  17.551  0.00  0.00    +0.000 C 
BRANCH  17  18
ATOM     18  C   UNL     1       4.929   4.029  18.251  0.00  0.00    +0.000 A 
ATOM     19  C   UNL     1       4.625   4.939  19.267  0.00  0.00    +0.000 A 
ATOM     20  C   UNL     1       3.403   4.858  19.938  0.00  0.00    +0.000 A 
ATOM     21  C   UNL     1       2.494   3.862  19.581  0.00  0.00    +0.000 A 
ATOM     22  N   UNL     1       2.747   3.005  18.549  0.00  0.00    +0.000 NA
ATOM     23  C   UNL     1       3.940   3.110  17.919  0.00  0.00    +0.000 A 
BRANCH  21  24
ATOM     24  C   UNL     1       1.213   3.679  20.388  0.00  0.00    +0.000 C 
ATOM     25  F   UNL     1       0.553   4.853  20.629  0.00  0.00    +0.000 F 
ATOM     26  F   UNL     1       0.298   2.868  19.783  0.00  0.00    +0.000 F 
ATOM     27  F   UNL     1       1.437   3.138  21.622  0.00  0.00    +0.000 F 
ENDBRANCH  21  24
ENDBRANCH  17  18
ENDBRANCH   3  17
TORSDOF 5
ENDMDL
MODEL 7
REMARK VINA RESULT:      -7.4      6.126      8.938
REMARK  Name = 
REMARK  6 active torsions:
REMARK  status: ('A' for Active; 'I' for Inactive)
REMARK    1  A    between atoms: C_1  and  C_2
REMARK    2  A    between atoms: C_3  and  C_4
REMARK    3  A    between atoms: C_4  and  C_5
REMARK    4  A    between atoms: C_8  and  C_9
REMARK    5  A    between atoms: C_17  and  C_18
REMARK    6  A    between atoms: N_20  and  C_21
REMARK                            x       y       z     vdW  Elec       q    Type
REMARK                         _______ _______ _______ _____ _____    ______ ____
ROOT
ATOM      1  C   UNL     1       1.004   8.254  21.139  0.00  0.00    +0.000 C 
ATOM      2  C   UNL     1       1.565   8.527  19.783  0.00  0.00    +0.000 A 
ATOM      3  C   UNL     1       1.437   9.757  19.039  0.00  0.00    +0.000 A 
ATOM      4  C   UNL     1       1.994   9.515  17.796  0.00  0.00    +0.000 A 
ATOM      5  N   UNL     1       2.470   8.229  17.767  0.00  0.00    +0.000 N 
ATOM      6  C   UNL     1       2.303   7.631  18.997  0.00  0.00    +0.000 A 
ATOM      7  H   UNL     1       2.924   7.784  16.984  0.00  0.00    +0.000 HD
ENDROOT
BRANCH   6   8
ATOM      8  C   UNL     1       2.842   6.303  19.258  0.00  0.00    +0.000 C 
ATOM      9  O   UNL     1       4.046   6.079  19.356  0.00  0.00    +0.000 OA
ATOM     10  N   UNL     1       1.883   5.340  19.479  0.00  0.00    +0.000 N 
ATOM     11  H   UNL     1       0.950   5.703  19.610  0.00  0.00    +0.000 HD
BRANCH  10  12
ATOM     12  C   UNL     1       2.160   3.978  19.962  0.00  0.00    +0.000 C 
ATOM     13  C   UNL     1       0.959   3.023  20.133  0.00  0.00    +0.000 C 
ATOM     14  C   UNL     1       1.638   2.538  21.442  0.00  0.00    +0.000 C 
ATOM     15  F   UNL     1       0.812   2.229  22.467  0.00  0.00    +0.000 F 
ATOM     16  C   UNL     1       2.299   3.930  21.504  0.00  0.00    +0.000 C 
ENDBRANCH  10  12
ENDBRANCH   6   8
BRANCH   3  17
ATOM     17  C   UNL     1       0.776  11.043  19.460  0.00  0.00    +0.000 C 
BRANCH  17  18
ATOM     18  C   UNL     1      -0.639  10.991  18.946  0.00  0.00    +0.000 A 
ATOM     19  C   UNL     1      -1.042  10.074  17.972  0.00  0.00    +0.000 A 
ATOM     20  C   UNL     1      -2.346  10.110  17.473  0.00  0.00    +0.000 A 
ATOM     21  C   UNL     1      -3.236  11.068  17.958  0.00  0.00    +0.000 A 
ATOM     22  N   UNL     1      -2.879  11.930  18.954  0.00  0.00    +0.000 NA
ATOM     23  C   UNL     1      -1.608  11.870  19.417  0.00  0.00    +0.000 A 
BRANCH  21  24
ATOM     24  C   UNL     1      -4.621  11.205  17.333  0.00  0.00    +0.000 C 
ATOM     25  F   UNL     1      -4.665  10.808  16.024  0.00  0.00    +0.000 F 
ATOM     26  F   UNL     1      -5.580  10.470  17.966  0.00  0.00    +0.000 F 
ATOM     27  F   UNL     1      -5.075  12.493  17.329  0.00  0.00    +0.000 F 
ENDBRANCH  21  24
ENDBRANCH  17  18
ENDBRANCH   3  17
TORSDOF 5
ENDMDL
MODEL 8
REMARK VINA RESULT:      -7.3      3.498      8.676
REMARK  Name = 
REMARK  6 active torsions:
REMARK  status: ('A' for Active; 'I' for Inactive)
REMARK    1  A    between atoms: C_1  and  C_2
REMARK    2  A    between atoms: C_3  and  C_4
REMARK    3  A    between atoms: C_4  and  C_5
REMARK    4  A    between atoms: C_8  and  C_9
REMARK    5  A    between atoms: C_17  and  C_18
REMARK    6  A    between atoms: N_20  and  C_21
REMARK                            x       y       z     vdW  Elec       q    Type
REMARK                         _______ _______ _______ _____ _____    ______ ____
ROOT
ATOM      1  C   UNL     1       4.997   7.295  16.996  0.00  0.00    +0.000 C 
ATOM      2  C   UNL     1       4.551   6.350  18.063  0.00  0.00    +0.000 A 
ATOM      3  C   UNL     1       5.245   5.160  18.493  0.00  0.00    +0.000 A 
ATOM      4  C   UNL     1       4.410   4.535  19.401  0.00  0.00    +0.000 A 
ATOM      5  N   UNL     1       3.279   5.294  19.558  0.00  0.00    +0.000 N 
ATOM      6  C   UNL     1       3.378   6.454  18.822  0.00  0.00    +0.000 A 
ATOM      7  H   UNL     1       2.499   5.076  20.160  0.00  0.00    +0.000 HD
ENDROOT
BRANCH   6   8
ATOM      8  C   UNL     1       2.355   7.487  18.920  0.00  0.00    +0.000 C 
ATOM      9  O   UNL     1       1.716   7.887  17.950  0.00  0.00    +0.000 OA
ATOM     10  N   UNL     1       2.099   7.907  20.206  0.00  0.00    +0.000 N 
ATOM     11  H   UNL     1       2.515   7.330  20.923  0.00  0.00    +0.000 HD
BRANCH  10  12
ATOM     12  C   UNL     1       0.981   8.781  20.595  0.00  0.00    +0.000 C 
ATOM     13  C   UNL     1       1.179   9.687  21.830  0.00  0.00    +0.000 C 
ATOM     14  C   UNL     1      -0.283   9.338  22.217  0.00  0.00    +0.000 C 
ATOM     15  F   UNL     1      -0.539   9.208  23.537  0.00  0.00    +0.000 F 
ATOM     16  C   UNL     1      -0.077   8.024  21.437  0.00  0.00    +0.000 C 
ENDBRANCH  10  12
ENDBRANCH   6   8
BRANCH   3  17
ATOM     17  C   UNL     1       6.573   4.628  18.023  0.00  0.00    +0.000 C 
BRANCH  17  18
ATOM     18  C   UNL     1       6.477   4.480  16.527  0.00  0.00    +0.000 A 
ATOM     19  C   UNL     1       5.473   3.721  15.919  0.00  0.00    +0.000 A 
ATOM     20  C   UNL     1       5.465   3.553  14.533  0.00  0.00    +0.000 A 
ATOM     21  C   UNL     1       6.466   4.150  13.767  0.00  0.00    +0.000 A 
ATOM     22  N   UNL     1       7.417   4.946  14.337  0.00  0.00    +0.000 NA
ATOM     23  C   UNL     1       7.398   5.090  15.683  0.00  0.00    +0.000 A 
BRANCH  21  24
ATOM     24  C   UNL     1       6.547   3.870  12.270  0.00  0.00    +0.000 C 
ATOM     25  F   UNL     1       5.327   3.897  11.649  0.00  0.00    +0.000 F 
ATOM     26  F   UNL     1       7.318   4.764  11.589  0.00  0.00    +0.000 F 
ATOM     27  F   UNL     1       7.061   2.637  11.989  0.00  0.00    +0.000 F 
ENDBRANCH  21  24
ENDBRANCH  17  18
ENDBRANCH   3  17
TORSDOF 5
ENDMDL
MODEL 9
REMARK VINA RESULT:      -7.2      0.975      1.167
REMARK  Name = 
REMARK  6 active torsions:
REMARK  status: ('A' for Active; 'I' for Inactive)
REMARK    1  A    between atoms: C_1  and  C_2
REMARK    2  A    between atoms: C_3  and  C_4
REMARK    3  A    between atoms: C_4  and  C_5
REMARK    4  A    between atoms: C_8  and  C_9
REMARK    5  A    between atoms: C_17  and  C_18
REMARK    6  A    between atoms: N_20  and  C_21
REMARK                            x       y       z     vdW  Elec       q    Type
REMARK                         _______ _______ _______ _____ _____    ______ ____
ROOT
ATOM      1  C   UNL     1       5.745   3.254  16.535  0.00  0.00    +0.000 C 
ATOM      2  C   UNL     1       6.488   4.541  16.679  0.00  0.00    +0.000 A 
ATOM      3  C   UNL     1       6.827   5.197  17.919  0.00  0.00    +0.000 A 
ATOM      4  C   UNL     1       7.392   6.410  17.571  0.00  0.00    +0.000 A 
ATOM      5  N   UNL     1       7.435   6.502  16.203  0.00  0.00    +0.000 N 
ATOM      6  C   UNL     1       6.973   5.337  15.632  0.00  0.00    +0.000 A 
ATOM      7  H   UNL     1       7.795   7.282  15.673  0.00  0.00    +0.000 HD
ENDROOT
BRANCH   6   8
ATOM      8  C   UNL     1       7.035   5.140  14.190  0.00  0.00    +0.000 C 
ATOM      9  O   UNL     1       7.942   5.588  13.493  0.00  0.00    +0.000 OA
ATOM     10  N   UNL     1       6.041   4.328  13.689  0.00  0.00    +0.000 N 
ATOM     11  H   UNL     1       5.513   3.834  14.393  0.00  0.00    +0.000 HD
BRANCH  10  12
ATOM     12  C   UNL     1       5.998   3.809  12.313  0.00  0.00    +0.000 C 
ATOM     13  C   UNL     1       4.834   2.865  11.943  0.00  0.00    +0.000 C 
ATOM     14  C   UNL     1       5.874   2.029  11.149  0.00  0.00    +0.000 C 
ATOM     15  F   UNL     1       5.702   0.689  11.161  0.00  0.00    +0.000 F 
ATOM     16  C   UNL     1       6.927   2.583  12.129  0.00  0.00    +0.000 C 
ENDBRANCH  10  12
ENDBRANCH   6   8
BRANCH   3  17
ATOM     17  C   UNL     1       6.573   4.728  19.327  0.00  0.00    +0.000 C 
BRANCH  17  18
ATOM     18  C   UNL     1       5.101   4.423  19.423  0.00  0.00    +0.000 A 
ATOM     19  C   UNL     1       4.126   5.410  19.254  0.00  0.00    +0.000 A 
ATOM     20  C   UNL     1       2.775   5.096  19.423  0.00  0.00    +0.000 A 
ATOM     21  C   UNL     1       2.415   3.792  19.760  0.00  0.00    +0.000 A 
ATOM     22  N   UNL     1       3.348   2.801  19.867  0.00  0.00    +0.000 NA
ATOM     23  C   UNL     1       4.648   3.137  19.696  0.00  0.00    +0.000 A 
BRANCH  21  24
ATOM     24  C   UNL     1       0.959   3.462  20.075  0.00  0.00    +0.000 C 
ATOM     25  F   UNL     1       0.813   2.636  21.155  0.00  0.00    +0.000 F 
ATOM     26  F   UNL     1       0.200   4.560  20.355  0.00  0.00    +0.000 F 
ATOM     27  F   UNL     1       0.328   2.820  19.048  0.00  0.00    +0.000 F 
ENDBRANCH  21  24
ENDBRANCH  17  18
ENDBRANCH   3  17
TORSDOF 5
ENDMDL
