MODEL 1
REMARK VINA RESULT:      -7.5      0.000      0.000
REMARK  Name = 
REMARK  12 active torsions:
REMARK  status: ('A' for Active; 'I' for Inactive)
REMARK    1  A    between atoms: C_1  and  N_2
REMARK    2  A    between atoms: C_6  and  C_7
REMARK    3  A    between atoms: C_7  and  N_8
REMARK    4  A    between atoms: N_8  and  C_9
REMARK    5  A    between atoms: N_8  and  C_28
REMARK    6  A    between atoms: C_9  and  C_10
REMARK    7  A    between atoms: C_10  and  N_11
REMARK    8  A    between atoms: N_11  and  C_12
REMARK    9  A    between atoms: N_11  and  S_19
REMARK   10  A    between atoms: C_12  and  C_13
REMARK   11  A    between atoms: S_19  and  C_22
REMARK   12  A    between atoms: C_31  and  C_32
REMARK                            x       y       z     vdW  Elec       q    Type
REMARK                         _______ _______ _______ _____ _____    ______ ____
ROOT
ATOM      1  C   UNL     1       1.923   8.346  19.885  0.00  0.00    +0.000 C 
ENDROOT
BRANCH   1   2
ATOM      2  C   UNL     1       2.077   7.657  18.502  0.00  0.00    +0.000 C 
BRANCH   2   3
ATOM      3  N   UNL     1       2.925   6.414  18.576  0.00  0.00    +0.000 N 
BRANCH   3   4
ATOM      4  C   UNL     1       3.885   6.113  17.595  0.00  0.00    +0.000 A 
ATOM      5  C   UNL     1       4.889   7.036  17.236  0.00  0.00    +0.000 A 
ATOM      6  C   UNL     1       5.888   6.743  16.291  0.00  0.00    +0.000 A 
ATOM      7  C   UNL     1       5.912   5.504  15.659  0.00  0.00    +0.000 A 
ATOM      8  C   UNL     1       4.915   4.579  15.969  0.00  0.00    +0.000 A 
ATOM      9  C   UNL     1       3.919   4.884  16.918  0.00  0.00    +0.000 A 
BRANCH   7  10
ATOM     10  C   UNL     1       6.948   5.195  14.708  0.00  0.00    +0.000 C 
ATOM     11  N   UNL     1       7.780   4.941  13.944  0.00  0.00    +0.000 NA
ENDBRANCH   7  10
ENDBRANCH   3   4
BRANCH   3  12
ATOM     12  C   UNL     1       3.147   5.802  19.916  0.00  0.00    +0.000 C 
BRANCH  12  18
ATOM     13  C   UNL     1       4.328   2.824  19.877  0.00  0.00    +0.000 C 
ATOM     14  N   UNL     1       2.958   3.237  20.065  0.00  0.00    +0.000 N 
ATOM     15  C   UNL     1       1.927   2.344  20.199  0.00  0.00    +0.000 A 
ATOM     16  N   UNL     1       0.806   2.946  20.514  0.00  0.00    +0.000 NA
ATOM     17  C   UNL     1       1.109   4.282  20.525  0.00  0.00    +0.000 A 
ATOM     18  C   UNL     1       2.429   4.507  20.177  0.00  0.00    +0.000 A 
ENDBRANCH  12  18
ENDBRANCH   3  12
ENDBRANCH   2   3
ENDBRANCH   1   2
BRANCH   1  19
ATOM     19  N   UNL     1       0.887   9.504  20.053  0.00  0.00    +0.000 NA
BRANCH  19  20
ATOM     20  S   UNL     1       0.490   9.626  21.791  0.00  0.00    +0.000 S 
ATOM     21  O   UNL     1      -0.623   8.731  22.047  0.00  0.00    +0.000 OA
ATOM     22  O   UNL     1       1.732   9.476  22.528  0.00  0.00    +0.000 OA
BRANCH  20  23
ATOM     23  C   UNL     1      -0.152  11.298  22.051  0.00  0.00    +0.000 A 
ATOM     24  C   UNL     1      -1.361  11.483  22.706  0.00  0.00    +0.000 A 
ATOM     25  C   UNL     1      -1.817  12.790  22.858  0.00  0.00    +0.000 A 
ATOM     26  C   UNL     1      -1.049  13.847  22.375  0.00  0.00    +0.000 A 
ATOM     27  C   UNL     1       0.168  13.560  21.770  0.00  0.00    +0.000 A 
ATOM     28  N   UNL     1       0.643  12.308  21.597  0.00  0.00    +0.000 NA
ENDBRANCH  20  23
ENDBRANCH  19  20
BRANCH  19  29
ATOM     29  C   UNL     1      -0.381   9.292  19.206  0.00  0.00    +0.000 C 
BRANCH  29  30
ATOM     30  C   UNL     1      -0.760  10.356  18.106  0.00  0.00    +0.000 C 
ATOM     31  C   UNL     1      -1.733   9.961  16.967  0.00  0.00    +0.000 C 
ATOM     32  C   UNL     1      -3.234  10.138  17.243  0.00  0.00    +0.000 C 
ATOM     33  C   UNL     1      -3.567  11.499  17.843  0.00  0.00    +0.000 C 
ATOM     34  C   UNL     1      -2.725  11.739  19.086  0.00  0.00    +0.000 C 
ATOM     35  C   UNL     1      -1.236  11.682  18.758  0.00  0.00    +0.000 C 
ENDBRANCH  29  30
ENDBRANCH  19  29
ENDBRANCH   1  19
TORSDOF 11
ENDMDL
MODEL 2
REMARK VINA RESULT:      -7.4      1.195      1.624
REMARK  Name = 
REMARK  12 active torsions:
REMARK  status: ('A' for Active; 'I' for Inactive)
REMARK    1  A    between atoms: C_1  and  N_2
REMARK    2  A    between atoms: C_6  and  C_7
REMARK    3  A    between atoms: C_7  and  N_8
REMARK    4  A    between atoms: N_8  and  C_9
REMARK    5  A    between atoms: N_8  and  C_28
REMARK    6  A    between atoms: C_9  and  C_10
REMARK    7  A    between atoms: C_10  and  N_11
REMARK    8  A    between atoms: N_11  and  C_12
REMARK    9  A    between atoms: N_11  and  S_19
REMARK   10  A    between atoms: C_12  and  C_13
REMARK   11  A    between atoms: S_19  and  C_22
REMARK   12  A    between atoms: C_31  and  C_32
REMARK                            x       y       z     vdW  Elec       q    Type
REMARK                         _______ _______ _______ _____ _____    ______ ____
ROOT
ATOM      1  C   UNL     1       1.753   8.472  20.283  0.00  0.00    +0.000 C 
ENDROOT
BRANCH   1   2
ATOM      2  C   UNL     1       1.477   7.081  20.914  0.00  0.00    +0.000 C 
BRANCH   2   3
ATOM      3  N   UNL     1       1.858   5.951  19.993  0.00  0.00    +0.000 N 
BRANCH   3   4
ATOM      4  C   UNL     1       3.029   5.990  19.218  0.00  0.00    +0.000 A 
ATOM      5  C   UNL     1       3.045   6.569  17.932  0.00  0.00    +0.000 A 
ATOM      6  C   UNL     1       4.212   6.661  17.154  0.00  0.00    +0.000 A 
ATOM      7  C   UNL     1       5.417   6.163  17.638  0.00  0.00    +0.000 A 
ATOM      8  C   UNL     1       5.430   5.557  18.894  0.00  0.00    +0.000 A 
ATOM      9  C   UNL     1       4.254   5.471  19.664  0.00  0.00    +0.000 A 
BRANCH   7  10
ATOM     10  C   UNL     1       6.618   6.279  16.852  0.00  0.00    +0.000 C 
ATOM     11  N   UNL     1       7.581   6.374  16.217  0.00  0.00    +0.000 NA
ENDBRANCH   7  10
ENDBRANCH   3   4
BRANCH   3  12
ATOM     12  C   UNL     1       1.320   4.595  20.295  0.00  0.00    +0.000 C 
BRANCH  12  18
ATOM     13  C   UNL     1       3.433   2.259  20.881  0.00  0.00    +0.000 C 
ATOM     14  N   UNL     1       2.746   2.551  19.645  0.00  0.00    +0.000 N 
ATOM     15  C   UNL     1       2.976   1.854  18.489  0.00  0.00    +0.000 A 
ATOM     16  N   UNL     1       2.130   2.192  17.546  0.00  0.00    +0.000 NA
ATOM     17  C   UNL     1       1.363   3.186  18.094  0.00  0.00    +0.000 A 
ATOM     18  C   UNL     1       1.768   3.488  19.382  0.00  0.00    +0.000 A 
ENDBRANCH  12  18
ENDBRANCH   3  12
ENDBRANCH   2   3
ENDBRANCH   1   2
BRANCH   1  19
ATOM     19  N   UNL     1       0.692   9.609  20.443  0.00  0.00    +0.000 NA
BRANCH  19  20
ATOM     20  S   UNL     1       0.275   9.719  22.177  0.00  0.00    +0.000 S 
ATOM     21  O   UNL     1      -0.764   8.738  22.437  0.00  0.00    +0.000 OA
ATOM     22  O   UNL     1       1.519   9.678  22.923  0.00  0.00    +0.000 OA
BRANCH  20  23
ATOM     23  C   UNL     1      -0.502  11.335  22.413  0.00  0.00    +0.000 A 
ATOM     24  C   UNL     1      -1.735  11.428  23.044  0.00  0.00    +0.000 A 
ATOM     25  C   UNL     1      -2.295  12.695  23.178  0.00  0.00    +0.000 A 
ATOM     26  C   UNL     1      -1.604  13.807  22.702  0.00  0.00    +0.000 A 
ATOM     27  C   UNL     1      -0.358  13.614  22.122  0.00  0.00    +0.000 A 
ATOM     28  N   UNL     1       0.219  12.402  21.967  0.00  0.00    +0.000 NA
ENDBRANCH  20  23
ENDBRANCH  19  20
BRANCH  19  29
ATOM     29  C   UNL     1      -0.562   9.375  19.581  0.00  0.00    +0.000 C 
BRANCH  29  30
ATOM     30  C   UNL     1      -0.844  10.327  18.358  0.00  0.00    +0.000 C 
ATOM     31  C   UNL     1      -1.762   9.838  17.209  0.00  0.00    +0.000 C 
ATOM     32  C   UNL     1      -3.270  10.079  17.373  0.00  0.00    +0.000 C 
ATOM     33  C   UNL     1      -3.597  11.503  17.809  0.00  0.00    +0.000 C 
ATOM     34  C   UNL     1      -2.820  11.851  19.069  0.00  0.00    +0.000 C 
ATOM     35  C   UNL     1      -1.317  11.725  18.839  0.00  0.00    +0.000 C 
ENDBRANCH  29  30
ENDBRANCH  19  29
ENDBRANCH   1  19
TORSDOF 11
ENDMDL
MODEL 3
REMARK VINA RESULT:      -7.3      0.889      1.029
REMARK  Name = 
REMARK  12 active torsions:
REMARK  status: ('A' for Active; 'I' for Inactive)
REMARK    1  A    between atoms: C_1  and  N_2
REMARK    2  A    between atoms: C_6  and  C_7
REMARK    3  A    between atoms: C_7  and  N_8
REMARK    4  A    between atoms: N_8  and  C_9
REMARK    5  A    between atoms: N_8  and  C_28
REMARK    6  A    between atoms: C_9  and  C_10
REMARK    7  A    between atoms: C_10  and  N_11
REMARK    8  A    between atoms: N_11  and  C_12
REMARK    9  A    between atoms: N_11  and  S_19
REMARK   10  A    between atoms: C_12  and  C_13
REMARK   11  A    between atoms: S_19  and  C_22
REMARK   12  A    between atoms: C_31  and  C_32
REMARK                            x       y       z     vdW  Elec       q    Type
REMARK                         _______ _______ _______ _____ _____    ______ ____
ROOT
ATOM      1  C   UNL     1       0.858   7.784  20.335  0.00  0.00    +0.000 C 
ENDROOT
BRANCH   1   2
ATOM      2  C   UNL     1       2.264   7.447  19.770  0.00  0.00    +0.000 C 
BRANCH   2   3
ATOM      3  N   UNL     1       2.224   6.311  18.782  0.00  0.00    +0.000 N 
BRANCH   3   4
ATOM      4  C   UNL     1       3.302   6.037  17.923  0.00  0.00    +0.000 A 
ATOM      5  C   UNL     1       4.199   7.048  17.518  0.00  0.00    +0.000 A 
ATOM      6  C   UNL     1       5.311   6.793  16.697  0.00  0.00    +0.000 A 
ATOM      7  C   UNL     1       5.563   5.503  16.241  0.00  0.00    +0.000 A 
ATOM      8  C   UNL     1       4.679   4.486  16.598  0.00  0.00    +0.000 A 
ATOM      9  C   UNL     1       3.568   4.754  17.423  0.00  0.00    +0.000 A 
BRANCH   7  10
ATOM     10  C   UNL     1       6.715   5.237  15.419  0.00  0.00    +0.000 C 
ATOM     11  N   UNL     1       7.645   5.026  14.762  0.00  0.00    +0.000 NA
ENDBRANCH   7  10
ENDBRANCH   3   4
BRANCH   3  12
ATOM     12  C   UNL     1       1.314   5.167  19.072  0.00  0.00    +0.000 C 
BRANCH  12  18
ATOM     13  C   UNL     1       1.570   1.980  18.877  0.00  0.00    +0.000 C 
ATOM     14  N   UNL     1       1.796   2.824  20.026  0.00  0.00    +0.000 N 
ATOM     15  C   UNL     1       2.110   2.323  21.262  0.00  0.00    +0.000 A 
ATOM     16  N   UNL     1       2.421   3.279  22.105  0.00  0.00    +0.000 NA
ATOM     17  C   UNL     1       2.244   4.443  21.405  0.00  0.00    +0.000 A 
ATOM     18  C   UNL     1       1.783   4.201  20.123  0.00  0.00    +0.000 A 
ENDBRANCH  12  18
ENDBRANCH   3  12
ENDBRANCH   2   3
ENDBRANCH   1   2
BRANCH   1  19
ATOM     19  N   UNL     1       0.429   9.280  20.480  0.00  0.00    +0.000 NA
BRANCH  19  20
ATOM     20  S   UNL     1       0.400   9.666  22.225  0.00  0.00    +0.000 S 
ATOM     21  O   UNL     1      -0.496   8.719  22.865  0.00  0.00    +0.000 OA
ATOM     22  O   UNL     1       1.779   9.778  22.665  0.00  0.00    +0.000 OA
BRANCH  20  23
ATOM     23  C   UNL     1      -0.400  11.281  22.377  0.00  0.00    +0.000 A 
ATOM     24  C   UNL     1      -1.624  11.393  23.023  0.00  0.00    +0.000 A 
ATOM     25  C   UNL     1      -2.203  12.657  23.089  0.00  0.00    +0.000 A 
ATOM     26  C   UNL     1      -1.538  13.748  22.535  0.00  0.00    +0.000 A 
ATOM     27  C   UNL     1      -0.299  13.541  21.945  0.00  0.00    +0.000 A 
ATOM     28  N   UNL     1       0.295  12.331  21.854  0.00  0.00    +0.000 NA
ENDBRANCH  20  23
ENDBRANCH  19  20
BRANCH  19  29
ATOM     29  C   UNL     1      -0.931   9.574  19.822  0.00  0.00    +0.000 C 
BRANCH  29  30
ATOM     30  C   UNL     1      -0.984  10.488  18.539  0.00  0.00    +0.000 C 
ATOM     31  C   UNL     1      -1.561   9.915  17.220  0.00  0.00    +0.000 C 
ATOM     32  C   UNL     1      -3.078  10.035  17.014  0.00  0.00    +0.000 C 
ATOM     33  C   UNL     1      -3.607  11.431  17.318  0.00  0.00    +0.000 C 
ATOM     34  C   UNL     1      -3.183  11.854  18.716  0.00  0.00    +0.000 C 
ATOM     35  C   UNL     1      -1.664  11.847  18.854  0.00  0.00    +0.000 C 
ENDBRANCH  29  30
ENDBRANCH  19  29
ENDBRANCH   1  19
TORSDOF 11
ENDMDL
MODEL 4
REMARK VINA RESULT:      -7.2      1.229      1.957
REMARK  Name = 
REMARK  12 active torsions:
REMARK  status: ('A' for Active; 'I' for Inactive)
REMARK    1  A    between atoms: C_1  and  N_2
REMARK    2  A    between atoms: C_6  and  C_7
REMARK    3  A    between atoms: C_7  and  N_8
REMARK    4  A    between atoms: N_8  and  C_9
REMARK    5  A    between atoms: N_8  and  C_28
REMARK    6  A    between atoms: C_9  and  C_10
REMARK    7  A    between atoms: C_10  and  N_11
REMARK    8  A    between atoms: N_11  and  C_12
REMARK    9  A    between atoms: N_11  and  S_19
REMARK   10  A    between atoms: C_12  and  C_13
REMARK   11  A    between atoms: S_19  and  C_22
REMARK   12  A    between atoms: C_31  and  C_32
REMARK                            x       y       z     vdW  Elec       q    Type
REMARK                         _______ _______ _______ _____ _____    ______ ____
ROOT
ATOM      1  C   UNL     1       1.060   7.785  20.531  0.00  0.00    +0.000 C 
ENDROOT
BRANCH   1   2
ATOM      2  C   UNL     1       2.441   7.434  19.914  0.00  0.00    +0.000 C 
BRANCH   2   3
ATOM      3  N   UNL     1       2.333   6.392  18.831  0.00  0.00    +0.000 N 
BRANCH   3   4
ATOM      4  C   UNL     1       3.397   6.120  17.955  0.00  0.00    +0.000 A 
ATOM      5  C   UNL     1       3.690   4.806  17.536  0.00  0.00    +0.000 A 
ATOM      6  C   UNL     1       4.720   4.511  16.625  0.00  0.00    +0.000 A 
ATOM      7  C   UNL     1       5.507   5.532  16.103  0.00  0.00    +0.000 A 
ATOM      8  C   UNL     1       5.262   6.840  16.520  0.00  0.00    +0.000 A 
ATOM      9  C   UNL     1       4.227   7.123  17.433  0.00  0.00    +0.000 A 
BRANCH   7  10
ATOM     10  C   UNL     1       6.546   5.234  15.152  0.00  0.00    +0.000 C 
ATOM     11  N   UNL     1       7.384   4.997  14.389  0.00  0.00    +0.000 NA
ENDBRANCH   7  10
ENDBRANCH   3   4
BRANCH   3  12
ATOM     12  C   UNL     1       1.346   5.292  19.021  0.00  0.00    +0.000 C 
BRANCH  12  18
ATOM     13  C   UNL     1       1.078   2.103  18.863  0.00  0.00    +0.000 C 
ATOM     14  N   UNL     1       1.477   2.910  19.992  0.00  0.00    +0.000 N 
ATOM     15  C   UNL     1       1.748   2.375  21.224  0.00  0.00    +0.000 A 
ATOM     16  N   UNL     1       2.238   3.275  22.042  0.00  0.00    +0.000 NA
ATOM     17  C   UNL     1       2.227   4.447  21.332  0.00  0.00    +0.000 A 
ATOM     18  C   UNL     1       1.689   4.271  20.070  0.00  0.00    +0.000 A 
ENDBRANCH  12  18
ENDBRANCH   3  12
ENDBRANCH   2   3
ENDBRANCH   1   2
BRANCH   1  19
ATOM     19  N   UNL     1       0.659   9.286  20.708  0.00  0.00    +0.000 NA
BRANCH  19  20
ATOM     20  S   UNL     1       0.248   9.535  22.429  0.00  0.00    +0.000 S 
ATOM     21  O   UNL     1      -0.787   8.576  22.773  0.00  0.00    +0.000 OA
ATOM     22  O   UNL     1       1.496   9.558  23.172  0.00  0.00    +0.000 OA
BRANCH  20  23
ATOM     23  C   UNL     1      -0.532  11.163  22.538  0.00  0.00    +0.000 A 
ATOM     24  C   UNL     1      -1.784  11.297  23.121  0.00  0.00    +0.000 A 
ATOM     25  C   UNL     1      -2.345  12.570  23.156  0.00  0.00    +0.000 A 
ATOM     26  C   UNL     1      -1.636  13.649  22.632  0.00  0.00    +0.000 A 
ATOM     27  C   UNL     1      -0.372  13.419  22.106  0.00  0.00    +0.000 A 
ATOM     28  N   UNL     1       0.206  12.199  22.047  0.00  0.00    +0.000 NA
ENDBRANCH  20  23
ENDBRANCH  19  20
BRANCH  19  29
ATOM     29  C   UNL     1      -0.506   9.701  19.792  0.00  0.00    +0.000 C 
BRANCH  29  30
ATOM     30  C   UNL     1      -0.195  10.464  18.449  0.00  0.00    +0.000 C 
ATOM     31  C   UNL     1      -1.054  11.692  18.055  0.00  0.00    +0.000 C 
ATOM     32  C   UNL     1      -0.604  13.057  18.597  0.00  0.00    +0.000 C 
ATOM     33  C   UNL     1       0.887  13.307  18.404  0.00  0.00    +0.000 C 
ATOM     34  C   UNL     1       1.687  12.162  19.002  0.00  0.00    +0.000 C 
ATOM     35  C   UNL     1       1.310  10.832  18.355  0.00  0.00    +0.000 C 
ENDBRANCH  29  30
ENDBRANCH  19  29
ENDBRANCH   1  19
TORSDOF 11
ENDMDL
MODEL 5
REMARK VINA RESULT:      -7.2      1.344      1.878
REMARK  Name = 
REMARK  12 active torsions:
REMARK  status: ('A' for Active; 'I' for Inactive)
REMARK    1  A    between atoms: C_1  and  N_2
REMARK    2  A    between atoms: C_6  and  C_7
REMARK    3  A    between atoms: C_7  and  N_8
REMARK    4  A    between atoms: N_8  and  C_9
REMARK    5  A    between atoms: N_8  and  C_28
REMARK    6  A    between atoms: C_9  and  C_10
REMARK    7  A    between atoms: C_10  and  N_11
REMARK    8  A    between atoms: N_11  and  C_12
REMARK    9  A    between atoms: N_11  and  S_19
REMARK   10  A    between atoms: C_12  and  C_13
REMARK   11  A    between atoms: S_19  and  C_22
REMARK   12  A    between atoms: C_31  and  C_32
REMARK                            x       y       z     vdW  Elec       q    Type
REMARK                         _______ _______ _______ _____ _____    ______ ____
ROOT
ATOM      1  C   UNL     1       1.508   8.335  20.620  0.00  0.00    +0.000 C 
ENDROOT
BRANCH   1   2
ATOM      2  C   UNL     1       2.147   8.059  19.233  0.00  0.00    +0.000 C 
BRANCH   2   3
ATOM      3  N   UNL     1       2.500   6.606  19.046  0.00  0.00    +0.000 N 
BRANCH   3   4
ATOM      4  C   UNL     1       3.563   6.201  18.222  0.00  0.00    +0.000 A 
ATOM      5  C   UNL     1       3.845   6.857  17.006  0.00  0.00    +0.000 A 
ATOM      6  C   UNL     1       4.929   6.502  16.184  0.00  0.00    +0.000 A 
ATOM      7  C   UNL     1       5.773   5.459  16.551  0.00  0.00    +0.000 A 
ATOM      8  C   UNL     1       5.504   4.769  17.733  0.00  0.00    +0.000 A 
ATOM      9  C   UNL     1       4.415   5.135  18.548  0.00  0.00    +0.000 A 
BRANCH   7  10
ATOM     10  C   UNL     1       6.897   5.109  15.722  0.00  0.00    +0.000 C 
ATOM     11  N   UNL     1       7.801   4.824  15.057  0.00  0.00    +0.000 NA
ENDBRANCH   7  10
ENDBRANCH   3   4
BRANCH   3  12
ATOM     12  C   UNL     1       2.107   5.651  20.121  0.00  0.00    +0.000 C 
BRANCH  12  18
ATOM     13  C   UNL     1       2.224   2.874  21.713  0.00  0.00    +0.000 C 
ATOM     14  N   UNL     1       1.805   3.104  20.351  0.00  0.00    +0.000 N 
ATOM     15  C   UNL     1       1.440   2.088  19.507  0.00  0.00    +0.000 A 
ATOM     16  N   UNL     1       0.952   2.549  18.381  0.00  0.00    +0.000 NA
ATOM     17  C   UNL     1       1.060   3.911  18.476  0.00  0.00    +0.000 A 
ATOM     18  C   UNL     1       1.657   4.292  19.664  0.00  0.00    +0.000 A 
ENDBRANCH  12  18
ENDBRANCH   3  12
ENDBRANCH   2   3
ENDBRANCH   1   2
BRANCH   1  19
ATOM     19  N   UNL     1       0.775   9.693  20.870  0.00  0.00    +0.000 NA
BRANCH  19  20
ATOM     20  S   UNL     1       0.105   9.649  22.525  0.00  0.00    +0.000 S 
ATOM     21  O   UNL     1      -0.901   8.603  22.560  0.00  0.00    +0.000 OA
ATOM     22  O   UNL     1       1.228   9.612  23.445  0.00  0.00    +0.000 OA
BRANCH  20  23
ATOM     23  C   UNL     1      -0.792  11.203  22.754  0.00  0.00    +0.000 A 
ATOM     24  C   UNL     1      -2.090  11.190  23.246  0.00  0.00    +0.000 A 
ATOM     25  C   UNL     1      -2.739  12.414  23.380  0.00  0.00    +0.000 A 
ATOM     26  C   UNL     1      -2.071  13.588  23.041  0.00  0.00    +0.000 A 
ATOM     27  C   UNL     1      -0.759  13.500  22.596  0.00  0.00    +0.000 A 
ATOM     28  N   UNL     1      -0.095  12.333  22.446  0.00  0.00    +0.000 NA
ENDBRANCH  20  23
ENDBRANCH  19  20
BRANCH  19  29
ATOM     29  C   UNL     1      -0.326   9.972  19.830  0.00  0.00    +0.000 C 
BRANCH  29  30
ATOM     30  C   UNL     1      -0.013  10.923  18.614  0.00  0.00    +0.000 C 
ATOM     31  C   UNL     1      -1.021  12.040  18.241  0.00  0.00    +0.000 C 
ATOM     32  C   UNL     1      -0.864  13.387  18.962  0.00  0.00    +0.000 C 
ATOM     33  C   UNL     1       0.575  13.887  18.972  0.00  0.00    +0.000 C 
ATOM     34  C   UNL     1       1.492  12.819  19.548  0.00  0.00    +0.000 C 
ATOM     35  C   UNL     1       1.410  11.531  18.736  0.00  0.00    +0.000 C 
ENDBRANCH  29  30
ENDBRANCH  19  29
ENDBRANCH   1  19
TORSDOF 11
ENDMDL
MODEL 6
REMARK VINA RESULT:      -7.1      1.652      2.183
REMARK  Name = 
REMARK  12 active torsions:
REMARK  status: ('A' for Active; 'I' for Inactive)
REMARK    1  A    between atoms: C_1  and  N_2
REMARK    2  A    between atoms: C_6  and  C_7
REMARK    3  A    between atoms: C_7  and  N_8
REMARK    4  A    between atoms: N_8  and  C_9
REMARK    5  A    between atoms: N_8  and  C_28
REMARK    6  A    between atoms: C_9  and  C_10
REMARK    7  A    between atoms: C_10  and  N_11
REMARK    8  A    between atoms: N_11  and  C_12
REMARK    9  A    between atoms: N_11  and  S_19
REMARK   10  A    between atoms: C_12  and  C_13
REMARK   11  A    between atoms: S_19  and  C_22
REMARK   12  A    between atoms: C_31  and  C_32
REMARK                            x       y       z     vdW  Elec       q    Type
REMARK                         _______ _______ _______ _____ _____    ______ ____
ROOT
ATOM      1  C   UNL     1       0.653   8.357  20.453  0.00  0.00    +0.000 C 
ENDROOT
BRANCH   1   2
ATOM      2  C   UNL     1       2.141   7.923  20.364  0.00  0.00    +0.000 C 
BRANCH   2   3
ATOM      3  N   UNL     1       2.298   6.544  19.779  0.00  0.00    +0.000 N 
BRANCH   3   4
ATOM      4  C   UNL     1       3.421   6.187  19.014  0.00  0.00    +0.000 A 
ATOM      5  C   UNL     1       4.467   5.411  19.557  0.00  0.00    +0.000 A 
ATOM      6  C   UNL     1       5.580   5.002  18.802  0.00  0.00    +0.000 A 
ATOM      7  C   UNL     1       5.691   5.366  17.464  0.00  0.00    +0.000 A 
ATOM      8  C   UNL     1       4.689   6.158  16.905  0.00  0.00    +0.000 A 
ATOM      9  C   UNL     1       3.578   6.562  17.672  0.00  0.00    +0.000 A 
BRANCH   7  10
ATOM     10  C   UNL     1       6.819   4.928  16.684  0.00  0.00    +0.000 C 
ATOM     11  N   UNL     1       7.725   4.578  16.053  0.00  0.00    +0.000 NA
ENDBRANCH   7  10
ENDBRANCH   3   4
BRANCH   3  12
ATOM     12  C   UNL     1       1.574   5.421  20.438  0.00  0.00    +0.000 C 
BRANCH  12  18
ATOM     13  C   UNL     1       2.490   2.548  21.519  0.00  0.00    +0.000 C 
ATOM     14  N   UNL     1       2.070   2.907  20.185  0.00  0.00    +0.000 N 
ATOM     15  C   UNL     1       2.071   2.016  19.144  0.00  0.00    +0.000 A 
ATOM     16  N   UNL     1       1.505   2.523  18.075  0.00  0.00    +0.000 NA
ATOM     17  C   UNL     1       1.181   3.809  18.419  0.00  0.00    +0.000 A 
ATOM     18  C   UNL     1       1.586   4.108  19.708  0.00  0.00    +0.000 A 
ENDBRANCH  12  18
ENDBRANCH   3  12
ENDBRANCH   2   3
ENDBRANCH   1   2
BRANCH   1  19
ATOM     19  N   UNL     1       0.235   9.772  19.937  0.00  0.00    +0.000 NA
BRANCH  19  20
ATOM     20  S   UNL     1       0.313  10.897  21.324  0.00  0.00    +0.000 S 
ATOM     21  O   UNL     1      -1.049  11.268  21.661  0.00  0.00    +0.000 OA
ATOM     22  O   UNL     1       1.172  10.289  22.324  0.00  0.00    +0.000 OA
BRANCH  20  23
ATOM     23  C   UNL     1       1.099  12.408  20.712  0.00  0.00    +0.000 A 
ATOM     24  C   UNL     1       1.627  12.446  19.429  0.00  0.00    +0.000 A 
ATOM     25  C   UNL     1       2.240  13.627  19.020  0.00  0.00    +0.000 A 
ATOM     26  C   UNL     1       2.283  14.715  19.888  0.00  0.00    +0.000 A 
ATOM     27  C   UNL     1       1.690  14.592  21.137  0.00  0.00    +0.000 A 
ATOM     28  N   UNL     1       1.092  13.462  21.575  0.00  0.00    +0.000 NA
ENDBRANCH  20  23
ENDBRANCH  19  20
BRANCH  19  29
ATOM     29  C   UNL     1      -1.162   9.780  19.292  0.00  0.00    +0.000 C 
BRANCH  29  30
ATOM     30  C   UNL     1      -1.420  10.680  18.024  0.00  0.00    +0.000 C 
ATOM     31  C   UNL     1      -1.933  10.024  16.717  0.00  0.00    +0.000 C 
ATOM     32  C   UNL     1      -3.454   9.877  16.564  0.00  0.00    +0.000 C 
ATOM     33  C   UNL     1      -4.209  11.157  16.904  0.00  0.00    +0.000 C 
ATOM     34  C   UNL     1      -3.817  11.637  18.293  0.00  0.00    +0.000 C 
ATOM     35  C   UNL     1      -2.316  11.896  18.380  0.00  0.00    +0.000 C 
ENDBRANCH  29  30
ENDBRANCH  19  29
ENDBRANCH   1  19
TORSDOF 11
ENDMDL
MODEL 7
REMARK VINA RESULT:      -7.1      1.194      1.815
REMARK  Name = 
REMARK  12 active torsions:
REMARK  status: ('A' for Active; 'I' for Inactive)
REMARK    1  A    between atoms: C_1  and  N_2
REMARK    2  A    between atoms: C_6  and  C_7
REMARK    3  A    between atoms: C_7  and  N_8
REMARK    4  A    between atoms: N_8  and  C_9
REMARK    5  A    between atoms: N_8  and  C_28
REMARK    6  A    between atoms: C_9  and  C_10
REMARK    7  A    between atoms: C_10  and  N_11
REMARK    8  A    between atoms: N_11  and  C_12
REMARK    9  A    between atoms: N_11  and  S_19
REMARK   10  A    between atoms: C_12  and  C_13
REMARK   11  A    between atoms: S_19  and  C_22
REMARK   12  A    between atoms: C_31  and  C_32
REMARK                            x       y       z     vdW  Elec       q    Type
REMARK                         _______ _______ _______ _____ _____    ______ ____
ROOT
ATOM      1  C   UNL     1       1.398   8.126  20.335  0.00  0.00    +0.000 C 
ENDROOT
BRANCH   1   2
ATOM      2  C   UNL     1       2.259   7.927  19.059  0.00  0.00    +0.000 C 
BRANCH   2   3
ATOM      3  N   UNL     1       2.813   6.530  18.957  0.00  0.00    +0.000 N 
BRANCH   3   4
ATOM      4  C   UNL     1       3.624   6.130  17.882  0.00  0.00    +0.000 A 
ATOM      5  C   UNL     1       4.461   7.045  17.210  0.00  0.00    +0.000 A 
ATOM      6  C   UNL     1       5.316   6.663  16.161  0.00  0.00    +0.000 A 
ATOM      7  C   UNL     1       5.358   5.339  15.739  0.00  0.00    +0.000 A 
ATOM      8  C   UNL     1       4.521   4.414  16.363  0.00  0.00    +0.000 A 
ATOM      9  C   UNL     1       3.669   4.809  17.413  0.00  0.00    +0.000 A 
BRANCH   7  10
ATOM     10  C   UNL     1       6.251   4.943  14.681  0.00  0.00    +0.000 C 
ATOM     11  N   UNL     1       6.973   4.626  13.833  0.00  0.00    +0.000 NA
ENDBRANCH   7  10
ENDBRANCH   3   4
BRANCH   3  12
ATOM     12  C   UNL     1       2.966   5.748  20.217  0.00  0.00    +0.000 C 
BRANCH  12  18
ATOM     13  C   UNL     1       4.171   2.780  20.265  0.00  0.00    +0.000 C 
ATOM     14  N   UNL     1       2.785   3.179  20.209  0.00  0.00    +0.000 N 
ATOM     15  C   UNL     1       1.759   2.277  20.104  0.00  0.00    +0.000 A 
ATOM     16  N   UNL     1       0.591   2.859  20.228  0.00  0.00    +0.000 NA
ATOM     17  C   UNL     1       0.869   4.195  20.357  0.00  0.00    +0.000 A 
ATOM     18  C   UNL     1       2.228   4.440  20.277  0.00  0.00    +0.000 A 
ENDBRANCH  12  18
ENDBRANCH   3  12
ENDBRANCH   2   3
ENDBRANCH   1   2
BRANCH   1  19
ATOM     19  N   UNL     1       0.819   9.542  20.655  0.00  0.00    +0.000 NA
BRANCH  19  20
ATOM     20  S   UNL     1       0.279   9.532  22.359  0.00  0.00    +0.000 S 
ATOM     21  O   UNL     1      -0.683   8.455  22.505  0.00  0.00    +0.000 OA
ATOM     22  O   UNL     1       1.470   9.564  23.189  0.00  0.00    +0.000 OA
BRANCH  20  23
ATOM     23  C   UNL     1      -0.653  11.063  22.608  0.00  0.00    +0.000 A 
ATOM     24  C   UNL     1      -0.141  12.270  22.154  0.00  0.00    +0.000 A 
ATOM     25  C   UNL     1      -0.891  13.418  22.394  0.00  0.00    +0.000 A 
ATOM     26  C   UNL     1      -2.115  13.315  23.051  0.00  0.00    +0.000 A 
ATOM     27  C   UNL     1      -2.560  12.056  23.430  0.00  0.00    +0.000 A 
ATOM     28  N   UNL     1      -1.861  10.919  23.222  0.00  0.00    +0.000 NA
ENDBRANCH  20  23
ENDBRANCH  19  20
BRANCH  19  29
ATOM     29  C   UNL     1      -0.329   9.941  19.710  0.00  0.00    +0.000 C 
BRANCH  29  30
ATOM     30  C   UNL     1      -0.016  10.844  18.457  0.00  0.00    +0.000 C 
ATOM     31  C   UNL     1      -0.965  12.018  18.109  0.00  0.00    +0.000 C 
ATOM     32  C   UNL     1      -0.683  13.366  18.788  0.00  0.00    +0.000 C 
ATOM     33  C   UNL     1       0.785  13.768  18.716  0.00  0.00    +0.000 C 
ATOM     34  C   UNL     1       1.657  12.653  19.271  0.00  0.00    +0.000 C 
ATOM     35  C   UNL     1       1.449  11.356  18.494  0.00  0.00    +0.000 C 
ENDBRANCH  29  30
ENDBRANCH  19  29
ENDBRANCH   1  19
TORSDOF 11
ENDMDL
MODEL 8
REMARK VINA RESULT:      -7.0      3.382      8.298
REMARK  Name = 
REMARK  12 active torsions:
REMARK  status: ('A' for Active; 'I' for Inactive)
REMARK    1  A    between atoms: C_1  and  N_2
REMARK    2  A    between atoms: C_6  and  C_7
REMARK    3  A    between atoms: C_7  and  N_8
REMARK    4  A    between atoms: N_8  and  C_9
REMARK    5  A    between atoms: N_8  and  C_28
REMARK    6  A    between atoms: C_9  and  C_10
REMARK    7  A    between atoms: C_10  and  N_11
REMARK    8  A    between atoms: N_11  and  C_12
REMARK    9  A    between atoms: N_11  and  S_19
REMARK   10  A    between atoms: C_12  and  C_13
REMARK   11  A    between atoms: S_19  and  C_22
REMARK   12  A    between atoms: C_31  and  C_32
REMARK                            x       y       z     vdW  Elec       q    Type
REMARK                         _______ _______ _______ _____ _____    ______ ____
ROOT
ATOM      1  C   UNL     1       4.936   5.622  17.046  0.00  0.00    +0.000 C 
ENDROOT
BRANCH   1   2
ATOM      2  C   UNL     1       3.468   5.462  17.526  0.00  0.00    +0.000 C 
BRANCH   2   3
ATOM      3  N   UNL     1       3.215   6.172  18.830  0.00  0.00    +0.000 N 
BRANCH   3   4
ATOM      4  C   UNL     1       2.517   7.390  18.888  0.00  0.00    +0.000 A 
ATOM      5  C   UNL     1       1.806   7.778  20.043  0.00  0.00    +0.000 A 
ATOM      6  C   UNL     1       1.137   9.011  20.144  0.00  0.00    +0.000 A 
ATOM      7  C   UNL     1       1.150   9.904  19.078  0.00  0.00    +0.000 A 
ATOM      8  C   UNL     1       1.820   9.538  17.911  0.00  0.00    +0.000 A 
ATOM      9  C   UNL     1       2.487   8.300  17.821  0.00  0.00    +0.000 A 
BRANCH   7  10
ATOM     10  C   UNL     1       0.486  11.176  19.190  0.00  0.00    +0.000 C 
ATOM     11  N   UNL     1      -0.045  12.202  19.281  0.00  0.00    +0.000 NA
ENDBRANCH   7  10
ENDBRANCH   3   4
BRANCH   3  12
ATOM     12  C   UNL     1       3.207   5.355  20.076  0.00  0.00    +0.000 C 
BRANCH  12  18
ATOM     13  C   UNL     1       4.142   2.309  19.743  0.00  0.00    +0.000 C 
ATOM     14  N   UNL     1       2.796   2.825  19.815  0.00  0.00    +0.000 N 
ATOM     15  C   UNL     1       1.689   2.029  19.682  0.00  0.00    +0.000 A 
ATOM     16  N   UNL     1       0.586   2.690  19.938  0.00  0.00    +0.000 NA
ATOM     17  C   UNL     1       0.990   3.975  20.186  0.00  0.00    +0.000 A 
ATOM     18  C   UNL     1       2.359   4.114  20.047  0.00  0.00    +0.000 A 
ENDBRANCH  12  18
ENDBRANCH   3  12
ENDBRANCH   2   3
ENDBRANCH   1   2
BRANCH   1  19
ATOM     19  N   UNL     1       5.908   4.401  17.133  0.00  0.00    +0.000 NA
BRANCH  19  20
ATOM     20  S   UNL     1       7.199   4.820  18.296  0.00  0.00    +0.000 S 
ATOM     21  O   UNL     1       6.658   4.640  19.631  0.00  0.00    +0.000 OA
ATOM     22  O   UNL     1       8.394   4.102  17.890  0.00  0.00    +0.000 OA
BRANCH  20  23
ATOM     23  C   UNL     1       7.489   6.597  18.117  0.00  0.00    +0.000 A 
ATOM     24  C   UNL     1       6.717   7.342  17.237  0.00  0.00    +0.000 A 
ATOM     25  C   UNL     1       7.000   8.700  17.124  0.00  0.00    +0.000 A 
ATOM     26  C   UNL     1       8.015   9.258  17.897  0.00  0.00    +0.000 A 
ATOM     27  C   UNL     1       8.705   8.436  18.778  0.00  0.00    +0.000 A 
ATOM     28  N   UNL     1       8.466   7.113  18.914  0.00  0.00    +0.000 NA
ENDBRANCH  20  23
ENDBRANCH  19  20
BRANCH  19  29
ATOM     29  C   UNL     1       6.496   4.011  15.765  0.00  0.00    +0.000 C 
BRANCH  29  30
ATOM     30  C   UNL     1       6.172   4.903  14.506  0.00  0.00    +0.000 C 
ATOM     31  C   UNL     1       7.328   5.617  13.761  0.00  0.00    +0.000 C 
ATOM     32  C   UNL     1       8.038   4.822  12.655  0.00  0.00    +0.000 C 
ATOM     33  C   UNL     1       7.066   4.143  11.698  0.00  0.00    +0.000 C 
ATOM     34  C   UNL     1       6.083   3.284  12.480  0.00  0.00    +0.000 C 
ATOM     35  C   UNL     1       5.300   4.124  13.484  0.00  0.00    +0.000 C 
ENDBRANCH  29  30
ENDBRANCH  19  29
ENDBRANCH   1  19
TORSDOF 11
ENDMDL
MODEL 9
REMARK VINA RESULT:      -6.9      1.171      1.520
REMARK  Name = 
REMARK  12 active torsions:
REMARK  status: ('A' for Active; 'I' for Inactive)
REMARK    1  A    between atoms: C_1  and  N_2
REMARK    2  A    between atoms: C_6  and  C_7
REMARK    3  A    between atoms: C_7  and  N_8
REMARK    4  A    between atoms: N_8  and  C_9
REMARK    5  A    between atoms: N_8  and  C_28
REMARK    6  A    between atoms: C_9  and  C_10
REMARK    7  A    between atoms: C_10  and  N_11
REMARK    8  A    between atoms: N_11  and  C_12
REMARK    9  A    between atoms: N_11  and  S_19
REMARK   10  A    between atoms: C_12  and  C_13
REMARK   11  A    between atoms: S_19  and  C_22
REMARK   12  A    between atoms: C_31  and  C_32
REMARK                            x       y       z     vdW  Elec       q    Type
REMARK                         _______ _______ _______ _____ _____    ______ ____
ROOT
ATOM      1  C   UNL     1       0.835   8.629  19.436  0.00  0.00    +0.000 C 
ENDROOT
BRANCH   1   2
ATOM      2  C   UNL     1       2.089   8.058  20.151  0.00  0.00    +0.000 C 
BRANCH   2   3
ATOM      3  N   UNL     1       2.425   6.665  19.686  0.00  0.00    +0.000 N 
BRANCH   3   4
ATOM      4  C   UNL     1       3.499   6.412  18.817  0.00  0.00    +0.000 A 
ATOM      5  C   UNL     1       4.563   5.563  19.187  0.00  0.00    +0.000 A 
ATOM      6  C   UNL     1       5.628   5.257  18.321  0.00  0.00    +0.000 A 
ATOM      7  C   UNL     1       5.669   5.803  17.042  0.00  0.00    +0.000 A 
ATOM      8  C   UNL     1       4.647   6.671  16.656  0.00  0.00    +0.000 A 
ATOM      9  C   UNL     1       3.586   6.969  17.533  0.00  0.00    +0.000 A 
BRANCH   7  10
ATOM     10  C   UNL     1       6.746   5.472  16.146  0.00  0.00    +0.000 C 
ATOM     11  N   UNL     1       7.615   5.209  15.427  0.00  0.00    +0.000 NA
ENDBRANCH   7  10
ENDBRANCH   3   4
BRANCH   3  12
ATOM     12  C   UNL     1       1.995   5.524  20.543  0.00  0.00    +0.000 C 
BRANCH  12  18
ATOM     13  C   UNL     1       1.658   2.569  21.733  0.00  0.00    +0.000 C 
ATOM     14  N   UNL     1       1.567   2.991  20.356  0.00  0.00    +0.000 N 
ATOM     15  C   UNL     1       1.370   2.111  19.324  0.00  0.00    +0.000 A 
ATOM     16  N   UNL     1       1.166   2.737  18.190  0.00  0.00    +0.000 NA
ATOM     17  C   UNL     1       1.294   4.068  18.489  0.00  0.00    +0.000 A 
ATOM     18  C   UNL     1       1.617   4.262  19.820  0.00  0.00    +0.000 A 
ENDBRANCH  12  18
ENDBRANCH   3  12
ENDBRANCH   2   3
ENDBRANCH   1   2
BRANCH   1  19
ATOM     19  N   UNL     1       0.170   9.935  19.982  0.00  0.00    +0.000 NA
BRANCH  19  20
ATOM     20  S   UNL     1       0.244   9.873  21.766  0.00  0.00    +0.000 S 
ATOM     21  O   UNL     1      -0.564   8.746  22.196  0.00  0.00    +0.000 OA
ATOM     22  O   UNL     1       1.644   9.952  22.144  0.00  0.00    +0.000 OA
BRANCH  20  23
ATOM     23  C   UNL     1      -0.612  11.350  22.364  0.00  0.00    +0.000 A 
ATOM     24  C   UNL     1      -1.798  11.226  23.074  0.00  0.00    +0.000 A 
ATOM     25  C   UNL     1      -2.425  12.398  23.490  0.00  0.00    +0.000 A 
ATOM     26  C   UNL     1      -1.841  13.629  23.201  0.00  0.00    +0.000 A 
ATOM     27  C   UNL     1      -0.632  13.647  22.520  0.00  0.00    +0.000 A 
ATOM     28  N   UNL     1       0.005  12.534  22.094  0.00  0.00    +0.000 NA
ENDBRANCH  20  23
ENDBRANCH  19  20
BRANCH  19  29
ATOM     29  C   UNL     1      -1.277  10.114  19.490  0.00  0.00    +0.000 C 
BRANCH  29  30
ATOM     30  C   UNL     1      -1.644  11.374  18.618  0.00  0.00    +0.000 C 
ATOM     31  C   UNL     1      -2.136  11.175  17.162  0.00  0.00    +0.000 C 
ATOM     32  C   UNL     1      -3.642  10.958  16.961  0.00  0.00    +0.000 C 
ATOM     33  C   UNL     1      -4.493  11.965  17.726  0.00  0.00    +0.000 C 
ATOM     34  C   UNL     1      -4.105  11.961  19.196  0.00  0.00    +0.000 C 
ATOM     35  C   UNL     1      -2.629  12.305  19.374  0.00  0.00    +0.000 C 
ENDBRANCH  29  30
ENDBRANCH  19  29
ENDBRANCH   1  19
TORSDOF 11
ENDMDL
