MODEL 1
REMARK VINA RESULT:      -7.7      0.000      0.000
REMARK  Name = 
REMARK  15 active torsions:
REMARK  status: ('A' for Active; 'I' for Inactive)
REMARK    1  A    between atoms: C_1  and  N_2
REMARK    2  A    between atoms: N_2  and  C_3
REMARK    3  A    between atoms: N_2  and  C_4
REMARK    4  A    between atoms: N_2  and  C_19
REMARK    5  A    between atoms: C_4  and  C_5
REMARK    6  A    between atoms: C_5  and  C_6
REMARK    7  A    between atoms: C_6  and  C_7
REMARK    8  A    between atoms: C_7  and  N_8
REMARK    9  A    between atoms: C_9  and  C_11
REMARK   10  A    between atoms: C_11  and  C_12
REMARK   11  A    between atoms: C_12  and  C_13
REMARK   12  A    between atoms: C_19  and  C_20
REMARK   13  A    between atoms: C_20  and  N_21
REMARK   14  A    between atoms: C_22  and  C_24
REMARK   15  A    between atoms: C_31  and  N_32
REMARK                            x       y       z     vdW  Elec       q    Type
REMARK                         _______ _______ _______ _____ _____    ______ ____
ROOT
ATOM      1  C   UNL     1       1.084   4.579  20.410  0.00  0.00    +0.000 C 
ATOM      2  N   UNL     1       1.725   3.704  19.332  0.00  0.00    +0.000 N 
ATOM      3  C   UNL     1       0.988   2.378  19.209  0.00  0.00    +0.000 C 
ENDROOT
BRANCH   2   4
ATOM      4  C   UNL     1       1.723   4.459  17.969  0.00  0.00    +0.000 C 
BRANCH   4   5
ATOM      5  C   UNL     1       1.779   5.977  18.138  0.00  0.00    +0.000 C 
BRANCH   5   6
ATOM      6  C   UNL     1       3.108   6.567  17.678  0.00  0.00    +0.000 C 
BRANCH   6   7
ATOM      7  C   UNL     1       3.130   8.066  17.981  0.00  0.00    +0.000 C 
BRANCH   7   8
ATOM      8  N   UNL     1       1.810   8.579  18.233  0.00  0.00    +0.000 N 
ATOM      9  C   UNL     1       1.557   9.933  18.178  0.00  0.00    +0.000 C 
ATOM     10  O   UNL     1       2.432  10.761  17.945  0.00  0.00    +0.000 OA
ATOM     11  H   UNL     1       1.045   7.935  18.395  0.00  0.00    +0.000 HD
BRANCH   9  12
ATOM     12  C   UNL     1       0.116  10.284  18.455  0.00  0.00    +0.000 C 
BRANCH  12  13
ATOM     13  C   UNL     1      -0.805   9.576  17.472  0.00  0.00    +0.000 C 
BRANCH  13  14
ATOM     14  C   UNL     1      -2.110  10.313  17.332  0.00  0.00    +0.000 A 
ATOM     15  C   UNL     1      -2.619  11.053  18.408  0.00  0.00    +0.000 A 
ATOM     16  C   UNL     1      -3.850  11.695  18.300  0.00  0.00    +0.000 A 
ATOM     17  C   UNL     1      -4.589  11.601  17.121  0.00  0.00    +0.000 A 
ATOM     18  C   UNL     1      -4.089  10.870  16.047  0.00  0.00    +0.000 A 
ATOM     19  C   UNL     1      -2.854  10.228  16.148  0.00  0.00    +0.000 A 
ENDBRANCH  13  14
ENDBRANCH  12  13
ENDBRANCH   9  12
ENDBRANCH   7   8
ENDBRANCH   6   7
ENDBRANCH   5   6
ENDBRANCH   4   5
ENDBRANCH   2   4
BRANCH   2  20
ATOM     20  C   UNL     1       3.218   3.453  19.693  0.00  0.00    +0.000 C 
BRANCH  20  21
ATOM     21  C   UNL     1       3.929   2.395  18.815  0.00  0.00    +0.000 C 
BRANCH  21  22
ATOM     22  N   UNL     1       4.543   2.974  17.644  0.00  0.00    +0.000 N 
ATOM     23  C   UNL     1       5.594   3.868  17.762  0.00  0.00    +0.000 C 
ATOM     24  O   UNL     1       5.992   4.247  18.858  0.00  0.00    +0.000 OA
ATOM     25  H   UNL     1       4.393   2.581  16.714  0.00  0.00    +0.000 HD
BRANCH  23  26
ATOM     26  C   UNL     1       6.193   4.301  16.462  0.00  0.00    +0.000 A 
ATOM     27  N   UNL     1       5.714   3.640  15.367  0.00  0.00    +0.000 NA
ATOM     28  C   UNL     1       6.248   4.065  14.200  0.00  0.00    +0.000 A 
ATOM     29 CL   UNL     1       5.625   3.250  12.821  0.00  0.00    +0.000 Cl
ATOM     30  C   UNL     1       7.231   5.062  14.108  0.00  0.00    +0.000 A 
ATOM     31  N   UNL     1       7.711   5.564  12.901  0.00  0.00    +0.000 N 
ATOM     32  N   UNL     1       7.697   5.680  15.218  0.00  0.00    +0.000 NA
ATOM     33  C   UNL     1       7.172   5.304  16.405  0.00  0.00    +0.000 A 
ATOM     34  H   UNL     1       7.932   4.856  12.211  0.00  0.00    +0.000 HD
ATOM     35  H   UNL     1       8.474   6.207  13.094  0.00  0.00    +0.000 HD
BRANCH  33  36
ATOM     36  N   UNL     1       7.573   6.066  17.495  0.00  0.00    +0.000 N 
ATOM     37  H   UNL     1       6.797   6.608  17.861  0.00  0.00    +0.000 HD
ATOM     38  H   UNL     1       8.420   6.604  17.330  0.00  0.00    +0.000 HD
ENDBRANCH  33  36
ENDBRANCH  23  26
ENDBRANCH  21  22
ENDBRANCH  20  21
ENDBRANCH   2  20
TORSDOF 13
ENDMDL
MODEL 2
REMARK VINA RESULT:      -7.7      4.569      8.805
REMARK  Name = 
REMARK  15 active torsions:
REMARK  status: ('A' for Active; 'I' for Inactive)
REMARK    1  A    between atoms: C_1  and  N_2
REMARK    2  A    between atoms: N_2  and  C_3
REMARK    3  A    between atoms: N_2  and  C_4
REMARK    4  A    between atoms: N_2  and  C_19
REMARK    5  A    between atoms: C_4  and  C_5
REMARK    6  A    between atoms: C_5  and  C_6
REMARK    7  A    between atoms: C_6  and  C_7
REMARK    8  A    between atoms: C_7  and  N_8
REMARK    9  A    between atoms: C_9  and  C_11
REMARK   10  A    between atoms: C_11  and  C_12
REMARK   11  A    between atoms: C_12  and  C_13
REMARK   12  A    between atoms: C_19  and  C_20
REMARK   13  A    between atoms: C_20  and  N_21
REMARK   14  A    between atoms: C_22  and  C_24
REMARK   15  A    between atoms: C_31  and  N_32
REMARK                            x       y       z     vdW  Elec       q    Type
REMARK                         _______ _______ _______ _____ _____    ______ ____
ROOT
ATOM      1  C   UNL     1       1.645   4.670  17.491  0.00  0.00    +0.000 C 
ATOM      2  N   UNL     1       2.353   3.887  18.597  0.00  0.00    +0.000 N 
ATOM      3  C   UNL     1       2.166   2.390  18.399  0.00  0.00    +0.000 C 
ENDROOT
BRANCH   2   4
ATOM      4  C   UNL     1       3.868   4.251  18.615  0.00  0.00    +0.000 C 
BRANCH   4   5
ATOM      5  C   UNL     1       4.439   4.462  17.213  0.00  0.00    +0.000 C 
BRANCH   5   6
ATOM      6  C   UNL     1       4.757   5.926  16.926  0.00  0.00    +0.000 C 
BRANCH   6   7
ATOM      7  C   UNL     1       6.144   6.030  16.290  0.00  0.00    +0.000 C 
BRANCH   7   8
ATOM      8  N   UNL     1       6.947   7.040  16.926  0.00  0.00    +0.000 N 
ATOM      9  C   UNL     1       7.702   6.743  18.040  0.00  0.00    +0.000 C 
ATOM     10  O   UNL     1       7.710   5.631  18.557  0.00  0.00    +0.000 OA
ATOM     11  H   UNL     1       7.004   7.966  16.517  0.00  0.00    +0.000 HD
BRANCH   9  12
ATOM     12  C   UNL     1       8.489   7.920  18.561  0.00  0.00    +0.000 C 
BRANCH  12  13
ATOM     13  C   UNL     1       8.051   9.204  17.869  0.00  0.00    +0.000 C 
BRANCH  13  14
ATOM     14  C   UNL     1       8.778  10.395  18.435  0.00  0.00    +0.000 A 
ATOM     15  C   UNL     1       9.477  10.283  19.644  0.00  0.00    +0.000 A 
ATOM     16  C   UNL     1      10.110  11.394  20.196  0.00  0.00    +0.000 A 
ATOM     17  C   UNL     1      10.046  12.628  19.552  0.00  0.00    +0.000 A 
ATOM     18  C   UNL     1       9.356  12.748  18.349  0.00  0.00    +0.000 A 
ATOM     19  C   UNL     1       8.724  11.636  17.788  0.00  0.00    +0.000 A 
ENDBRANCH  13  14
ENDBRANCH  12  13
ENDBRANCH   9  12
ENDBRANCH   7   8
ENDBRANCH   6   7
ENDBRANCH   5   6
ENDBRANCH   4   5
ENDBRANCH   2   4
BRANCH   2  20
ATOM     20  C   UNL     1       1.782   4.319  19.980  0.00  0.00    +0.000 C 
BRANCH  20  21
ATOM     21  C   UNL     1       2.602   5.410  20.709  0.00  0.00    +0.000 C 
BRANCH  21  22
ATOM     22  N   UNL     1       1.865   6.642  20.863  0.00  0.00    +0.000 N 
ATOM     23  C   UNL     1       2.000   7.669  19.944  0.00  0.00    +0.000 C 
ATOM     24  O   UNL     1       2.793   7.594  19.012  0.00  0.00    +0.000 OA
ATOM     25  H   UNL     1       1.067   6.710  21.497  0.00  0.00    +0.000 HD
BRANCH  23  26
ATOM     26  C   UNL     1       1.097   8.838  20.179  0.00  0.00    +0.000 A 
ATOM     27  N   UNL     1       0.625   8.944  21.456  0.00  0.00    +0.000 NA
ATOM     28  C   UNL     1      -0.167  10.021  21.654  0.00  0.00    +0.000 A 
ATOM     29 CL   UNL     1      -0.740  10.167  23.268  0.00  0.00    +0.000 Cl
ATOM     30  C   UNL     1      -0.514  10.932  20.644  0.00  0.00    +0.000 A 
ATOM     31  N   UNL     1      -1.252  12.091  20.870  0.00  0.00    +0.000 N 
ATOM     32  N   UNL     1      -0.044  10.782  19.385  0.00  0.00    +0.000 NA
ATOM     33  C   UNL     1       0.773   9.732  19.148  0.00  0.00    +0.000 A 
ATOM     34  H   UNL     1      -2.070  11.961  21.454  0.00  0.00    +0.000 HD
ATOM     35  H   UNL     1      -1.448  12.535  19.977  0.00  0.00    +0.000 HD
BRANCH  33  36
ATOM     36  N   UNL     1       1.346   9.704  17.882  0.00  0.00    +0.000 N 
ATOM     37  H   UNL     1       2.276  10.108  17.898  0.00  0.00    +0.000 HD
ATOM     38  H   UNL     1       0.741  10.069  17.151  0.00  0.00    +0.000 HD
ENDBRANCH  33  36
ENDBRANCH  23  26
ENDBRANCH  21  22
ENDBRANCH  20  21
ENDBRANCH   2  20
TORSDOF 13
ENDMDL
MODEL 3
REMARK VINA RESULT:      -7.5      0.958      1.328
REMARK  Name = 
REMARK  15 active torsions:
REMARK  status: ('A' for Active; 'I' for Inactive)
REMARK    1  A    between atoms: C_1  and  N_2
REMARK    2  A    between atoms: N_2  and  C_3
REMARK    3  A    between atoms: N_2  and  C_4
REMARK    4  A    between atoms: N_2  and  C_19
REMARK    5  A    between atoms: C_4  and  C_5
REMARK    6  A    between atoms: C_5  and  C_6
REMARK    7  A    between atoms: C_6  and  C_7
REMARK    8  A    between atoms: C_7  and  N_8
REMARK    9  A    between atoms: C_9  and  C_11
REMARK   10  A    between atoms: C_11  and  C_12
REMARK   11  A    between atoms: C_12  and  C_13
REMARK   12  A    between atoms: C_19  and  C_20
REMARK   13  A    between atoms: C_20  and  N_21
REMARK   14  A    between atoms: C_22  and  C_24
REMARK   15  A    between atoms: C_31  and  N_32
REMARK                            x       y       z     vdW  Elec       q    Type
REMARK                         _______ _______ _______ _____ _____    ______ ____
ROOT
ATOM      1  C   UNL     1       0.661   3.511  19.732  0.00  0.00    +0.000 C 
ATOM      2  N   UNL     1       2.022   3.653  19.049  0.00  0.00    +0.000 N 
ATOM      3  C   UNL     1       2.153   2.663  17.901  0.00  0.00    +0.000 C 
ENDROOT
BRANCH   2   4
ATOM      4  C   UNL     1       2.205   5.113  18.535  0.00  0.00    +0.000 C 
BRANCH   4   5
ATOM      5  C   UNL     1       2.903   6.012  19.554  0.00  0.00    +0.000 C 
BRANCH   5   6
ATOM      6  C   UNL     1       2.033   7.188  19.988  0.00  0.00    +0.000 C 
BRANCH   6   7
ATOM      7  C   UNL     1       2.108   8.293  18.934  0.00  0.00    +0.000 C 
BRANCH   7   8
ATOM      8  N   UNL     1       1.102   9.300  19.145  0.00  0.00    +0.000 N 
ATOM      9  C   UNL     1       1.242  10.560  18.605  0.00  0.00    +0.000 C 
ATOM     10  O   UNL     1       2.225  10.895  17.951  0.00  0.00    +0.000 OA
ATOM     11  H   UNL     1       0.255   9.064  19.648  0.00  0.00    +0.000 HD
BRANCH   9  12
ATOM     12  C   UNL     1       0.086  11.477  18.918  0.00  0.00    +0.000 C 
BRANCH  12  13
ATOM     13  C   UNL     1      -1.158  10.670  19.266  0.00  0.00    +0.000 C 
BRANCH  13  14
ATOM     14  C   UNL     1      -2.140  10.678  18.125  0.00  0.00    +0.000 A 
ATOM     15  C   UNL     1      -1.907   9.889  16.991  0.00  0.00    +0.000 A 
ATOM     16  C   UNL     1      -2.787   9.931  15.913  0.00  0.00    +0.000 A 
ATOM     17  C   UNL     1      -3.904  10.764  15.951  0.00  0.00    +0.000 A 
ATOM     18  C   UNL     1      -4.145  11.549  17.076  0.00  0.00    +0.000 A 
ATOM     19  C   UNL     1      -3.268  11.508  18.162  0.00  0.00    +0.000 A 
ENDBRANCH  13  14
ENDBRANCH  12  13
ENDBRANCH   9  12
ENDBRANCH   7   8
ENDBRANCH   6   7
ENDBRANCH   5   6
ENDBRANCH   4   5
ENDBRANCH   2   4
BRANCH   2  20
ATOM     20  C   UNL     1       3.150   3.411  20.094  0.00  0.00    +0.000 C 
BRANCH  20  21
ATOM     21  C   UNL     1       4.362   2.606  19.566  0.00  0.00    +0.000 C 
BRANCH  21  22
ATOM     22  N   UNL     1       4.875   3.134  18.324  0.00  0.00    +0.000 N 
ATOM     23  C   UNL     1       5.786   4.177  18.319  0.00  0.00    +0.000 C 
ATOM     24  O   UNL     1       6.135   4.727  19.358  0.00  0.00    +0.000 OA
ATOM     25  H   UNL     1       4.775   2.623  17.446  0.00  0.00    +0.000 HD
BRANCH  23  26
ATOM     26  C   UNL     1       6.305   4.545  16.965  0.00  0.00    +0.000 A 
ATOM     27  N   UNL     1       5.842   3.762  15.947  0.00  0.00    +0.000 NA
ATOM     28  C   UNL     1       6.301   4.127  14.730  0.00  0.00    +0.000 A 
ATOM     29 CL   UNL     1       5.697   3.157  13.446  0.00  0.00    +0.000 Cl
ATOM     30  C   UNL     1       7.200   5.185  14.518  0.00  0.00    +0.000 A 
ATOM     31  N   UNL     1       7.597   5.620  13.257  0.00  0.00    +0.000 N 
ATOM     32  N   UNL     1       7.653   5.926  15.556  0.00  0.00    +0.000 NA
ATOM     33  C   UNL     1       7.200   5.611  16.790  0.00  0.00    +0.000 A 
ATOM     34  H   UNL     1       7.849   4.876  12.617  0.00  0.00    +0.000 HD
ATOM     35  H   UNL     1       8.314   6.332  13.367  0.00  0.00    +0.000 HD
BRANCH  33  36
ATOM     36  N   UNL     1       7.576   6.488  17.798  0.00  0.00    +0.000 N 
ATOM     37  H   UNL     1       8.065   5.998  18.539  0.00  0.00    +0.000 HD
ATOM     38  H   UNL     1       6.823   7.092  18.119  0.00  0.00    +0.000 HD
ENDBRANCH  33  36
ENDBRANCH  23  26
ENDBRANCH  21  22
ENDBRANCH  20  21
ENDBRANCH   2  20
TORSDOF 13
ENDMDL
MODEL 4
REMARK VINA RESULT:      -7.4      1.440      1.946
REMARK  Name = 
REMARK  15 active torsions:
REMARK  status: ('A' for Active; 'I' for Inactive)
REMARK    1  A    between atoms: C_1  and  N_2
REMARK    2  A    between atoms: N_2  and  C_3
REMARK    3  A    between atoms: N_2  and  C_4
REMARK    4  A    between atoms: N_2  and  C_19
REMARK    5  A    between atoms: C_4  and  C_5
REMARK    6  A    between atoms: C_5  and  C_6
REMARK    7  A    between atoms: C_6  and  C_7
REMARK    8  A    between atoms: C_7  and  N_8
REMARK    9  A    between atoms: C_9  and  C_11
REMARK   10  A    between atoms: C_11  and  C_12
REMARK   11  A    between atoms: C_12  and  C_13
REMARK   12  A    between atoms: C_19  and  C_20
REMARK   13  A    between atoms: C_20  and  N_21
REMARK   14  A    between atoms: C_22  and  C_24
REMARK   15  A    between atoms: C_31  and  N_32
REMARK                            x       y       z     vdW  Elec       q    Type
REMARK                         _______ _______ _______ _____ _____    ______ ____
ROOT
ATOM      1  C   UNL     1       3.119   2.867  20.668  0.00  0.00    +0.000 C 
ATOM      2  N   UNL     1       2.055   3.892  20.271  0.00  0.00    +0.000 N 
ATOM      3  C   UNL     1       0.660   3.310  20.440  0.00  0.00    +0.000 C 
ENDROOT
BRANCH   2   4
ATOM      4  C   UNL     1       2.218   5.181  21.132  0.00  0.00    +0.000 C 
BRANCH   4   5
ATOM      5  C   UNL     1       1.623   6.417  20.458  0.00  0.00    +0.000 C 
BRANCH   5   6
ATOM      6  C   UNL     1       1.848   7.689  21.269  0.00  0.00    +0.000 C 
BRANCH   6   7
ATOM      7  C   UNL     1       0.527   8.450  21.399  0.00  0.00    +0.000 C 
BRANCH   7   8
ATOM      8  N   UNL     1       0.186   9.138  20.183  0.00  0.00    +0.000 N 
ATOM      9  C   UNL     1       0.323  10.507  20.086  0.00  0.00    +0.000 C 
ATOM     10  O   UNL     1       0.707  11.202  21.021  0.00  0.00    +0.000 OA
ATOM     11  H   UNL     1      -0.102   8.607  19.370  0.00  0.00    +0.000 HD
BRANCH   9  12
ATOM     12  C   UNL     1      -0.068  11.052  18.735  0.00  0.00    +0.000 C 
BRANCH  12  13
ATOM     13  C   UNL     1      -0.783   9.987  17.915  0.00  0.00    +0.000 C 
BRANCH  13  14
ATOM     14  C   UNL     1      -2.127  10.481  17.448  0.00  0.00    +0.000 A 
ATOM     15  C   UNL     1      -2.511  10.316  16.111  0.00  0.00    +0.000 A 
ATOM     16  C   UNL     1      -3.732  10.814  15.663  0.00  0.00    +0.000 A 
ATOM     17  C   UNL     1      -4.578  11.488  16.541  0.00  0.00    +0.000 A 
ATOM     18  C   UNL     1      -4.205  11.654  17.873  0.00  0.00    +0.000 A 
ATOM     19  C   UNL     1      -2.985  11.152  18.328  0.00  0.00    +0.000 A 
ENDBRANCH  13  14
ENDBRANCH  12  13
ENDBRANCH   9  12
ENDBRANCH   7   8
ENDBRANCH   6   7
ENDBRANCH   5   6
ENDBRANCH   4   5
ENDBRANCH   2   4
BRANCH   2  20
ATOM     20  C   UNL     1       2.280   4.321  18.792  0.00  0.00    +0.000 C 
BRANCH  20  21
ATOM     21  C   UNL     1       2.780   3.192  17.858  0.00  0.00    +0.000 C 
BRANCH  21  22
ATOM     22  N   UNL     1       3.696   3.676  16.852  0.00  0.00    +0.000 N 
ATOM     23  C   UNL     1       5.003   3.996  17.178  0.00  0.00    +0.000 C 
ATOM     24  O   UNL     1       5.406   3.943  18.334  0.00  0.00    +0.000 OA
ATOM     25  H   UNL     1       3.494   3.577  15.856  0.00  0.00    +0.000 HD
BRANCH  23  26
ATOM     26  C   UNL     1       5.858   4.382  16.013  0.00  0.00    +0.000 A 
ATOM     27  N   UNL     1       5.549   3.747  14.845  0.00  0.00    +0.000 NA
ATOM     28  C   UNL     1       6.315   4.130  13.799  0.00  0.00    +0.000 A 
ATOM     29 CL   UNL     1       5.907   3.349  12.323  0.00  0.00    +0.000 Cl
ATOM     30  C   UNL     1       7.361   5.062  13.897  0.00  0.00    +0.000 A 
ATOM     31  N   UNL     1       8.086   5.525  12.802  0.00  0.00    +0.000 N 
ATOM     32  N   UNL     1       7.652   5.655  15.077  0.00  0.00    +0.000 NA
ATOM     33  C   UNL     1       6.893   5.320  16.145  0.00  0.00    +0.000 A 
ATOM     34  H   UNL     1       8.385   4.800  12.160  0.00  0.00    +0.000 HD
ATOM     35  H   UNL     1       8.840   6.119  13.137  0.00  0.00    +0.000 HD
BRANCH  33  36
ATOM     36  N   UNL     1       7.134   6.061  17.295  0.00  0.00    +0.000 N 
ATOM     37  H   UNL     1       8.083   6.417  17.302  0.00  0.00    +0.000 HD
ATOM     38  H   UNL     1       6.854   5.590  18.152  0.00  0.00    +0.000 HD
ENDBRANCH  33  36
ENDBRANCH  23  26
ENDBRANCH  21  22
ENDBRANCH  20  21
ENDBRANCH   2  20
TORSDOF 13
ENDMDL
MODEL 5
REMARK VINA RESULT:      -7.3      1.483      1.662
REMARK  Name = 
REMARK  15 active torsions:
REMARK  status: ('A' for Active; 'I' for Inactive)
REMARK    1  A    between atoms: C_1  and  N_2
REMARK    2  A    between atoms: N_2  and  C_3
REMARK    3  A    between atoms: N_2  and  C_4
REMARK    4  A    between atoms: N_2  and  C_19
REMARK    5  A    between atoms: C_4  and  C_5
REMARK    6  A    between atoms: C_5  and  C_6
REMARK    7  A    between atoms: C_6  and  C_7
REMARK    8  A    between atoms: C_7  and  N_8
REMARK    9  A    between atoms: C_9  and  C_11
REMARK   10  A    between atoms: C_11  and  C_12
REMARK   11  A    between atoms: C_12  and  C_13
REMARK   12  A    between atoms: C_19  and  C_20
REMARK   13  A    between atoms: C_20  and  N_21
REMARK   14  A    between atoms: C_22  and  C_24
REMARK   15  A    between atoms: C_31  and  N_32
REMARK                            x       y       z     vdW  Elec       q    Type
REMARK                         _______ _______ _______ _____ _____    ______ ____
ROOT
ATOM      1  C   UNL     1       2.144   2.827  21.713  0.00  0.00    +0.000 C 
ATOM      2  N   UNL     1       2.387   3.346  20.295  0.00  0.00    +0.000 N 
ATOM      3  C   UNL     1       1.287   2.874  19.356  0.00  0.00    +0.000 C 
ENDROOT
BRANCH   2   4
ATOM      4  C   UNL     1       2.465   4.902  20.308  0.00  0.00    +0.000 C 
BRANCH   4   5
ATOM      5  C   UNL     1       1.922   5.529  19.025  0.00  0.00    +0.000 C 
BRANCH   5   6
ATOM      6  C   UNL     1       2.205   7.025  18.940  0.00  0.00    +0.000 C 
BRANCH   6   7
ATOM      7  C   UNL     1       2.035   7.655  20.324  0.00  0.00    +0.000 C 
BRANCH   7   8
ATOM      8  N   UNL     1       1.377   8.932  20.251  0.00  0.00    +0.000 N 
ATOM      9  C   UNL     1       0.144   9.125  20.836  0.00  0.00    +0.000 C 
ATOM     10  O   UNL     1      -0.462   8.229  21.415  0.00  0.00    +0.000 OA
ATOM     11  H   UNL     1       1.850   9.715  19.815  0.00  0.00    +0.000 HD
BRANCH   9  12
ATOM     12  C   UNL     1      -0.384  10.529  20.670  0.00  0.00    +0.000 C 
BRANCH  12  13
ATOM     13  C   UNL     1      -0.215  10.997  19.232  0.00  0.00    +0.000 C 
BRANCH  13  14
ATOM     14  C   UNL     1      -1.516  10.908  18.481  0.00  0.00    +0.000 A 
ATOM     15  C   UNL     1      -2.607  11.697  18.868  0.00  0.00    +0.000 A 
ATOM     16  C   UNL     1      -3.828  11.581  18.208  0.00  0.00    +0.000 A 
ATOM     17  C   UNL     1      -3.975  10.674  17.160  0.00  0.00    +0.000 A 
ATOM     18  C   UNL     1      -2.895   9.889  16.766  0.00  0.00    +0.000 A 
ATOM     19  C   UNL     1      -1.668  10.003  17.421  0.00  0.00    +0.000 A 
ENDBRANCH  13  14
ENDBRANCH  12  13
ENDBRANCH   9  12
ENDBRANCH   7   8
ENDBRANCH   6   7
ENDBRANCH   5   6
ENDBRANCH   4   5
ENDBRANCH   2   4
BRANCH   2  20
ATOM     20  C   UNL     1       3.771   2.842  19.792  0.00  0.00    +0.000 C 
BRANCH  20  21
ATOM     21  C   UNL     1       3.725   2.021  18.480  0.00  0.00    +0.000 C 
BRANCH  21  22
ATOM     22  N   UNL     1       4.433   2.669  17.401  0.00  0.00    +0.000 N 
ATOM     23  C   UNL     1       5.242   3.767  17.641  0.00  0.00    +0.000 C 
ATOM     24  O   UNL     1       5.332   4.264  18.759  0.00  0.00    +0.000 OA
ATOM     25  H   UNL     1       4.551   2.216  16.494  0.00  0.00    +0.000 HD
BRANCH  23  26
ATOM     26  C   UNL     1       5.990   4.263  16.445  0.00  0.00    +0.000 A 
ATOM     27  N   UNL     1       5.687   3.621  15.278  0.00  0.00    +0.000 NA
ATOM     28  C   UNL     1       6.352   4.102  14.205  0.00  0.00    +0.000 A 
ATOM     29 CL   UNL     1       5.951   3.310  12.733  0.00  0.00    +0.000 Cl
ATOM     30  C   UNL     1       7.299   5.137  14.272  0.00  0.00    +0.000 A 
ATOM     31  N   UNL     1       7.914   5.694  13.154  0.00  0.00    +0.000 N 
ATOM     32  N   UNL     1       7.589   5.734  15.451  0.00  0.00    +0.000 NA
ATOM     33  C   UNL     1       6.927   5.301  16.547  0.00  0.00    +0.000 A 
ATOM     34  H   UNL     1       8.252   5.017  12.480  0.00  0.00    +0.000 HD
ATOM     35  H   UNL     1       8.619   6.357  13.464  0.00  0.00    +0.000 HD
BRANCH  33  36
ATOM     36  N   UNL     1       7.150   6.042  17.701  0.00  0.00    +0.000 N 
ATOM     37  H   UNL     1       6.347   5.996  18.319  0.00  0.00    +0.000 HD
ATOM     38  H   UNL     1       7.492   6.983  17.524  0.00  0.00    +0.000 HD
ENDBRANCH  33  36
ENDBRANCH  23  26
ENDBRANCH  21  22
ENDBRANCH  20  21
ENDBRANCH   2  20
TORSDOF 13
ENDMDL
MODEL 6
REMARK VINA RESULT:      -7.2      2.815      3.320
REMARK  Name = 
REMARK  15 active torsions:
REMARK  status: ('A' for Active; 'I' for Inactive)
REMARK    1  A    between atoms: C_1  and  N_2
REMARK    2  A    between atoms: N_2  and  C_3
REMARK    3  A    between atoms: N_2  and  C_4
REMARK    4  A    between atoms: N_2  and  C_19
REMARK    5  A    between atoms: C_4  and  C_5
REMARK    6  A    between atoms: C_5  and  C_6
REMARK    7  A    between atoms: C_6  and  C_7
REMARK    8  A    between atoms: C_7  and  N_8
REMARK    9  A    between atoms: C_9  and  C_11
REMARK   10  A    between atoms: C_11  and  C_12
REMARK   11  A    between atoms: C_12  and  C_13
REMARK   12  A    between atoms: C_19  and  C_20
REMARK   13  A    between atoms: C_20  and  N_21
REMARK   14  A    between atoms: C_22  and  C_24
REMARK   15  A    between atoms: C_31  and  N_32
REMARK                            x       y       z     vdW  Elec       q    Type
REMARK                         _______ _______ _______ _____ _____    ______ ____
ROOT
ATOM      1  C   UNL     1       1.653   2.684  21.902  0.00  0.00    +0.000 C 
ATOM      2  N   UNL     1       2.108   3.452  20.660  0.00  0.00    +0.000 N 
ATOM      3  C   UNL     1       1.029   3.427  19.588  0.00  0.00    +0.000 C 
ENDROOT
BRANCH   2   4
ATOM      4  C   UNL     1       2.461   4.920  21.047  0.00  0.00    +0.000 C 
BRANCH   4   5
ATOM      5  C   UNL     1       1.553   5.942  20.365  0.00  0.00    +0.000 C 
BRANCH   5   6
ATOM      6  C   UNL     1       1.963   7.380  20.666  0.00  0.00    +0.000 C 
BRANCH   6   7
ATOM      7  C   UNL     1       0.820   8.325  20.289  0.00  0.00    +0.000 C 
BRANCH   7   8
ATOM      8  N   UNL     1       0.172   8.869  21.453  0.00  0.00    +0.000 N 
ATOM      9  C   UNL     1      -0.099  10.217  21.542  0.00  0.00    +0.000 C 
ATOM     10  O   UNL     1       0.215  11.016  20.666  0.00  0.00    +0.000 OA
ATOM     11  H   UNL     1      -0.140   8.247  22.189  0.00  0.00    +0.000 HD
BRANCH   9  12
ATOM     12  C   UNL     1      -0.793  10.603  22.825  0.00  0.00    +0.000 C 
BRANCH  12  13
ATOM     13  C   UNL     1      -1.029  12.107  22.874  0.00  0.00    +0.000 C 
BRANCH  13  14
ATOM     14  C   UNL     1      -2.485  12.429  22.674  0.00  0.00    +0.000 A 
ATOM     15  C   UNL     1      -3.347  12.503  23.777  0.00  0.00    +0.000 A 
ATOM     16  C   UNL     1      -4.705  12.752  23.592  0.00  0.00    +0.000 A 
ATOM     17  C   UNL     1      -5.218  12.924  22.307  0.00  0.00    +0.000 A 
ATOM     18  C   UNL     1      -4.368  12.856  21.207  0.00  0.00    +0.000 A 
ATOM     19  C   UNL     1      -3.005  12.611  21.386  0.00  0.00    +0.000 A 
ENDBRANCH  13  14
ENDBRANCH  12  13
ENDBRANCH   9  12
ENDBRANCH   7   8
ENDBRANCH   6   7
ENDBRANCH   5   6
ENDBRANCH   4   5
ENDBRANCH   2   4
BRANCH   2  20
ATOM     20  C   UNL     1       3.419   2.816  20.112  0.00  0.00    +0.000 C 
BRANCH  20  21
ATOM     21  C   UNL     1       3.290   2.167  18.713  0.00  0.00    +0.000 C 
BRANCH  21  22
ATOM     22  N   UNL     1       4.272   2.669  17.780  0.00  0.00    +0.000 N 
ATOM     23  C   UNL     1       4.054   3.848  17.086  0.00  0.00    +0.000 C 
ATOM     24  O   UNL     1       3.000   4.465  17.189  0.00  0.00    +0.000 OA
ATOM     25  H   UNL     1       5.230   2.317  17.774  0.00  0.00    +0.000 HD
BRANCH  23  26
ATOM     26  C   UNL     1       5.202   4.292  16.238  0.00  0.00    +0.000 A 
ATOM     27  N   UNL     1       5.194   3.799  14.965  0.00  0.00    +0.000 NA
ATOM     28  C   UNL     1       6.225   4.234  14.208  0.00  0.00    +0.000 A 
ATOM     29 CL   UNL     1       6.200   3.633  12.598  0.00  0.00    +0.000 Cl
ATOM     30  C   UNL     1       7.240   5.081  14.682  0.00  0.00    +0.000 A 
ATOM     31  N   UNL     1       8.248   5.603  13.876  0.00  0.00    +0.000 N 
ATOM     32  N   UNL     1       7.226   5.532  15.957  0.00  0.00    +0.000 NA
ATOM     33  C   UNL     1       6.198   5.142  16.743  0.00  0.00    +0.000 A 
ATOM     34  H   UNL     1       8.682   4.929  13.256  0.00  0.00    +0.000 HD
ATOM     35  H   UNL     1       8.907   6.110  14.462  0.00  0.00    +0.000 HD
BRANCH  33  36
ATOM     36  N   UNL     1       6.148   5.747  17.993  0.00  0.00    +0.000 N 
ATOM     37  H   UNL     1       5.271   6.240  18.120  0.00  0.00    +0.000 HD
ATOM     38  H   UNL     1       6.976   6.295  18.216  0.00  0.00    +0.000 HD
ENDBRANCH  33  36
ENDBRANCH  23  26
ENDBRANCH  21  22
ENDBRANCH  20  21
ENDBRANCH   2  20
TORSDOF 13
ENDMDL
MODEL 7
REMARK VINA RESULT:      -7.2      1.822      2.520
REMARK  Name = 
REMARK  15 active torsions:
REMARK  status: ('A' for Active; 'I' for Inactive)
REMARK    1  A    between atoms: C_1  and  N_2
REMARK    2  A    between atoms: N_2  and  C_3
REMARK    3  A    between atoms: N_2  and  C_4
REMARK    4  A    between atoms: N_2  and  C_19
REMARK    5  A    between atoms: C_4  and  C_5
REMARK    6  A    between atoms: C_5  and  C_6
REMARK    7  A    between atoms: C_6  and  C_7
REMARK    8  A    between atoms: C_7  and  N_8
REMARK    9  A    between atoms: C_9  and  C_11
REMARK   10  A    between atoms: C_11  and  C_12
REMARK   11  A    between atoms: C_12  and  C_13
REMARK   12  A    between atoms: C_19  and  C_20
REMARK   13  A    between atoms: C_20  and  N_21
REMARK   14  A    between atoms: C_22  and  C_24
REMARK   15  A    between atoms: C_31  and  N_32
REMARK                            x       y       z     vdW  Elec       q    Type
REMARK                         _______ _______ _______ _____ _____    ______ ____
ROOT
ATOM      1  C   UNL     1       3.501   3.377  20.764  0.00  0.00    +0.000 C 
ATOM      2  N   UNL     1       2.190   3.672  20.034  0.00  0.00    +0.000 N 
ATOM      3  C   UNL     1       1.023   2.983  20.726  0.00  0.00    +0.000 C 
ENDROOT
BRANCH   2   4
ATOM      4  C   UNL     1       1.956   5.211  19.970  0.00  0.00    +0.000 C 
BRANCH   4   5
ATOM      5  C   UNL     1       3.139   5.961  19.358  0.00  0.00    +0.000 C 
BRANCH   5   6
ATOM      6  C   UNL     1       2.809   6.559  17.994  0.00  0.00    +0.000 C 
BRANCH   6   7
ATOM      7  C   UNL     1       2.813   8.085  18.093  0.00  0.00    +0.000 C 
BRANCH   7   8
ATOM      8  N   UNL     1       1.517   8.599  18.446  0.00  0.00    +0.000 N 
ATOM      9  C   UNL     1       1.297   9.958  18.532  0.00  0.00    +0.000 C 
ATOM     10  O   UNL     1       2.183  10.785  18.344  0.00  0.00    +0.000 OA
ATOM     11  H   UNL     1       0.742   7.960  18.577  0.00  0.00    +0.000 HD
BRANCH   9  12
ATOM     12  C   UNL     1      -0.123  10.311  18.900  0.00  0.00    +0.000 C 
BRANCH  12  13
ATOM     13  C   UNL     1      -0.344  10.146  20.397  0.00  0.00    +0.000 C 
BRANCH  13  14
ATOM     14  C   UNL     1      -0.976  11.379  20.986  0.00  0.00    +0.000 A 
ATOM     15  C   UNL     1      -1.878  12.138  20.229  0.00  0.00    +0.000 A 
ATOM     16  C   UNL     1      -2.427  13.306  20.752  0.00  0.00    +0.000 A 
ATOM     17  C   UNL     1      -2.078  13.733  22.032  0.00  0.00    +0.000 A 
ATOM     18  C   UNL     1      -1.184  12.983  22.793  0.00  0.00    +0.000 A 
ATOM     19  C   UNL     1      -0.635  11.809  22.276  0.00  0.00    +0.000 A 
ENDBRANCH  13  14
ENDBRANCH  12  13
ENDBRANCH   9  12
ENDBRANCH   7   8
ENDBRANCH   6   7
ENDBRANCH   5   6
ENDBRANCH   4   5
ENDBRANCH   2   4
BRANCH   2  20
ATOM     20  C   UNL     1       2.299   3.183  18.560  0.00  0.00    +0.000 C 
BRANCH  20  21
ATOM     21  C   UNL     1       3.597   2.407  18.228  0.00  0.00    +0.000 C 
BRANCH  21  22
ATOM     22  N   UNL     1       4.324   2.994  17.127  0.00  0.00    +0.000 N 
ATOM     23  C   UNL     1       5.441   3.781  17.354  0.00  0.00    +0.000 C 
ATOM     24  O   UNL     1       5.809   4.058  18.490  0.00  0.00    +0.000 OA
ATOM     25  H   UNL     1       4.191   2.670  16.168  0.00  0.00    +0.000 HD
BRANCH  23  26
ATOM     26  C   UNL     1       6.147   4.230  16.114  0.00  0.00    +0.000 A 
ATOM     27  N   UNL     1       5.769   3.578  14.976  0.00  0.00    +0.000 NA
ATOM     28  C   UNL     1       6.399   4.018  13.864  0.00  0.00    +0.000 A 
ATOM     29 CL   UNL     1       5.904   3.213  12.428  0.00  0.00    +0.000 Cl
ATOM     30  C   UNL     1       7.380   5.023  13.867  0.00  0.00    +0.000 A 
ATOM     31  N   UNL     1       7.958   5.540  12.711  0.00  0.00    +0.000 N 
ATOM     32  N   UNL     1       7.743   5.632  15.019  0.00  0.00    +0.000 NA
ATOM     33  C   UNL     1       7.120   5.240  16.153  0.00  0.00    +0.000 A 
ATOM     34  H   UNL     1       8.243   4.840  12.035  0.00  0.00    +0.000 HD
ATOM     35  H   UNL     1       8.697   6.186  12.975  0.00  0.00    +0.000 HD
BRANCH  33  36
ATOM     36  N   UNL     1       7.419   5.994  17.280  0.00  0.00    +0.000 N 
ATOM     37  H   UNL     1       7.330   5.434  18.122  0.00  0.00    +0.000 HD
ATOM     38  H   UNL     1       6.935   6.888  17.316  0.00  0.00    +0.000 HD
ENDBRANCH  33  36
ENDBRANCH  23  26
ENDBRANCH  21  22
ENDBRANCH  20  21
ENDBRANCH   2  20
TORSDOF 13
ENDMDL
MODEL 8
REMARK VINA RESULT:      -7.1      2.919      3.495
REMARK  Name = 
REMARK  15 active torsions:
REMARK  status: ('A' for Active; 'I' for Inactive)
REMARK    1  A    between atoms: C_1  and  N_2
REMARK    2  A    between atoms: N_2  and  C_3
REMARK    3  A    between atoms: N_2  and  C_4
REMARK    4  A    between atoms: N_2  and  C_19
REMARK    5  A    between atoms: C_4  and  C_5
REMARK    6  A    between atoms: C_5  and  C_6
REMARK    7  A    between atoms: C_6  and  C_7
REMARK    8  A    between atoms: C_7  and  N_8
REMARK    9  A    between atoms: C_9  and  C_11
REMARK   10  A    between atoms: C_11  and  C_12
REMARK   11  A    between atoms: C_12  and  C_13
REMARK   12  A    between atoms: C_19  and  C_20
REMARK   13  A    between atoms: C_20  and  N_21
REMARK   14  A    between atoms: C_22  and  C_24
REMARK   15  A    between atoms: C_31  and  N_32
REMARK                            x       y       z     vdW  Elec       q    Type
REMARK                         _______ _______ _______ _____ _____    ______ ____
ROOT
ATOM      1  C   UNL     1       2.017   3.263  21.777  0.00  0.00    +0.000 C 
ATOM      2  N   UNL     1       2.016   3.388  20.252  0.00  0.00    +0.000 N 
ATOM      3  C   UNL     1       1.219   2.255  19.622  0.00  0.00    +0.000 C 
ENDROOT
BRANCH   2   4
ATOM      4  C   UNL     1       1.426   4.769  19.836  0.00  0.00    +0.000 C 
BRANCH   4   5
ATOM      5  C   UNL     1       2.409   5.918  20.054  0.00  0.00    +0.000 C 
BRANCH   5   6
ATOM      6  C   UNL     1       1.810   7.051  20.883  0.00  0.00    +0.000 C 
BRANCH   6   7
ATOM      7  C   UNL     1       1.579   8.269  19.988  0.00  0.00    +0.000 C 
BRANCH   7   8
ATOM      8  N   UNL     1       1.094   9.397  20.737  0.00  0.00    +0.000 N 
ATOM      9  C   UNL     1       0.640  10.528  20.094  0.00  0.00    +0.000 C 
ATOM     10  O   UNL     1       0.650  10.645  18.873  0.00  0.00    +0.000 OA
ATOM     11  H   UNL     1       1.031   9.338  21.747  0.00  0.00    +0.000 HD
BRANCH   9  12
ATOM     12  C   UNL     1       0.158  11.601  21.040  0.00  0.00    +0.000 C 
BRANCH  12  13
ATOM     13  C   UNL     1      -0.872  11.036  22.009  0.00  0.00    +0.000 C 
BRANCH  13  14
ATOM     14  C   UNL     1      -1.523  12.137  22.803  0.00  0.00    +0.000 A 
ATOM     15  C   UNL     1      -2.828  11.978  23.287  0.00  0.00    +0.000 A 
ATOM     16  C   UNL     1      -3.453  13.012  23.979  0.00  0.00    +0.000 A 
ATOM     17  C   UNL     1      -2.785  14.217  24.190  0.00  0.00    +0.000 A 
ATOM     18  C   UNL     1      -1.486  14.383  23.716  0.00  0.00    +0.000 A 
ATOM     19  C   UNL     1      -0.854  13.348  23.025  0.00  0.00    +0.000 A 
ENDBRANCH  13  14
ENDBRANCH  12  13
ENDBRANCH   9  12
ENDBRANCH   7   8
ENDBRANCH   6   7
ENDBRANCH   5   6
ENDBRANCH   4   5
ENDBRANCH   2   4
BRANCH   2  20
ATOM     20  C   UNL     1       3.483   3.363  19.732  0.00  0.00    +0.000 C 
BRANCH  20  21
ATOM     21  C   UNL     1       3.759   2.324  18.619  0.00  0.00    +0.000 C 
BRANCH  21  22
ATOM     22  N   UNL     1       4.678   2.818  17.620  0.00  0.00    +0.000 N 
ATOM     23  C   UNL     1       4.342   3.895  16.817  0.00  0.00    +0.000 C 
ATOM     24  O   UNL     1       3.235   4.419  16.880  0.00  0.00    +0.000 OA
ATOM     25  H   UNL     1       5.665   2.557  17.630  0.00  0.00    +0.000 HD
BRANCH  23  26
ATOM     26  C   UNL     1       5.433   4.355  15.905  0.00  0.00    +0.000 A 
ATOM     27  N   UNL     1       5.404   3.803  14.657  0.00  0.00    +0.000 NA
ATOM     28  C   UNL     1       6.383   4.252  13.841  0.00  0.00    +0.000 A 
ATOM     29 CL   UNL     1       6.329   3.574  12.262  0.00  0.00    +0.000 Cl
ATOM     30  C   UNL     1       7.368   5.171  14.235  0.00  0.00    +0.000 A 
ATOM     31  N   UNL     1       8.317   5.705  13.367  0.00  0.00    +0.000 N 
ATOM     32  N   UNL     1       7.377   5.682  15.487  0.00  0.00    +0.000 NA
ATOM     33  C   UNL     1       6.401   5.278  16.330  0.00  0.00    +0.000 A 
ATOM     34  H   UNL     1       8.763   5.024  12.762  0.00  0.00    +0.000 HD
ATOM     35  H   UNL     1       8.969   6.272  13.903  0.00  0.00    +0.000 HD
BRANCH  33  36
ATOM     36  N   UNL     1       6.366   5.939  17.552  0.00  0.00    +0.000 N 
ATOM     37  H   UNL     1       6.486   5.286  18.319  0.00  0.00    +0.000 HD
ATOM     38  H   UNL     1       5.572   6.567  17.655  0.00  0.00    +0.000 HD
ENDBRANCH  33  36
ENDBRANCH  23  26
ENDBRANCH  21  22
ENDBRANCH  20  21
ENDBRANCH   2  20
TORSDOF 13
ENDMDL
MODEL 9
REMARK VINA RESULT:      -7.1      5.057      9.521
REMARK  Name = 
REMARK  15 active torsions:
REMARK  status: ('A' for Active; 'I' for Inactive)
REMARK    1  A    between atoms: C_1  and  N_2
REMARK    2  A    between atoms: N_2  and  C_3
REMARK    3  A    between atoms: N_2  and  C_4
REMARK    4  A    between atoms: N_2  and  C_19
REMARK    5  A    between atoms: C_4  and  C_5
REMARK    6  A    between atoms: C_5  and  C_6
REMARK    7  A    between atoms: C_6  and  C_7
REMARK    8  A    between atoms: C_7  and  N_8
REMARK    9  A    between atoms: C_9  and  C_11
REMARK   10  A    between atoms: C_11  and  C_12
REMARK   11  A    between atoms: C_12  and  C_13
REMARK   12  A    between atoms: C_19  and  C_20
REMARK   13  A    between atoms: C_20  and  N_21
REMARK   14  A    between atoms: C_22  and  C_24
REMARK   15  A    between atoms: C_31  and  N_32
REMARK                            x       y       z     vdW  Elec       q    Type
REMARK                         _______ _______ _______ _____ _____    ______ ____
ROOT
ATOM      1  C   UNL     1       1.805   4.644  17.942  0.00  0.00    +0.000 C 
ATOM      2  N   UNL     1       2.289   5.106  19.317  0.00  0.00    +0.000 N 
ATOM      3  C   UNL     1       1.241   4.813  20.381  0.00  0.00    +0.000 C 
ENDROOT
BRANCH   2   4
ATOM      4  C   UNL     1       3.635   4.404  19.666  0.00  0.00    +0.000 C 
BRANCH   4   5
ATOM      5  C   UNL     1       4.763   4.784  18.708  0.00  0.00    +0.000 C 
BRANCH   5   6
ATOM      6  C   UNL     1       5.965   5.384  19.429  0.00  0.00    +0.000 C 
BRANCH   6   7
ATOM      7  C   UNL     1       7.166   5.411  18.482  0.00  0.00    +0.000 C 
BRANCH   7   8
ATOM      8  N   UNL     1       7.792   6.706  18.453  0.00  0.00    +0.000 N 
ATOM      9  C   UNL     1       7.349   7.684  17.589  0.00  0.00    +0.000 C 
ATOM     10  O   UNL     1       6.434   7.500  16.793  0.00  0.00    +0.000 OA
ATOM     11  H   UNL     1       8.529   6.921  19.114  0.00  0.00    +0.000 HD
BRANCH   9  12
ATOM     12  C   UNL     1       8.115   8.979  17.708  0.00  0.00    +0.000 C 
BRANCH  12  13
ATOM     13  C   UNL     1       8.854   9.043  19.037  0.00  0.00    +0.000 C 
BRANCH  13  14
ATOM     14  C   UNL     1       9.435  10.413  19.265  0.00  0.00    +0.000 A 
ATOM     15  C   UNL     1       9.507  10.940  20.561  0.00  0.00    +0.000 A 
ATOM     16  C   UNL     1       9.998  12.227  20.770  0.00  0.00    +0.000 A 
ATOM     17  C   UNL     1      10.415  13.002  19.690  0.00  0.00    +0.000 A 
ATOM     18  C   UNL     1      10.349  12.484  18.398  0.00  0.00    +0.000 A 
ATOM     19  C   UNL     1       9.863  11.194  18.183  0.00  0.00    +0.000 A 
ENDBRANCH  13  14
ENDBRANCH  12  13
ENDBRANCH   9  12
ENDBRANCH   7   8
ENDBRANCH   6   7
ENDBRANCH   5   6
ENDBRANCH   4   5
ENDBRANCH   2   4
BRANCH   2  20
ATOM     20  C   UNL     1       2.590   6.633  19.271  0.00  0.00    +0.000 C 
BRANCH  20  21
ATOM     21  C   UNL     1       1.994   7.447  20.445  0.00  0.00    +0.000 C 
BRANCH  21  22
ATOM     22  N   UNL     1       1.528   8.749  20.032  0.00  0.00    +0.000 N 
ATOM     23  C   UNL     1       0.338   9.265  20.519  0.00  0.00    +0.000 C 
ATOM     24  O   UNL     1      -0.386   8.611  21.261  0.00  0.00    +0.000 OA
ATOM     25  H   UNL     1       2.148   9.416  19.569  0.00  0.00    +0.000 HD
BRANCH  23  26
ATOM     26  C   UNL     1       0.041  10.664  20.082  0.00  0.00    +0.000 A 
ATOM     27  N   UNL     1       0.196  11.609  21.054  0.00  0.00    +0.000 NA
ATOM     28  C   UNL     1      -0.052  12.869  20.631  0.00  0.00    +0.000 A 
ATOM     29 CL   UNL     1       0.168  14.061  21.850  0.00  0.00    +0.000 Cl
ATOM     30  C   UNL     1      -0.468  13.188  19.329  0.00  0.00    +0.000 A 
ATOM     31  N   UNL     1      -0.631  14.492  18.869  0.00  0.00    +0.000 N 
ATOM     32  N   UNL     1      -0.631  12.221  18.397  0.00  0.00    +0.000 NA
ATOM     33  C   UNL     1      -0.369  10.948  18.771  0.00  0.00    +0.000 A 
ATOM     34  H   UNL     1      -1.132  15.102  19.505  0.00  0.00    +0.000 HD
ATOM     35  H   UNL     1      -1.021  14.462  17.931  0.00  0.00    +0.000 HD
BRANCH  33  36
ATOM     36  N   UNL     1      -0.408  10.013  17.745  0.00  0.00    +0.000 N 
ATOM     37  H   UNL     1       0.363   9.358  17.824  0.00  0.00    +0.000 HD
ATOM     38  H   UNL     1      -0.519  10.423  16.820  0.00  0.00    +0.000 HD
ENDBRANCH  33  36
ENDBRANCH  23  26
ENDBRANCH  21  22
ENDBRANCH  20  21
ENDBRANCH   2  20
TORSDOF 13
ENDMDL
