MODEL 1
REMARK VINA RESULT:      -7.1      0.000      0.000
REMARK  Name = 
REMARK  5 active torsions:
REMARK  status: ('A' for Active; 'I' for Inactive)
REMARK    1  A    between atoms: C_1  and  C_2
REMARK    2  A    between atoms: C_2  and  N_3
REMARK    3  A    between atoms: C_6  and  C_7
REMARK    4  A    between atoms: N_13  and  C_14
REMARK    5  A    between atoms: C_14  and  C_15
REMARK                            x       y       z     vdW  Elec       q    Type
REMARK                         _______ _______ _______ _____ _____    ______ ____
ROOT
ATOM      1  C   UNL     1       2.574   7.753  18.080  0.00  0.00    +0.000 C 
ATOM      2  O   UNL     1       3.188   8.244  17.131  0.00  0.00    +0.000 OA
ATOM      3  N   UNL     1       1.722   8.510  18.899  0.00  0.00    +0.000 N 
ATOM      4  C   UNL     1       1.505   9.903  18.498  0.00  0.00    +0.000 C 
ATOM      5  C   UNL     1       0.064  10.410  18.487  0.00  0.00    +0.000 C 
ATOM      6  C   UNL     1      -0.901  10.080  19.627  0.00  0.00    +0.000 C 
ATOM      7  N   UNL     1      -0.401   9.702  20.946  0.00  0.00    +0.000 NA
ATOM      8  C   UNL     1       0.203   8.361  20.920  0.00  0.00    +0.000 C 
ATOM      9  C   UNL     1       1.627   8.250  20.346  0.00  0.00    +0.000 C 
ENDROOT
BRANCH   1  13
ATOM     10  N   UNL     1       3.225   3.587  18.891  0.00  0.00    +0.000 N 
ATOM     11  C   UNL     1       4.173   4.530  19.247  0.00  0.00    +0.000 A 
ATOM     12  C   UNL     1       3.970   5.831  19.015  0.00  0.00    +0.000 A 
ATOM     13  C   UNL     1       2.756   6.283  18.357  0.00  0.00    +0.000 A 
ATOM     14  C   UNL     1       1.884   5.371  17.902  0.00  0.00    +0.000 A 
ATOM     15  C   UNL     1       2.034   3.941  18.263  0.00  0.00    +0.000 A 
ATOM     16  O   UNL     1       1.115   3.168  18.007  0.00  0.00    +0.000 OA
BRANCH  10  18
ATOM     17  C   UNL     1       4.539   2.011  20.273  0.00  0.00    +0.000 C 
ATOM     18  C   UNL     1       3.438   2.183  19.238  0.00  0.00    +0.000 C 
ENDBRANCH  10  18
ENDBRANCH   1  13
BRANCH   7  19
ATOM     19  C   UNL     1       0.450  10.686  21.621  0.00  0.00    +0.000 C 
BRANCH  19  20
ATOM     20  C   UNL     1      -0.233  11.960  22.029  0.00  0.00    +0.000 A 
ATOM     21  C   UNL     1       0.122  13.194  21.467  0.00  0.00    +0.000 A 
ATOM     22  C   UNL     1      -0.568  14.354  21.817  0.00  0.00    +0.000 A 
ATOM     23  C   UNL     1      -1.625  14.297  22.733  0.00  0.00    +0.000 A 
ATOM     24  C   UNL     1      -1.991  13.077  23.296  0.00  0.00    +0.000 A 
ATOM     25  C   UNL     1      -1.295  11.925  22.942  0.00  0.00    +0.000 A 
ATOM     26  F   UNL     1      -1.671  10.757  23.487  0.00  0.00    +0.000 F 
ENDBRANCH  19  20
ENDBRANCH   7  19
TORSDOF 4
ENDMDL
MODEL 2
REMARK VINA RESULT:      -7.0      1.044      1.445
REMARK  Name = 
REMARK  5 active torsions:
REMARK  status: ('A' for Active; 'I' for Inactive)
REMARK    1  A    between atoms: C_1  and  C_2
REMARK    2  A    between atoms: C_2  and  N_3
REMARK    3  A    between atoms: C_6  and  C_7
REMARK    4  A    between atoms: N_13  and  C_14
REMARK    5  A    between atoms: C_14  and  C_15
REMARK                            x       y       z     vdW  Elec       q    Type
REMARK                         _______ _______ _______ _____ _____    ______ ____
ROOT
ATOM      1  C   UNL     1       2.688   7.743  18.080  0.00  0.00    +0.000 C 
ATOM      2  O   UNL     1       3.207   8.198  17.059  0.00  0.00    +0.000 OA
ATOM      3  N   UNL     1       1.811   8.493  18.879  0.00  0.00    +0.000 N 
ATOM      4  C   UNL     1       1.446   9.819  18.373  0.00  0.00    +0.000 C 
ATOM      5  C   UNL     1      -0.035  10.193  18.401  0.00  0.00    +0.000 C 
ATOM      6  C   UNL     1      -0.907   9.884  19.620  0.00  0.00    +0.000 C 
ATOM      7  N   UNL     1      -0.310   9.672  20.935  0.00  0.00    +0.000 NA
ATOM      8  C   UNL     1       0.414   8.393  20.989  0.00  0.00    +0.000 C 
ATOM      9  C   UNL     1       1.812   8.357  20.346  0.00  0.00    +0.000 C 
ENDROOT
BRANCH   1  13
ATOM     10  N   UNL     1       3.503   3.681  19.210  0.00  0.00    +0.000 N 
ATOM     11  C   UNL     1       2.218   4.077  18.885  0.00  0.00    +0.000 A 
ATOM     12  C   UNL     1       1.958   5.335  18.513  0.00  0.00    +0.000 A 
ATOM     13  C   UNL     1       3.020   6.326  18.470  0.00  0.00    +0.000 A 
ATOM     14  C   UNL     1       4.246   5.985  18.894  0.00  0.00    +0.000 A 
ATOM     15  C   UNL     1       4.575   4.569  19.185  0.00  0.00    +0.000 A 
ATOM     16  O   UNL     1       5.749   4.262  19.370  0.00  0.00    +0.000 OA
BRANCH  10  18
ATOM     17  C   UNL     1       3.568   1.374  18.319  0.00  0.00    +0.000 C 
ATOM     18  C   UNL     1       3.768   2.279  19.525  0.00  0.00    +0.000 C 
ENDBRANCH  10  18
ENDBRANCH   1  13
BRANCH   7  19
ATOM     19  C   UNL     1       0.478  10.785  21.474  0.00  0.00    +0.000 C 
BRANCH  19  20
ATOM     20  C   UNL     1      -0.312  11.983  21.914  0.00  0.00    +0.000 A 
ATOM     21  C   UNL     1      -0.144  13.236  21.307  0.00  0.00    +0.000 A 
ATOM     22  C   UNL     1      -0.933  14.319  21.692  0.00  0.00    +0.000 A 
ATOM     23  C   UNL     1      -1.904  14.166  22.688  0.00  0.00    +0.000 A 
ATOM     24  C   UNL     1      -2.084  12.927  23.297  0.00  0.00    +0.000 A 
ATOM     25  C   UNL     1      -1.291  11.851  22.908  0.00  0.00    +0.000 A 
ATOM     26  F   UNL     1      -1.489  10.662  23.498  0.00  0.00    +0.000 F 
ENDBRANCH  19  20
ENDBRANCH   7  19
TORSDOF 4
ENDMDL
MODEL 3
REMARK VINA RESULT:      -7.0      3.488      8.795
REMARK  Name = 
REMARK  5 active torsions:
REMARK  status: ('A' for Active; 'I' for Inactive)
REMARK    1  A    between atoms: C_1  and  C_2
REMARK    2  A    between atoms: C_2  and  N_3
REMARK    3  A    between atoms: C_6  and  C_7
REMARK    4  A    between atoms: N_13  and  C_14
REMARK    5  A    between atoms: C_14  and  C_15
REMARK                            x       y       z     vdW  Elec       q    Type
REMARK                         _______ _______ _______ _____ _____    ______ ____
ROOT
ATOM      1  C   UNL     1       1.005   8.545  20.984  0.00  0.00    +0.000 C 
ATOM      2  O   UNL     1       0.834   8.530  22.204  0.00  0.00    +0.000 OA
ATOM      3  N   UNL     1       1.586   7.472  20.291  0.00  0.00    +0.000 N 
ATOM      4  C   UNL     1       1.878   6.271  21.079  0.00  0.00    +0.000 C 
ATOM      5  C   UNL     1       1.451   4.928  20.490  0.00  0.00    +0.000 C 
ATOM      6  C   UNL     1       1.680   4.603  19.012  0.00  0.00    +0.000 C 
ATOM      7  N   UNL     1       2.696   5.310  18.238  0.00  0.00    +0.000 NA
ATOM      8  C   UNL     1       2.295   6.702  17.985  0.00  0.00    +0.000 C 
ATOM      9  C   UNL     1       2.479   7.701  19.141  0.00  0.00    +0.000 C 
ENDROOT
BRANCH   1  13
ATOM     10  N   UNL     1      -0.182  12.114  18.911  0.00  0.00    +0.000 N 
ATOM     11  C   UNL     1       0.785  12.162  19.900  0.00  0.00    +0.000 A 
ATOM     12  C   UNL     1       1.174  11.053  20.537  0.00  0.00    +0.000 A 
ATOM     13  C   UNL     1       0.568   9.770  20.224  0.00  0.00    +0.000 A 
ATOM     14  C   UNL     1      -0.451   9.727  19.352  0.00  0.00    +0.000 A 
ATOM     15  C   UNL     1      -0.804  10.923  18.548  0.00  0.00    +0.000 A 
ATOM     16  O   UNL     1      -1.598  10.796  17.620  0.00  0.00    +0.000 OA
BRANCH  10  18
ATOM     17  C   UNL     1      -0.112  14.586  18.925  0.00  0.00    +0.000 C 
ATOM     18  C   UNL     1      -0.520  13.328  18.173  0.00  0.00    +0.000 C 
ENDBRANCH  10  18
ENDBRANCH   1  13
BRANCH   7  19
ATOM     19  C   UNL     1       4.073   5.205  18.729  0.00  0.00    +0.000 C 
BRANCH  19  20
ATOM     20  C   UNL     1       5.101   4.837  17.698  0.00  0.00    +0.000 A 
ATOM     21  C   UNL     1       4.736   4.472  16.396  0.00  0.00    +0.000 A 
ATOM     22  C   UNL     1       5.711   4.195  15.439  0.00  0.00    +0.000 A 
ATOM     23  C   UNL     1       7.068   4.280  15.770  0.00  0.00    +0.000 A 
ATOM     24  C   UNL     1       7.446   4.645  17.060  0.00  0.00    +0.000 A 
ATOM     25  C   UNL     1       6.465   4.918  18.009  0.00  0.00    +0.000 A 
ATOM     26  F   UNL     1       6.851   5.280  19.242  0.00  0.00    +0.000 F 
ENDBRANCH  19  20
ENDBRANCH   7  19
TORSDOF 4
ENDMDL
MODEL 4
REMARK VINA RESULT:      -6.9      0.951      1.340
REMARK  Name = 
REMARK  5 active torsions:
REMARK  status: ('A' for Active; 'I' for Inactive)
REMARK    1  A    between atoms: C_1  and  C_2
REMARK    2  A    between atoms: C_2  and  N_3
REMARK    3  A    between atoms: C_6  and  C_7
REMARK    4  A    between atoms: N_13  and  C_14
REMARK    5  A    between atoms: C_14  and  C_15
REMARK                            x       y       z     vdW  Elec       q    Type
REMARK                         _______ _______ _______ _____ _____    ______ ____
ROOT
ATOM      1  C   UNL     1       2.587   7.768  18.037  0.00  0.00    +0.000 C 
ATOM      2  O   UNL     1       3.171   8.288  17.085  0.00  0.00    +0.000 OA
ATOM      3  N   UNL     1       1.739   8.493  18.888  0.00  0.00    +0.000 N 
ATOM      4  C   UNL     1       1.486   9.888  18.519  0.00  0.00    +0.000 C 
ATOM      5  C   UNL     1       0.036  10.367  18.547  0.00  0.00    +0.000 C 
ATOM      6  C   UNL     1      -0.897   9.997  19.702  0.00  0.00    +0.000 C 
ATOM      7  N   UNL     1      -0.362   9.605  21.003  0.00  0.00    +0.000 NA
ATOM      8  C   UNL     1       0.268   8.277  20.938  0.00  0.00    +0.000 C 
ATOM      9  C   UNL     1       1.681   8.204  20.332  0.00  0.00    +0.000 C 
ENDROOT
BRANCH   1  13
ATOM     10  N   UNL     1       3.337   3.599  18.744  0.00  0.00    +0.000 N 
ATOM     11  C   UNL     1       4.308   4.546  19.018  0.00  0.00    +0.000 A 
ATOM     12  C   UNL     1       4.077   5.848  18.819  0.00  0.00    +0.000 A 
ATOM     13  C   UNL     1       2.804   6.297  18.281  0.00  0.00    +0.000 A 
ATOM     14  C   UNL     1       1.898   5.383  17.902  0.00  0.00    +0.000 A 
ATOM     15  C   UNL     1       2.090   3.951  18.234  0.00  0.00    +0.000 A 
ATOM     16  O   UNL     1       1.156   3.174  18.059  0.00  0.00    +0.000 OA
BRANCH  10  18
ATOM     17  C   UNL     1       4.452   2.032  20.299  0.00  0.00    +0.000 C 
ATOM     18  C   UNL     1       3.591   2.195  19.056  0.00  0.00    +0.000 C 
ENDBRANCH  10  18
ENDBRANCH   1  13
BRANCH   7  19
ATOM     19  C   UNL     1       0.485  10.593  21.678  0.00  0.00    +0.000 C 
BRANCH  19  20
ATOM     20  C   UNL     1      -0.177  11.903  21.994  0.00  0.00    +0.000 A 
ATOM     21  C   UNL     1      -1.214  11.993  22.931  0.00  0.00    +0.000 A 
ATOM     22  C   UNL     1      -1.772  13.230  23.253  0.00  0.00    +0.000 A 
ATOM     23  C   UNL     1      -1.298  14.397  22.642  0.00  0.00    +0.000 A 
ATOM     24  C   UNL     1      -0.265  14.323  21.711  0.00  0.00    +0.000 A 
ATOM     25  C   UNL     1       0.284  13.083  21.395  0.00  0.00    +0.000 A 
ATOM     26  F   UNL     1       1.287  13.035  20.505  0.00  0.00    +0.000 F 
ENDBRANCH  19  20
ENDBRANCH   7  19
TORSDOF 4
ENDMDL
MODEL 5
REMARK VINA RESULT:      -6.9      1.393      1.955
REMARK  Name = 
REMARK  5 active torsions:
REMARK  status: ('A' for Active; 'I' for Inactive)
REMARK    1  A    between atoms: C_1  and  C_2
REMARK    2  A    between atoms: C_2  and  N_3
REMARK    3  A    between atoms: C_6  and  C_7
REMARK    4  A    between atoms: N_13  and  C_14
REMARK    5  A    between atoms: C_14  and  C_15
REMARK                            x       y       z     vdW  Elec       q    Type
REMARK                         _______ _______ _______ _____ _____    ______ ____
ROOT
ATOM      1  C   UNL     1       2.683   7.760  18.075  0.00  0.00    +0.000 C 
ATOM      2  O   UNL     1       3.197   8.216  17.052  0.00  0.00    +0.000 OA
ATOM      3  N   UNL     1       1.807   8.507  18.878  0.00  0.00    +0.000 N 
ATOM      4  C   UNL     1       1.437   9.833  18.374  0.00  0.00    +0.000 C 
ATOM      5  C   UNL     1      -0.044  10.204  18.408  0.00  0.00    +0.000 C 
ATOM      6  C   UNL     1      -0.911   9.893  19.629  0.00  0.00    +0.000 C 
ATOM      7  N   UNL     1      -0.308   9.682  20.943  0.00  0.00    +0.000 NA
ATOM      8  C   UNL     1       0.419   8.405  20.993  0.00  0.00    +0.000 C 
ATOM      9  C   UNL     1       1.815   8.372  20.345  0.00  0.00    +0.000 C 
ENDROOT
BRANCH   1  13
ATOM     10  N   UNL     1       3.511   3.699  19.202  0.00  0.00    +0.000 N 
ATOM     11  C   UNL     1       2.223   4.094  18.887  0.00  0.00    +0.000 A 
ATOM     12  C   UNL     1       1.959   5.351  18.516  0.00  0.00    +0.000 A 
ATOM     13  C   UNL     1       3.019   6.343  18.464  0.00  0.00    +0.000 A 
ATOM     14  C   UNL     1       4.249   6.004  18.879  0.00  0.00    +0.000 A 
ATOM     15  C   UNL     1       4.582   4.588  19.168  0.00  0.00    +0.000 A 
ATOM     16  O   UNL     1       5.757   4.282  19.345  0.00  0.00    +0.000 OA
BRANCH  10  18
ATOM     17  C   UNL     1       3.536   1.387  18.322  0.00  0.00    +0.000 C 
ATOM     18  C   UNL     1       3.779   2.298  19.516  0.00  0.00    +0.000 C 
ENDBRANCH  10  18
ENDBRANCH   1  13
BRANCH   7  19
ATOM     19  C   UNL     1       0.480  10.796  21.478  0.00  0.00    +0.000 C 
BRANCH  19  20
ATOM     20  C   UNL     1      -0.315  11.957  22.003  0.00  0.00    +0.000 A 
ATOM     21  C   UNL     1      -1.395  11.771  22.877  0.00  0.00    +0.000 A 
ATOM     22  C   UNL     1      -2.079  12.867  23.400  0.00  0.00    +0.000 A 
ATOM     23  C   UNL     1      -1.692  14.168  23.056  0.00  0.00    +0.000 A 
ATOM     24  C   UNL     1      -0.619  14.369  22.192  0.00  0.00    +0.000 A 
ATOM     25  C   UNL     1       0.057  13.267  21.674  0.00  0.00    +0.000 A 
ATOM     26  F   UNL     1       1.096  13.482  20.852  0.00  0.00    +0.000 F 
ENDBRANCH  19  20
ENDBRANCH   7  19
TORSDOF 4
ENDMDL
MODEL 6
REMARK VINA RESULT:      -6.8      3.576      8.746
REMARK  Name = 
REMARK  5 active torsions:
REMARK  status: ('A' for Active; 'I' for Inactive)
REMARK    1  A    between atoms: C_1  and  C_2
REMARK    2  A    between atoms: C_2  and  N_3
REMARK    3  A    between atoms: C_6  and  C_7
REMARK    4  A    between atoms: N_13  and  C_14
REMARK    5  A    between atoms: C_14  and  C_15
REMARK                            x       y       z     vdW  Elec       q    Type
REMARK                         _______ _______ _______ _____ _____    ______ ____
ROOT
ATOM      1  C   UNL     1       1.038   8.559  21.009  0.00  0.00    +0.000 C 
ATOM      2  O   UNL     1       0.897   8.541  22.233  0.00  0.00    +0.000 OA
ATOM      3  N   UNL     1       1.580   7.479  20.296  0.00  0.00    +0.000 N 
ATOM      4  C   UNL     1       1.867   6.268  21.071  0.00  0.00    +0.000 C 
ATOM      5  C   UNL     1       1.399   4.938  20.485  0.00  0.00    +0.000 C 
ATOM      6  C   UNL     1       1.585   4.616  19.001  0.00  0.00    +0.000 C 
ATOM      7  N   UNL     1       2.596   5.307  18.205  0.00  0.00    +0.000 NA
ATOM      8  C   UNL     1       2.217   6.709  17.969  0.00  0.00    +0.000 C 
ATOM      9  C   UNL     1       2.449   7.697  19.126  0.00  0.00    +0.000 C 
ENDROOT
BRANCH   1  13
ATOM     10  N   UNL     1      -0.125  12.163  18.984  0.00  0.00    +0.000 N 
ATOM     11  C   UNL     1       0.878  12.183  19.936  0.00  0.00    +0.000 A 
ATOM     12  C   UNL     1       1.260  11.062  20.558  0.00  0.00    +0.000 A 
ATOM     13  C   UNL     1       0.608   9.798  20.266  0.00  0.00    +0.000 A 
ATOM     14  C   UNL     1      -0.443   9.784  19.432  0.00  0.00    +0.000 A 
ATOM     15  C   UNL     1      -0.792  10.990  18.643  0.00  0.00    +0.000 A 
ATOM     16  O   UNL     1      -1.622  10.887  17.744  0.00  0.00    +0.000 OA
BRANCH  10  18
ATOM     17  C   UNL     1      -0.336  14.623  19.139  0.00  0.00    +0.000 C 
ATOM     18  C   UNL     1      -0.456  13.388  18.259  0.00  0.00    +0.000 C 
ENDBRANCH  10  18
ENDBRANCH   1  13
BRANCH   7  19
ATOM     19  C   UNL     1       3.982   5.171  18.662  0.00  0.00    +0.000 C 
BRANCH  19  20
ATOM     20  C   UNL     1       5.015   5.083  17.576  0.00  0.00    +0.000 A 
ATOM     21  C   UNL     1       6.019   6.051  17.439  0.00  0.00    +0.000 A 
ATOM     22  C   UNL     1       7.003   5.915  16.461  0.00  0.00    +0.000 A 
ATOM     23  C   UNL     1       6.999   4.807  15.605  0.00  0.00    +0.000 A 
ATOM     24  C   UNL     1       6.009   3.836  15.732  0.00  0.00    +0.000 A 
ATOM     25  C   UNL     1       5.030   3.981  16.710  0.00  0.00    +0.000 A 
ATOM     26  F   UNL     1       4.092   3.028  16.824  0.00  0.00    +0.000 F 
ENDBRANCH  19  20
ENDBRANCH   7  19
TORSDOF 4
ENDMDL
MODEL 7
REMARK VINA RESULT:      -6.7      2.954      4.146
REMARK  Name = 
REMARK  5 active torsions:
REMARK  status: ('A' for Active; 'I' for Inactive)
REMARK    1  A    between atoms: C_1  and  C_2
REMARK    2  A    between atoms: C_2  and  N_3
REMARK    3  A    between atoms: C_6  and  C_7
REMARK    4  A    between atoms: N_13  and  C_14
REMARK    5  A    between atoms: C_14  and  C_15
REMARK                            x       y       z     vdW  Elec       q    Type
REMARK                         _______ _______ _______ _____ _____    ______ ____
ROOT
ATOM      1  C   UNL     1       3.194   5.996  19.199  0.00  0.00    +0.000 C 
ATOM      2  O   UNL     1       3.071   5.149  20.085  0.00  0.00    +0.000 OA
ATOM      3  N   UNL     1       2.416   7.164  19.159  0.00  0.00    +0.000 N 
ATOM      4  C   UNL     1       1.522   7.387  20.299  0.00  0.00    +0.000 C 
ATOM      5  C   UNL     1       1.523   8.780  20.925  0.00  0.00    +0.000 C 
ATOM      6  C   UNL     1       1.521  10.039  20.056  0.00  0.00    +0.000 C 
ATOM      7  N   UNL     1       1.051   9.996  18.674  0.00  0.00    +0.000 NA
ATOM      8  C   UNL     1       1.997   9.268  17.815  0.00  0.00    +0.000 C 
ATOM      9  C   UNL     1       1.957   7.731  17.879  0.00  0.00    +0.000 C 
ENDROOT
BRANCH   1  13
ATOM     10  N   UNL     1       6.076   5.176  16.123  0.00  0.00    +0.000 N 
ATOM     11  C   UNL     1       4.984   4.347  16.303  0.00  0.00    +0.000 A 
ATOM     12  C   UNL     1       4.071   4.605  17.246  0.00  0.00    +0.000 A 
ATOM     13  C   UNL     1       4.222   5.752  18.124  0.00  0.00    +0.000 A 
ATOM     14  C   UNL     1       5.334   6.497  18.038  0.00  0.00    +0.000 A 
ATOM     15  C   UNL     1       6.287   6.298  16.919  0.00  0.00    +0.000 A 
ATOM     16  O   UNL     1       7.181   7.123  16.751  0.00  0.00    +0.000 OA
BRANCH  10  18
ATOM     17  C   UNL     1       6.388   4.038  13.949  0.00  0.00    +0.000 C 
ATOM     18  C   UNL     1       7.006   4.915  15.027  0.00  0.00    +0.000 C 
ENDBRANCH  10  18
ENDBRANCH   1  13
BRANCH   7  19
ATOM     19  C   UNL     1      -0.334   9.558  18.476  0.00  0.00    +0.000 C 
BRANCH  19  20
ATOM     20  C   UNL     1      -1.389  10.557  18.856  0.00  0.00    +0.000 A 
ATOM     21  C   UNL     1      -1.161  11.524  19.844  0.00  0.00    +0.000 A 
ATOM     22  C   UNL     1      -2.133  12.480  20.136  0.00  0.00    +0.000 A 
ATOM     23  C   UNL     1      -3.348  12.484  19.441  0.00  0.00    +0.000 A 
ATOM     24  C   UNL     1      -3.587  11.532  18.454  0.00  0.00    +0.000 A 
ATOM     25  C   UNL     1      -2.611  10.580  18.171  0.00  0.00    +0.000 A 
ATOM     26  F   UNL     1      -2.856   9.679  17.207  0.00  0.00    +0.000 F 
ENDBRANCH  19  20
ENDBRANCH   7  19
TORSDOF 4
ENDMDL
MODEL 8
REMARK VINA RESULT:      -6.6      3.455      8.728
REMARK  Name = 
REMARK  5 active torsions:
REMARK  status: ('A' for Active; 'I' for Inactive)
REMARK    1  A    between atoms: C_1  and  C_2
REMARK    2  A    between atoms: C_2  and  N_3
REMARK    3  A    between atoms: C_6  and  C_7
REMARK    4  A    between atoms: N_13  and  C_14
REMARK    5  A    between atoms: C_14  and  C_15
REMARK                            x       y       z     vdW  Elec       q    Type
REMARK                         _______ _______ _______ _____ _____    ______ ____
ROOT
ATOM      1  C   UNL     1       1.229   7.865  21.001  0.00  0.00    +0.000 C 
ATOM      2  O   UNL     1       0.880   7.744  22.177  0.00  0.00    +0.000 OA
ATOM      3  N   UNL     1       1.682   6.782  20.233  0.00  0.00    +0.000 N 
ATOM      4  C   UNL     1       1.610   5.462  20.867  0.00  0.00    +0.000 C 
ATOM      5  C   UNL     1       1.018   4.322  20.041  0.00  0.00    +0.000 C 
ATOM      6  C   UNL     1       1.393   4.132  18.570  0.00  0.00    +0.000 C 
ATOM      7  N   UNL     1       2.632   4.689  18.034  0.00  0.00    +0.000 NA
ATOM      8  C   UNL     1       2.557   6.155  17.941  0.00  0.00    +0.000 C 
ATOM      9  C   UNL     1       2.762   6.947  19.245  0.00  0.00    +0.000 C 
ENDROOT
BRANCH   1  13
ATOM     10  N   UNL     1       1.073  11.722  19.119  0.00  0.00    +0.000 N 
ATOM     11  C   UNL     1       1.152  10.570  18.357  0.00  0.00    +0.000 A 
ATOM     12  C   UNL     1       1.182   9.364  18.934  0.00  0.00    +0.000 A 
ATOM     13  C   UNL     1       1.160   9.237  20.382  0.00  0.00    +0.000 A 
ATOM     14  C   UNL     1       1.200  10.348  21.133  0.00  0.00    +0.000 A 
ATOM     15  C   UNL     1       1.039  11.684  20.510  0.00  0.00    +0.000 A 
ATOM     16  O   UNL     1       0.875  12.659  21.238  0.00  0.00    +0.000 OA
BRANCH  10  18
ATOM     17  C   UNL     1       2.309  13.612  18.109  0.00  0.00    +0.000 C 
ATOM     18  C   UNL     1       0.952  13.018  18.455  0.00  0.00    +0.000 C 
ENDBRANCH  10  18
ENDBRANCH   1  13
BRANCH   7  19
ATOM     19  C   UNL     1       3.873   4.232  18.666  0.00  0.00    +0.000 C 
BRANCH  19  20
ATOM     20  C   UNL     1       5.102   4.306  17.806  0.00  0.00    +0.000 A 
ATOM     21  C   UNL     1       5.084   3.901  16.464  0.00  0.00    +0.000 A 
ATOM     22  C   UNL     1       6.221   4.036  15.669  0.00  0.00    +0.000 A 
ATOM     23  C   UNL     1       7.394   4.582  16.203  0.00  0.00    +0.000 A 
ATOM     24  C   UNL     1       7.426   4.992  17.533  0.00  0.00    +0.000 A 
ATOM     25  C   UNL     1       6.286   4.851  18.320  0.00  0.00    +0.000 A 
ATOM     26  F   UNL     1       6.333   5.264  19.596  0.00  0.00    +0.000 F 
ENDBRANCH  19  20
ENDBRANCH   7  19
TORSDOF 4
ENDMDL
MODEL 9
REMARK VINA RESULT:      -6.6      3.310      8.790
REMARK  Name = 
REMARK  5 active torsions:
REMARK  status: ('A' for Active; 'I' for Inactive)
REMARK    1  A    between atoms: C_1  and  C_2
REMARK    2  A    between atoms: C_2  and  N_3
REMARK    3  A    between atoms: C_6  and  C_7
REMARK    4  A    between atoms: N_13  and  C_14
REMARK    5  A    between atoms: C_14  and  C_15
REMARK                            x       y       z     vdW  Elec       q    Type
REMARK                         _______ _______ _______ _____ _____    ______ ____
ROOT
ATOM      1  C   UNL     1       1.162   8.120  20.945  0.00  0.00    +0.000 C 
ATOM      2  O   UNL     1       0.977   8.112  22.163  0.00  0.00    +0.000 OA
ATOM      3  N   UNL     1       1.661   7.007  20.250  0.00  0.00    +0.000 N 
ATOM      4  C   UNL     1       1.843   5.782  21.034  0.00  0.00    +0.000 C 
ATOM      5  C   UNL     1       1.314   4.482  20.430  0.00  0.00    +0.000 C 
ATOM      6  C   UNL     1       1.532   4.148  18.953  0.00  0.00    +0.000 C 
ATOM      7  N   UNL     1       2.611   4.773  18.194  0.00  0.00    +0.000 NA
ATOM      8  C   UNL     1       2.330   6.196  17.947  0.00  0.00    +0.000 C 
ATOM      9  C   UNL     1       2.582   7.169  19.112  0.00  0.00    +0.000 C 
ENDROOT
BRANCH   1  13
ATOM     10  N   UNL     1       0.102  11.692  18.809  0.00  0.00    +0.000 N 
ATOM     11  C   UNL     1      -0.830  11.038  19.595  0.00  0.00    +0.000 A 
ATOM     12  C   UNL     1      -0.504   9.936  20.279  0.00  0.00    +0.000 A 
ATOM     13  C   UNL     1       0.836   9.382  20.189  0.00  0.00    +0.000 A 
ATOM     14  C   UNL     1       1.715   9.937  19.340  0.00  0.00    +0.000 A 
ATOM     15  C   UNL     1       1.408  11.227  18.677  0.00  0.00    +0.000 A 
ATOM     16  O   UNL     1       2.305  11.809  18.073  0.00  0.00    +0.000 OA
BRANCH  10  18
ATOM     17  C   UNL     1      -0.246  14.122  19.105  0.00  0.00    +0.000 C 
ATOM     18  C   UNL     1      -0.262  12.942  18.147  0.00  0.00    +0.000 C 
ENDBRANCH  10  18
ENDBRANCH   1  13
BRANCH   7  19
ATOM     19  C   UNL     1       3.970   4.552  18.700  0.00  0.00    +0.000 C 
BRANCH  19  20
ATOM     20  C   UNL     1       5.046   4.486  17.655  0.00  0.00    +0.000 A 
ATOM     21  C   UNL     1       4.772   4.066  16.346  0.00  0.00    +0.000 A 
ATOM     22  C   UNL     1       5.775   4.072  15.377  0.00  0.00    +0.000 A 
ATOM     23  C   UNL     1       7.067   4.500  15.703  0.00  0.00    +0.000 A 
ATOM     24  C   UNL     1       7.353   4.924  16.998  0.00  0.00    +0.000 A 
ATOM     25  C   UNL     1       6.346   4.913  17.959  0.00  0.00    +0.000 A 
ATOM     26  F   UNL     1       6.638   5.337  19.198  0.00  0.00    +0.000 F 
ENDBRANCH  19  20
ENDBRANCH   7  19
TORSDOF 4
ENDMDL
