MODEL 1
REMARK VINA RESULT:      -7.8      0.000      0.000
REMARK  Name = 
REMARK  10 active torsions:
REMARK  status: ('A' for Active; 'I' for Inactive)
REMARK    1  A    between atoms: C_1  and  O_2
REMARK    2  A    between atoms: O_2  and  C_3
REMARK    3  A    between atoms: C_3  and  C_5
REMARK    4  A    between atoms: C_7  and  S_8
REMARK    5  A    between atoms: S_8  and  N_11
REMARK    6  A    between atoms: N_11  and  C_12
REMARK    7  A    between atoms: C_12  and  C_13
REMARK    8  A    between atoms: C_16  and  S_17
REMARK    9  A    between atoms: S_17  and  N_18
REMARK   10  A    between atoms: C_24  and  C_25
REMARK                            x       y       z     vdW  Elec       q    Type
REMARK                         _______ _______ _______ _____ _____    ______ ____
ROOT
ATOM      1  N   UNL     1       1.943   4.192  19.708  0.00  0.00    +0.000 NA
ATOM      2  H   UNL     1       1.905   3.476  20.439  0.00  0.00    +0.000 HD
ENDROOT
BRANCH   1   3
ATOM      3  S   UNL     1       2.109   3.470  18.195  0.00  0.00    +0.000 S 
ATOM      4  O   UNL     1       1.186   4.079  17.264  0.00  0.00    +0.000 OA
ATOM      5  O   UNL     1       2.190   2.038  18.387  0.00  0.00    +0.000 OA
BRANCH   3   8
ATOM      6  C   UNL     1       5.917   4.486  17.308  0.00  0.00    +0.000 A 
ATOM      7  C   UNL     1       4.920   4.123  18.258  0.00  0.00    +0.000 A 
ATOM      8  C   UNL     1       3.732   3.912  17.579  0.00  0.00    +0.000 A 
ATOM      9  O   UNL     1       3.966   4.122  16.235  0.00  0.00    +0.000 OA
ATOM     10  C   UNL     1       5.279   4.457  16.081  0.00  0.00    +0.000 A 
ATOM     11  C   UNL     1       5.733   4.692  14.691  0.00  0.00    +0.000 C 
BRANCH   6  12
ATOM     12  C   UNL     1       7.313   4.807  17.547  0.00  0.00    +0.000 C 
ATOM     13  O   UNL     1       8.245   4.129  17.129  0.00  0.00    +0.000 OA
BRANCH  12  15
ATOM     14  C   UNL     1       7.473   7.150  17.547  0.00  0.00    +0.000 C 
ATOM     15  O   UNL     1       7.452   5.935  18.297  0.00  0.00    +0.000 OA
ENDBRANCH  12  15
ENDBRANCH   6  12
ENDBRANCH   3   8
ENDBRANCH   1   3
BRANCH   1  16
ATOM     16  C   UNL     1       2.932   5.240  19.991  0.00  0.00    +0.000 C 
BRANCH  16  17
ATOM     17  C   UNL     1       2.364   6.615  19.729  0.00  0.00    +0.000 A 
ATOM     18  C   UNL     1       2.554   7.225  18.481  0.00  0.00    +0.000 A 
ATOM     19  C   UNL     1       2.043   8.498  18.237  0.00  0.00    +0.000 A 
ATOM     20  C   UNL     1       1.329   9.159  19.237  0.00  0.00    +0.000 A 
ATOM     21  C   UNL     1       1.123   8.564  20.484  0.00  0.00    +0.000 A 
ATOM     22  C   UNL     1       1.636   7.289  20.724  0.00  0.00    +0.000 A 
BRANCH  20  23
ATOM     23  S   UNL     1       0.721  10.788  18.925  0.00  0.00    +0.000 S 
ATOM     24  O   UNL     1      -0.528  10.703  18.203  0.00  0.00    +0.000 OA
ATOM     25  O   UNL     1       0.877  11.590  20.113  0.00  0.00    +0.000 OA
BRANCH  23  26
ATOM     26  N   UNL     1       1.859  11.356  17.828  0.00  0.00    +0.000 NA
ATOM     27  H   UNL     1       2.624  10.688  17.740  0.00  0.00    +0.000 HD
ATOM     28  H   UNL     1       1.407  11.599  16.948  0.00  0.00    +0.000 HD
ENDBRANCH  23  26
ENDBRANCH  20  23
ENDBRANCH  16  17
ENDBRANCH   1  16
TORSDOF 8
ENDMDL
MODEL 2
REMARK VINA RESULT:      -7.8      1.047      1.221
REMARK  Name = 
REMARK  10 active torsions:
REMARK  status: ('A' for Active; 'I' for Inactive)
REMARK    1  A    between atoms: C_1  and  O_2
REMARK    2  A    between atoms: O_2  and  C_3
REMARK    3  A    between atoms: C_3  and  C_5
REMARK    4  A    between atoms: C_7  and  S_8
REMARK    5  A    between atoms: S_8  and  N_11
REMARK    6  A    between atoms: N_11  and  C_12
REMARK    7  A    between atoms: C_12  and  C_13
REMARK    8  A    between atoms: C_16  and  S_17
REMARK    9  A    between atoms: S_17  and  N_18
REMARK   10  A    between atoms: C_24  and  C_25
REMARK                            x       y       z     vdW  Elec       q    Type
REMARK                         _______ _______ _______ _____ _____    ______ ____
ROOT
ATOM      1  N   UNL     1       1.887   4.811  19.564  0.00  0.00    +0.000 NA
ATOM      2  H   UNL     1       1.468   4.594  20.472  0.00  0.00    +0.000 HD
ENDROOT
BRANCH   1   3
ATOM      3  S   UNL     1       2.452   3.403  18.831  0.00  0.00    +0.000 S 
ATOM      4  O   UNL     1       1.525   2.988  17.803  0.00  0.00    +0.000 OA
ATOM      5  O   UNL     1       2.913   2.509  19.872  0.00  0.00    +0.000 OA
BRANCH   3   8
ATOM      6  C   UNL     1       6.044   4.446  17.304  0.00  0.00    +0.000 A 
ATOM      7  C   UNL     1       5.213   4.137  18.418  0.00  0.00    +0.000 A 
ATOM      8  C   UNL     1       3.946   3.836  17.945  0.00  0.00    +0.000 A 
ATOM      9  O   UNL     1       3.972   3.938  16.568  0.00  0.00    +0.000 OA
ATOM     10  C   UNL     1       5.233   4.296  16.193  0.00  0.00    +0.000 A 
ATOM     11  C   UNL     1       5.467   4.424  14.736  0.00  0.00    +0.000 C 
BRANCH   6  12
ATOM     12  C   UNL     1       7.445   4.825  17.304  0.00  0.00    +0.000 C 
ATOM     13  O   UNL     1       8.341   4.105  17.731  0.00  0.00    +0.000 OA
BRANCH  12  15
ATOM     14  C   UNL     1       7.581   7.127  17.750  0.00  0.00    +0.000 C 
ATOM     15  O   UNL     1       7.633   6.072  16.789  0.00  0.00    +0.000 OA
ENDBRANCH  12  15
ENDBRANCH   6  12
ENDBRANCH   3   8
ENDBRANCH   1   3
BRANCH   1  16
ATOM     16  C   UNL     1       2.879   5.893  19.642  0.00  0.00    +0.000 C 
BRANCH  16  17
ATOM     17  C   UNL     1       2.228   7.246  19.477  0.00  0.00    +0.000 A 
ATOM     18  C   UNL     1       2.247   7.885  18.230  0.00  0.00    +0.000 A 
ATOM     19  C   UNL     1       1.659   9.137  18.073  0.00  0.00    +0.000 A 
ATOM     20  C   UNL     1       1.039   9.750  19.163  0.00  0.00    +0.000 A 
ATOM     21  C   UNL     1       1.004   9.126  20.412  0.00  0.00    +0.000 A 
ATOM     22  C   UNL     1       1.592   7.871  20.564  0.00  0.00    +0.000 A 
BRANCH  20  23
ATOM     23  S   UNL     1       0.333  11.356  18.958  0.00  0.00    +0.000 S 
ATOM     24  O   UNL     1       1.372  12.294  18.600  0.00  0.00    +0.000 OA
ATOM     25  O   UNL     1      -0.899  11.243  18.217  0.00  0.00    +0.000 OA
BRANCH  23  26
ATOM     26  N   UNL     1      -0.106  11.723  20.537  0.00  0.00    +0.000 NA
ATOM     27  H   UNL     1      -1.120  11.810  20.608  0.00  0.00    +0.000 HD
ATOM     28  H   UNL     1       0.306  11.050  21.181  0.00  0.00    +0.000 HD
ENDBRANCH  23  26
ENDBRANCH  20  23
ENDBRANCH  16  17
ENDBRANCH   1  16
TORSDOF 8
ENDMDL
MODEL 3
REMARK VINA RESULT:      -7.7      1.296      2.430
REMARK  Name = 
REMARK  10 active torsions:
REMARK  status: ('A' for Active; 'I' for Inactive)
REMARK    1  A    between atoms: C_1  and  O_2
REMARK    2  A    between atoms: O_2  and  C_3
REMARK    3  A    between atoms: C_3  and  C_5
REMARK    4  A    between atoms: C_7  and  S_8
REMARK    5  A    between atoms: S_8  and  N_11
REMARK    6  A    between atoms: N_11  and  C_12
REMARK    7  A    between atoms: C_12  and  C_13
REMARK    8  A    between atoms: C_16  and  S_17
REMARK    9  A    between atoms: S_17  and  N_18
REMARK   10  A    between atoms: C_24  and  C_25
REMARK                            x       y       z     vdW  Elec       q    Type
REMARK                         _______ _______ _______ _____ _____    ______ ____
ROOT
ATOM      1  N   UNL     1       2.260   4.065  19.301  0.00  0.00    +0.000 NA
ATOM      2  H   UNL     1       1.412   3.582  19.610  0.00  0.00    +0.000 HD
ENDROOT
BRANCH   1   3
ATOM      3  S   UNL     1       3.422   2.947  18.812  0.00  0.00    +0.000 S 
ATOM      4  O   UNL     1       2.819   1.979  17.924  0.00  0.00    +0.000 OA
ATOM      5  O   UNL     1       4.191   2.562  19.977  0.00  0.00    +0.000 OA
BRANCH   3   8
ATOM      6  C   UNL     1       5.924   4.619  16.117  0.00  0.00    +0.000 A 
ATOM      7  C   UNL     1       4.871   3.715  16.437  0.00  0.00    +0.000 A 
ATOM      8  C   UNL     1       4.600   3.827  17.791  0.00  0.00    +0.000 A 
ATOM      9  O   UNL     1       5.445   4.784  18.316  0.00  0.00    +0.000 OA
ATOM     10  C   UNL     1       6.228   5.258  17.306  0.00  0.00    +0.000 A 
ATOM     11  C   UNL     1       7.188   6.326  17.672  0.00  0.00    +0.000 C 
BRANCH   6  12
ATOM     12  C   UNL     1       6.549   4.852  14.828  0.00  0.00    +0.000 C 
ATOM     13  O   UNL     1       7.671   5.328  14.696  0.00  0.00    +0.000 OA
BRANCH  12  15
ATOM     14  C   UNL     1       6.321   3.586  12.864  0.00  0.00    +0.000 C 
ATOM     15  O   UNL     1       5.734   4.492  13.798  0.00  0.00    +0.000 OA
ENDBRANCH  12  15
ENDBRANCH   6  12
ENDBRANCH   3   8
ENDBRANCH   1   3
BRANCH   1  16
ATOM     16  C   UNL     1       2.741   5.049  20.280  0.00  0.00    +0.000 C 
BRANCH  16  17
ATOM     17  C   UNL     1       2.308   6.448  19.908  0.00  0.00    +0.000 A 
ATOM     18  C   UNL     1       1.619   7.238  20.839  0.00  0.00    +0.000 A 
ATOM     19  C   UNL     1       1.207   8.525  20.499  0.00  0.00    +0.000 A 
ATOM     20  C   UNL     1       1.493   9.029  19.229  0.00  0.00    +0.000 A 
ATOM     21  C   UNL     1       2.184   8.258  18.291  0.00  0.00    +0.000 A 
ATOM     22  C   UNL     1       2.596   6.972  18.637  0.00  0.00    +0.000 A 
BRANCH  20  23
ATOM     23  S   UNL     1       0.929  10.647  18.800  0.00  0.00    +0.000 S 
ATOM     24  O   UNL     1      -0.327  10.544  18.092  0.00  0.00    +0.000 OA
ATOM     25  O   UNL     1       1.114  11.529  19.926  0.00  0.00    +0.000 OA
BRANCH  23  26
ATOM     26  N   UNL     1       2.074  11.100  17.660  0.00  0.00    +0.000 NA
ATOM     27  H   UNL     1       2.140  10.392  16.929  0.00  0.00    +0.000 HD
ATOM     28  H   UNL     1       1.879  12.040  17.321  0.00  0.00    +0.000 HD
ENDBRANCH  23  26
ENDBRANCH  20  23
ENDBRANCH  16  17
ENDBRANCH   1  16
TORSDOF 8
ENDMDL
MODEL 4
REMARK VINA RESULT:      -7.7      1.571      2.547
REMARK  Name = 
REMARK  10 active torsions:
REMARK  status: ('A' for Active; 'I' for Inactive)
REMARK    1  A    between atoms: C_1  and  O_2
REMARK    2  A    between atoms: O_2  and  C_3
REMARK    3  A    between atoms: C_3  and  C_5
REMARK    4  A    between atoms: C_7  and  S_8
REMARK    5  A    between atoms: S_8  and  N_11
REMARK    6  A    between atoms: N_11  and  C_12
REMARK    7  A    between atoms: C_12  and  C_13
REMARK    8  A    between atoms: C_16  and  S_17
REMARK    9  A    between atoms: S_17  and  N_18
REMARK   10  A    between atoms: C_24  and  C_25
REMARK                            x       y       z     vdW  Elec       q    Type
REMARK                         _______ _______ _______ _____ _____    ______ ____
ROOT
ATOM      1  N   UNL     1       2.312   5.222  19.377  0.00  0.00    +0.000 NA
ATOM      2  H   UNL     1       2.371   5.028  20.381  0.00  0.00    +0.000 HD
ENDROOT
BRANCH   1   3
ATOM      3  S   UNL     1       2.646   3.826  18.494  0.00  0.00    +0.000 S 
ATOM      4  O   UNL     1       1.670   3.678  17.438  0.00  0.00    +0.000 OA
ATOM      5  O   UNL     1       2.948   2.764  19.431  0.00  0.00    +0.000 OA
BRANCH   3   8
ATOM      6  C   UNL     1       5.878   4.359  16.131  0.00  0.00    +0.000 A 
ATOM      7  C   UNL     1       4.481   4.137  16.288  0.00  0.00    +0.000 A 
ATOM      8  C   UNL     1       4.197   4.102  17.643  0.00  0.00    +0.000 A 
ATOM      9  O   UNL     1       5.376   4.309  18.330  0.00  0.00    +0.000 OA
ATOM     10  C   UNL     1       6.375   4.470  17.417  0.00  0.00    +0.000 A 
ATOM     11  C   UNL     1       7.724   4.737  17.968  0.00  0.00    +0.000 C 
BRANCH   6  12
ATOM     12  C   UNL     1       6.640   4.466  14.899  0.00  0.00    +0.000 C 
ATOM     13  O   UNL     1       7.435   5.371  14.672  0.00  0.00    +0.000 OA
BRANCH  12  15
ATOM     14  C   UNL     1       6.470   3.798  12.654  0.00  0.00    +0.000 C 
ATOM     15  O   UNL     1       6.350   3.454  14.035  0.00  0.00    +0.000 OA
ENDBRANCH  12  15
ENDBRANCH   6  12
ENDBRANCH   3   8
ENDBRANCH   1   3
BRANCH   1  16
ATOM     16  C   UNL     1       3.104   6.394  18.979  0.00  0.00    +0.000 C 
BRANCH  16  17
ATOM     17  C   UNL     1       2.274   7.655  19.017  0.00  0.00    +0.000 A 
ATOM     18  C   UNL     1       1.674   8.063  20.217  0.00  0.00    +0.000 A 
ATOM     19  C   UNL     1       0.898   9.218  20.256  0.00  0.00    +0.000 A 
ATOM     20  C   UNL     1       0.727   9.976  19.096  0.00  0.00    +0.000 A 
ATOM     21  C   UNL     1       1.322   9.589  17.893  0.00  0.00    +0.000 A 
ATOM     22  C   UNL     1       2.101   8.432  17.859  0.00  0.00    +0.000 A 
BRANCH  20  23
ATOM     23  S   UNL     1      -0.293  11.417  19.153  0.00  0.00    +0.000 S 
ATOM     24  O   UNL     1      -1.288  11.258  20.189  0.00  0.00    +0.000 OA
ATOM     25  O   UNL     1       0.536  12.592  19.048  0.00  0.00    +0.000 OA
BRANCH  23  26
ATOM     26  N   UNL     1      -1.113  11.293  17.693  0.00  0.00    +0.000 NA
ATOM     27  H   UNL     1      -0.645  11.851  16.980  0.00  0.00    +0.000 HD
ATOM     28  H   UNL     1      -1.243  10.314  17.446  0.00  0.00    +0.000 HD
ENDBRANCH  23  26
ENDBRANCH  20  23
ENDBRANCH  16  17
ENDBRANCH   1  16
TORSDOF 8
ENDMDL
MODEL 5
REMARK VINA RESULT:      -7.7      1.911      2.174
REMARK  Name = 
REMARK  10 active torsions:
REMARK  status: ('A' for Active; 'I' for Inactive)
REMARK    1  A    between atoms: C_1  and  O_2
REMARK    2  A    between atoms: O_2  and  C_3
REMARK    3  A    between atoms: C_3  and  C_5
REMARK    4  A    between atoms: C_7  and  S_8
REMARK    5  A    between atoms: S_8  and  N_11
REMARK    6  A    between atoms: N_11  and  C_12
REMARK    7  A    between atoms: C_12  and  C_13
REMARK    8  A    between atoms: C_16  and  S_17
REMARK    9  A    between atoms: S_17  and  N_18
REMARK   10  A    between atoms: C_24  and  C_25
REMARK                            x       y       z     vdW  Elec       q    Type
REMARK                         _______ _______ _______ _____ _____    ______ ____
ROOT
ATOM      1  N   UNL     1       2.292   5.954  20.563  0.00  0.00    +0.000 NA
ATOM      2  H   UNL     1       2.961   6.049  21.331  0.00  0.00    +0.000 HD
ENDROOT
BRANCH   1   3
ATOM      3  S   UNL     1       2.468   4.452  19.820  0.00  0.00    +0.000 S 
ATOM      4  O   UNL     1       1.384   4.244  18.887  0.00  0.00    +0.000 OA
ATOM      5  O   UNL     1       2.815   3.485  20.840  0.00  0.00    +0.000 OA
BRANCH   3   8
ATOM      6  C   UNL     1       6.035   4.784  17.952  0.00  0.00    +0.000 A 
ATOM      7  C   UNL     1       5.254   4.785  19.143  0.00  0.00    +0.000 A 
ATOM      8  C   UNL     1       3.935   4.541  18.798  0.00  0.00    +0.000 A 
ATOM      9  O   UNL     1       3.878   4.376  17.428  0.00  0.00    +0.000 OA
ATOM     10  C   UNL     1       5.140   4.514  16.932  0.00  0.00    +0.000 A 
ATOM     11  C   UNL     1       5.287   4.337  15.468  0.00  0.00    +0.000 C 
BRANCH   6  12
ATOM     12  C   UNL     1       7.464   4.999  17.813  0.00  0.00    +0.000 C 
ATOM     13  O   UNL     1       8.224   4.185  17.299  0.00  0.00    +0.000 OA
BRANCH  12  15
ATOM     14  C   UNL     1       7.529   7.327  17.518  0.00  0.00    +0.000 C 
ATOM     15  O   UNL     1       7.848   6.198  18.331  0.00  0.00    +0.000 OA
ENDBRANCH  12  15
ENDBRANCH   6  12
ENDBRANCH   3   8
ENDBRANCH   1   3
BRANCH   1  16
ATOM     16  C   UNL     1       2.325   7.095  19.638  0.00  0.00    +0.000 C 
BRANCH  16  17
ATOM     17  C   UNL     1       1.552   8.270  20.189  0.00  0.00    +0.000 A 
ATOM     18  C   UNL     1       1.184   9.325  19.342  0.00  0.00    +0.000 A 
ATOM     19  C   UNL     1       0.482  10.417  19.846  0.00  0.00    +0.000 A 
ATOM     20  C   UNL     1       0.136  10.451  21.198  0.00  0.00    +0.000 A 
ATOM     21  C   UNL     1       0.488   9.406  22.055  0.00  0.00    +0.000 A 
ATOM     22  C   UNL     1       1.190   8.314  21.546  0.00  0.00    +0.000 A 
BRANCH  20  23
ATOM     23  S   UNL     1      -0.720  11.862  21.830  0.00  0.00    +0.000 S 
ATOM     24  O   UNL     1      -1.740  12.265  20.888  0.00  0.00    +0.000 OA
ATOM     25  O   UNL     1      -0.994  11.663  23.232  0.00  0.00    +0.000 OA
BRANCH  23  26
ATOM     26  N   UNL     1       0.480  13.033  21.752  0.00  0.00    +0.000 NA
ATOM     27  H   UNL     1       0.407  13.664  22.549  0.00  0.00    +0.000 HD
ATOM     28  H   UNL     1       1.393  12.594  21.643  0.00  0.00    +0.000 HD
ENDBRANCH  23  26
ENDBRANCH  20  23
ENDBRANCH  16  17
ENDBRANCH   1  16
TORSDOF 8
ENDMDL
MODEL 6
REMARK VINA RESULT:      -7.7      1.459      2.306
REMARK  Name = 
REMARK  10 active torsions:
REMARK  status: ('A' for Active; 'I' for Inactive)
REMARK    1  A    between atoms: C_1  and  O_2
REMARK    2  A    between atoms: O_2  and  C_3
REMARK    3  A    between atoms: C_3  and  C_5
REMARK    4  A    between atoms: C_7  and  S_8
REMARK    5  A    between atoms: S_8  and  N_11
REMARK    6  A    between atoms: N_11  and  C_12
REMARK    7  A    between atoms: C_12  and  C_13
REMARK    8  A    between atoms: C_16  and  S_17
REMARK    9  A    between atoms: S_17  and  N_18
REMARK   10  A    between atoms: C_24  and  C_25
REMARK                            x       y       z     vdW  Elec       q    Type
REMARK                         _______ _______ _______ _____ _____    ______ ____
ROOT
ATOM      1  N   UNL     1       2.112   4.884  19.290  0.00  0.00    +0.000 NA
ATOM      2  H   UNL     1       1.666   4.685  20.189  0.00  0.00    +0.000 HD
ENDROOT
BRANCH   1   3
ATOM      3  S   UNL     1       2.745   3.469  18.628  0.00  0.00    +0.000 S 
ATOM      4  O   UNL     1       1.840   2.957  17.625  0.00  0.00    +0.000 OA
ATOM      5  O   UNL     1       3.249   2.654  19.713  0.00  0.00    +0.000 OA
BRANCH   3   8
ATOM      6  C   UNL     1       5.769   4.468  16.143  0.00  0.00    +0.000 A 
ATOM      7  C   UNL     1       4.396   4.165  16.365  0.00  0.00    +0.000 A 
ATOM      8  C   UNL     1       4.217   3.929  17.718  0.00  0.00    +0.000 A 
ATOM      9  O   UNL     1       5.437   4.092  18.343  0.00  0.00    +0.000 OA
ATOM     10  C   UNL     1       6.359   4.422  17.394  0.00  0.00    +0.000 A 
ATOM     11  C   UNL     1       7.735   4.670  17.881  0.00  0.00    +0.000 C 
BRANCH   6  12
ATOM     12  C   UNL     1       6.431   4.779  14.889  0.00  0.00    +0.000 C 
ATOM     13  O   UNL     1       7.544   5.289  14.818  0.00  0.00    +0.000 OA
BRANCH  12  15
ATOM     14  C   UNL     1       6.274   3.539  12.901  0.00  0.00    +0.000 C 
ATOM     15  O   UNL     1       5.661   4.450  13.815  0.00  0.00    +0.000 OA
ENDBRANCH  12  15
ENDBRANCH   6  12
ENDBRANCH   3   8
ENDBRANCH   1   3
BRANCH   1  16
ATOM     16  C   UNL     1       3.067   5.998  19.365  0.00  0.00    +0.000 C 
BRANCH  16  17
ATOM     17  C   UNL     1       2.362   7.331  19.285  0.00  0.00    +0.000 A 
ATOM     18  C   UNL     1       2.408   8.078  18.099  0.00  0.00    +0.000 A 
ATOM     19  C   UNL     1       1.770   9.313  18.021  0.00  0.00    +0.000 A 
ATOM     20  C   UNL     1       1.072   9.800  19.128  0.00  0.00    +0.000 A 
ATOM     21  C   UNL     1       1.009   9.067  20.315  0.00  0.00    +0.000 A 
ATOM     22  C   UNL     1       1.649   7.830  20.388  0.00  0.00    +0.000 A 
BRANCH  20  23
ATOM     23  S   UNL     1       0.302  11.386  19.027  0.00  0.00    +0.000 S 
ATOM     24  O   UNL     1      -0.440  11.637  20.242  0.00  0.00    +0.000 OA
ATOM     25  O   UNL     1       1.239  12.337  18.481  0.00  0.00    +0.000 OA
BRANCH  23  26
ATOM     26  N   UNL     1      -0.841  11.118  17.827  0.00  0.00    +0.000 NA
ATOM     27  H   UNL     1      -0.563  11.588  16.966  0.00  0.00    +0.000 HD
ATOM     28  H   UNL     1      -1.015  10.119  17.725  0.00  0.00    +0.000 HD
ENDBRANCH  23  26
ENDBRANCH  20  23
ENDBRANCH  16  17
ENDBRANCH   1  16
TORSDOF 8
ENDMDL
MODEL 7
REMARK VINA RESULT:      -7.6      1.902      2.737
REMARK  Name = 
REMARK  10 active torsions:
REMARK  status: ('A' for Active; 'I' for Inactive)
REMARK    1  A    between atoms: C_1  and  O_2
REMARK    2  A    between atoms: O_2  and  C_3
REMARK    3  A    between atoms: C_3  and  C_5
REMARK    4  A    between atoms: C_7  and  S_8
REMARK    5  A    between atoms: S_8  and  N_11
REMARK    6  A    between atoms: N_11  and  C_12
REMARK    7  A    between atoms: C_12  and  C_13
REMARK    8  A    between atoms: C_16  and  S_17
REMARK    9  A    between atoms: S_17  and  N_18
REMARK   10  A    between atoms: C_24  and  C_25
REMARK                            x       y       z     vdW  Elec       q    Type
REMARK                         _______ _______ _______ _____ _____    ______ ____
ROOT
ATOM      1  N   UNL     1       1.883   5.203  18.368  0.00  0.00    +0.000 NA
ATOM      2  H   UNL     1       1.217   5.196  19.145  0.00  0.00    +0.000 HD
ENDROOT
BRANCH   1   3
ATOM      3  S   UNL     1       2.708   3.736  18.292  0.00  0.00    +0.000 S 
ATOM      4  O   UNL     1       2.011   2.834  17.403  0.00  0.00    +0.000 OA
ATOM      5  O   UNL     1       3.086   3.364  19.640  0.00  0.00    +0.000 OA
BRANCH   3   8
ATOM      6  C   UNL     1       5.978   4.379  16.010  0.00  0.00    +0.000 A 
ATOM      7  C   UNL     1       4.579   4.142  16.133  0.00  0.00    +0.000 A 
ATOM      8  C   UNL     1       4.272   4.054  17.480  0.00  0.00    +0.000 A 
ATOM      9  O   UNL     1       5.437   4.243  18.196  0.00  0.00    +0.000 OA
ATOM     10  C   UNL     1       6.451   4.445  17.308  0.00  0.00    +0.000 A 
ATOM     11  C   UNL     1       7.788   4.701  17.893  0.00  0.00    +0.000 C 
BRANCH   6  12
ATOM     12  C   UNL     1       6.760   4.539  14.797  0.00  0.00    +0.000 C 
ATOM     13  O   UNL     1       7.468   5.513  14.571  0.00  0.00    +0.000 OA
BRANCH  12  15
ATOM     14  C   UNL     1       5.797   3.767  12.799  0.00  0.00    +0.000 C 
ATOM     15  O   UNL     1       6.598   3.486  13.948  0.00  0.00    +0.000 OA
ENDBRANCH  12  15
ENDBRANCH   6  12
ENDBRANCH   3   8
ENDBRANCH   1   3
BRANCH   1  16
ATOM     16  C   UNL     1       2.754   6.387  18.378  0.00  0.00    +0.000 C 
BRANCH  16  17
ATOM     17  C   UNL     1       2.102   7.540  19.105  0.00  0.00    +0.000 A 
ATOM     18  C   UNL     1       1.796   8.721  18.414  0.00  0.00    +0.000 A 
ATOM     19  C   UNL     1       1.206   9.792  19.080  0.00  0.00    +0.000 A 
ATOM     20  C   UNL     1       0.909   9.680  20.440  0.00  0.00    +0.000 A 
ATOM     21  C   UNL     1       1.200   8.509  21.144  0.00  0.00    +0.000 A 
ATOM     22  C   UNL     1       1.790   7.439  20.471  0.00  0.00    +0.000 A 
BRANCH  20  23
ATOM     23  S   UNL     1       0.197  11.061  21.280  0.00  0.00    +0.000 S 
ATOM     24  O   UNL     1       1.166  12.131  21.348  0.00  0.00    +0.000 OA
ATOM     25  O   UNL     1      -1.149  11.264  20.805  0.00  0.00    +0.000 OA
BRANCH  23  26
ATOM     26  N   UNL     1       0.056  10.457  22.840  0.00  0.00    +0.000 NA
ATOM     27  H   UNL     1       0.034   9.438  22.820  0.00  0.00    +0.000 HD
ATOM     28  H   UNL     1       0.781  10.852  23.437  0.00  0.00    +0.000 HD
ENDBRANCH  23  26
ENDBRANCH  20  23
ENDBRANCH  16  17
ENDBRANCH   1  16
TORSDOF 8
ENDMDL
MODEL 8
REMARK VINA RESULT:      -7.6      2.934      6.059
REMARK  Name = 
REMARK  10 active torsions:
REMARK  status: ('A' for Active; 'I' for Inactive)
REMARK    1  A    between atoms: C_1  and  O_2
REMARK    2  A    between atoms: O_2  and  C_3
REMARK    3  A    between atoms: C_3  and  C_5
REMARK    4  A    between atoms: C_7  and  S_8
REMARK    5  A    between atoms: S_8  and  N_11
REMARK    6  A    between atoms: N_11  and  C_12
REMARK    7  A    between atoms: C_12  and  C_13
REMARK    8  A    between atoms: C_16  and  S_17
REMARK    9  A    between atoms: S_17  and  N_18
REMARK   10  A    between atoms: C_24  and  C_25
REMARK                            x       y       z     vdW  Elec       q    Type
REMARK                         _______ _______ _______ _____ _____    ______ ____
ROOT
ATOM      1  N   UNL     1       3.395   2.573  20.755  0.00  0.00    +0.000 NA
ATOM      2  H   UNL     1       3.528   1.932  21.542  0.00  0.00    +0.000 HD
ENDROOT
BRANCH   1   3
ATOM      3  S   UNL     1       1.803   3.125  20.715  0.00  0.00    +0.000 S 
ATOM      4  O   UNL     1       1.228   3.037  22.038  0.00  0.00    +0.000 OA
ATOM      5  O   UNL     1       1.161   2.558  19.548  0.00  0.00    +0.000 OA
BRANCH   3   8
ATOM      6  C   UNL     1       1.663   7.146  20.359  0.00  0.00    +0.000 A 
ATOM      7  C   UNL     1       1.393   5.956  21.094  0.00  0.00    +0.000 A 
ATOM      8  C   UNL     1       1.865   4.879  20.362  0.00  0.00    +0.000 A 
ATOM      9  O   UNL     1       2.431   5.368  19.202  0.00  0.00    +0.000 OA
ATOM     10  C   UNL     1       2.312   6.726  19.212  0.00  0.00    +0.000 A 
ATOM     11  C   UNL     1       2.896   7.439  18.052  0.00  0.00    +0.000 C 
BRANCH   6  12
ATOM     12  C   UNL     1       1.350   8.517  20.720  0.00  0.00    +0.000 C 
ATOM     13  O   UNL     1       0.991   9.365  19.911  0.00  0.00    +0.000 OA
BRANCH  12  15
ATOM     14  C   UNL     1       0.402   9.358  22.697  0.00  0.00    +0.000 C 
ATOM     15  O   UNL     1       1.517   8.740  22.053  0.00  0.00    +0.000 OA
ENDBRANCH  12  15
ENDBRANCH   6  12
ENDBRANCH   3   8
ENDBRANCH   1   3
BRANCH   1  16
ATOM     16  C   UNL     1       3.874   2.015  19.483  0.00  0.00    +0.000 C 
BRANCH  16  17
ATOM     17  C   UNL     1       4.492   3.085  18.613  0.00  0.00    +0.000 A 
ATOM     18  C   UNL     1       5.410   3.990  19.164  0.00  0.00    +0.000 A 
ATOM     19  C   UNL     1       5.975   4.986  18.371  0.00  0.00    +0.000 A 
ATOM     20  C   UNL     1       5.630   5.072  17.021  0.00  0.00    +0.000 A 
ATOM     21  C   UNL     1       4.722   4.175  16.454  0.00  0.00    +0.000 A 
ATOM     22  C   UNL     1       4.161   3.178  17.251  0.00  0.00    +0.000 A 
BRANCH  20  23
ATOM     23  S   UNL     1       6.324   6.366  16.038  0.00  0.00    +0.000 S 
ATOM     24  O   UNL     1       5.308   6.898  15.159  0.00  0.00    +0.000 OA
ATOM     25  O   UNL     1       7.147   7.208  16.872  0.00  0.00    +0.000 OA
BRANCH  23  26
ATOM     26  N   UNL     1       7.382   5.502  15.062  0.00  0.00    +0.000 NA
ATOM     27  H   UNL     1       7.886   4.810  15.616  0.00  0.00    +0.000 HD
ATOM     28  H   UNL     1       6.885   5.119  14.259  0.00  0.00    +0.000 HD
ENDBRANCH  23  26
ENDBRANCH  20  23
ENDBRANCH  16  17
ENDBRANCH   1  16
TORSDOF 8
ENDMDL
MODEL 9
REMARK VINA RESULT:      -7.5      2.831      4.277
REMARK  Name = 
REMARK  10 active torsions:
REMARK  status: ('A' for Active; 'I' for Inactive)
REMARK    1  A    between atoms: C_1  and  O_2
REMARK    2  A    between atoms: O_2  and  C_3
REMARK    3  A    between atoms: C_3  and  C_5
REMARK    4  A    between atoms: C_7  and  S_8
REMARK    5  A    between atoms: S_8  and  N_11
REMARK    6  A    between atoms: N_11  and  C_12
REMARK    7  A    between atoms: C_12  and  C_13
REMARK    8  A    between atoms: C_16  and  S_17
REMARK    9  A    between atoms: S_17  and  N_18
REMARK   10  A    between atoms: C_24  and  C_25
REMARK                            x       y       z     vdW  Elec       q    Type
REMARK                         _______ _______ _______ _____ _____    ______ ____
ROOT
ATOM      1  N   UNL     1       5.368   6.389  17.551  0.00  0.00    +0.000 NA
ATOM      2  H   UNL     1       5.709   7.180  16.998  0.00  0.00    +0.000 HD
ENDROOT
BRANCH   1   3
ATOM      3  S   UNL     1       6.379   5.057  17.346  0.00  0.00    +0.000 S 
ATOM      4  O   UNL     1       5.739   3.877  17.883  0.00  0.00    +0.000 OA
ATOM      5  O   UNL     1       7.722   5.451  17.716  0.00  0.00    +0.000 OA
BRANCH   3   8
ATOM      6  C   UNL     1       6.265   3.998  13.449  0.00  0.00    +0.000 A 
ATOM      7  C   UNL     1       5.762   3.894  14.777  0.00  0.00    +0.000 A 
ATOM      8  C   UNL     1       6.492   4.750  15.585  0.00  0.00    +0.000 A 
ATOM      9  O   UNL     1       7.423   5.392  14.794  0.00  0.00    +0.000 OA
ATOM     10  C   UNL     1       7.274   4.942  13.516  0.00  0.00    +0.000 A 
ATOM     11  C   UNL     1       8.174   5.544  12.505  0.00  0.00    +0.000 C 
BRANCH   6  12
ATOM     12  C   UNL     1       5.821   3.292  12.261  0.00  0.00    +0.000 C 
ATOM     13  O   UNL     1       6.426   2.345  11.771  0.00  0.00    +0.000 OA
BRANCH  12  15
ATOM     14  C   UNL     1       3.850   2.889  11.049  0.00  0.00    +0.000 C 
ATOM     15  O   UNL     1       4.670   3.818  11.759  0.00  0.00    +0.000 OA
ENDBRANCH  12  15
ENDBRANCH   6  12
ENDBRANCH   3   8
ENDBRANCH   1   3
BRANCH   1  16
ATOM     16  C   UNL     1       3.944   6.110  17.322  0.00  0.00    +0.000 C 
BRANCH  16  17
ATOM     17  C   UNL     1       3.071   6.905  18.265  0.00  0.00    +0.000 A 
ATOM     18  C   UNL     1       2.768   6.396  19.535  0.00  0.00    +0.000 A 
ATOM     19  C   UNL     1       1.955   7.119  20.405  0.00  0.00    +0.000 A 
ATOM     20  C   UNL     1       1.451   8.359  20.010  0.00  0.00    +0.000 A 
ATOM     21  C   UNL     1       1.748   8.884  18.750  0.00  0.00    +0.000 A 
ATOM     22  C   UNL     1       2.564   8.158  17.883  0.00  0.00    +0.000 A 
BRANCH  20  23
ATOM     23  S   UNL     1       0.389   9.244  21.108  0.00  0.00    +0.000 S 
ATOM     24  O   UNL     1      -0.600   8.340  21.651  0.00  0.00    +0.000 OA
ATOM     25  O   UNL     1       1.183  10.114  21.940  0.00  0.00    +0.000 OA
BRANCH  23  26
ATOM     26  N   UNL     1      -0.429  10.244  20.036  0.00  0.00    +0.000 NA
ATOM     27  H   UNL     1      -1.044   9.691  19.440  0.00  0.00    +0.000 HD
ATOM     28  H   UNL     1      -0.896  10.995  20.543  0.00  0.00    +0.000 HD
ENDBRANCH  23  26
ENDBRANCH  20  23
ENDBRANCH  16  17
ENDBRANCH   1  16
TORSDOF 8
ENDMDL
