MODEL 1
REMARK VINA RESULT:      -6.4      0.000      0.000
REMARK  Name = 
REMARK  1 active torsions:
REMARK  status: ('A' for Active; 'I' for Inactive)
REMARK    1  A    between atoms: C_4  and  O_5
REMARK                            x       y       z     vdW  Elec       q    Type
REMARK                         _______ _______ _______ _____ _____    ______ ____
ROOT
ATOM      1  O   UNL     1       7.699   4.505  18.226  0.00  0.00    +0.000 OA
ATOM      2  C   UNL     1       6.480   4.636  18.188  0.00  0.00    +0.000 A 
ATOM      3  C   UNL     1       5.876   5.917  17.755  0.00  0.00    +0.000 A 
ATOM      4  C   UNL     1       4.545   6.062  17.683  0.00  0.00    +0.000 A 
ATOM      5  C   UNL     1       3.654   4.942  18.019  0.00  0.00    +0.000 A 
ATOM      6  C   UNL     1       2.259   5.026  17.906  0.00  0.00    +0.000 A 
ATOM      7  C   UNL     1       1.462   3.922  18.218  0.00  0.00    +0.000 A 
ATOM      8  C   UNL     1       2.057   2.744  18.656  0.00  0.00    +0.000 A 
ATOM      9  F   UNL     1       1.287   1.688  18.948  0.00  0.00    +0.000 F 
ATOM     10  C   UNL     1       3.436   2.639  18.787  0.00  0.00    +0.000 A 
ATOM     11  C   UNL     1       4.230   3.736  18.457  0.00  0.00    +0.000 A 
ATOM     12  N   UNL     1       5.625   3.630  18.539  0.00  0.00    +0.000 N 
ATOM     13  H   UNL     1       6.058   2.765  18.834  0.00  0.00    +0.000 HD
ENDROOT
BRANCH   4  14
ATOM     14  O   UNL     1       3.938   7.236  17.295  0.00  0.00    +0.000 OA
ATOM     15  H   UNL     1       3.342   7.531  18.006  0.00  0.00    +0.000 HD
ENDBRANCH   4  14
TORSDOF 1
ENDMDL
MODEL 2
REMARK VINA RESULT:      -6.3      2.073      2.179
REMARK  Name = 
REMARK  1 active torsions:
REMARK  status: ('A' for Active; 'I' for Inactive)
REMARK    1  A    between atoms: C_4  and  O_5
REMARK                            x       y       z     vdW  Elec       q    Type
REMARK                         _______ _______ _______ _____ _____    ______ ____
ROOT
ATOM      1  O   UNL     1       8.367   4.073  17.407  0.00  0.00    +0.000 OA
ATOM      2  C   UNL     1       7.277   4.634  17.459  0.00  0.00    +0.000 A 
ATOM      3  C   UNL     1       6.830   5.509  16.352  0.00  0.00    +0.000 A 
ATOM      4  C   UNL     1       5.629   6.104  16.386  0.00  0.00    +0.000 A 
ATOM      5  C   UNL     1       4.721   5.887  17.521  0.00  0.00    +0.000 A 
ATOM      6  C   UNL     1       3.435   6.440  17.577  0.00  0.00    +0.000 A 
ATOM      7  C   UNL     1       2.606   6.181  18.671  0.00  0.00    +0.000 A 
ATOM      8  C   UNL     1       3.067   5.384  19.712  0.00  0.00    +0.000 A 
ATOM      9  F   UNL     1       2.266   5.135  20.756  0.00  0.00    +0.000 F 
ATOM     10  C   UNL     1       4.342   4.832  19.685  0.00  0.00    +0.000 A 
ATOM     11  C   UNL     1       5.160   5.077  18.584  0.00  0.00    +0.000 A 
ATOM     12  N   UNL     1       6.430   4.489  18.522  0.00  0.00    +0.000 N 
ATOM     13  H   UNL     1       6.756   3.889  19.268  0.00  0.00    +0.000 HD
ENDROOT
BRANCH   4  14
ATOM     14  O   UNL     1       5.174   6.934  15.385  0.00  0.00    +0.000 OA
ATOM     15  H   UNL     1       4.935   7.794  15.774  0.00  0.00    +0.000 HD
ENDBRANCH   4  14
TORSDOF 1
ENDMDL
MODEL 3
REMARK VINA RESULT:      -6.2      1.041      1.047
REMARK  Name = 
REMARK  1 active torsions:
REMARK  status: ('A' for Active; 'I' for Inactive)
REMARK    1  A    between atoms: C_4  and  O_5
REMARK                            x       y       z     vdW  Elec       q    Type
REMARK                         _______ _______ _______ _____ _____    ______ ____
ROOT
ATOM      1  O   UNL     1       8.210   4.258  17.439  0.00  0.00    +0.000 OA
ATOM      2  C   UNL     1       7.024   4.550  17.562  0.00  0.00    +0.000 A 
ATOM      3  C   UNL     1       6.451   5.694  16.817  0.00  0.00    +0.000 A 
ATOM      4  C   UNL     1       5.152   6.003  16.924  0.00  0.00    +0.000 A 
ATOM      5  C   UNL     1       4.260   5.201  17.773  0.00  0.00    +0.000 A 
ATOM      6  C   UNL     1       2.885   5.449  17.873  0.00  0.00    +0.000 A 
ATOM      7  C   UNL     1       2.081   4.639  18.679  0.00  0.00    +0.000 A 
ATOM      8  C   UNL     1       2.655   3.594  19.394  0.00  0.00    +0.000 A 
ATOM      9  F   UNL     1       1.879   2.818  20.161  0.00  0.00    +0.000 F 
ATOM     10  C   UNL     1       4.018   3.333  19.320  0.00  0.00    +0.000 A 
ATOM     11  C   UNL     1       4.813   4.132  18.501  0.00  0.00    +0.000 A 
ATOM     12  N   UNL     1       6.181   3.852  18.380  0.00  0.00    +0.000 N 
ATOM     13  H   UNL     1       6.593   3.076  18.882  0.00  0.00    +0.000 HD
ENDROOT
BRANCH   4  14
ATOM     14  O   UNL     1       4.576   7.063  16.258  0.00  0.00    +0.000 OA
ATOM     15  H   UNL     1       4.914   7.894  16.637  0.00  0.00    +0.000 HD
ENDBRANCH   4  14
TORSDOF 1
ENDMDL
MODEL 4
REMARK VINA RESULT:      -6.2      2.075      2.479
REMARK  Name = 
REMARK  1 active torsions:
REMARK  status: ('A' for Active; 'I' for Inactive)
REMARK    1  A    between atoms: C_4  and  O_5
REMARK                            x       y       z     vdW  Elec       q    Type
REMARK                         _______ _______ _______ _____ _____    ______ ____
ROOT
ATOM      1  O   UNL     1       7.661   4.715  15.320  0.00  0.00    +0.000 OA
ATOM      2  C   UNL     1       6.909   4.739  16.289  0.00  0.00    +0.000 A 
ATOM      3  C   UNL     1       7.429   5.075  17.635  0.00  0.00    +0.000 A 
ATOM      4  C   UNL     1       6.610   5.131  18.694  0.00  0.00    +0.000 A 
ATOM      5  C   UNL     1       5.171   4.876  18.540  0.00  0.00    +0.000 A 
ATOM      6  C   UNL     1       4.266   4.978  19.606  0.00  0.00    +0.000 A 
ATOM      7  C   UNL     1       2.905   4.746  19.396  0.00  0.00    +0.000 A 
ATOM      8  C   UNL     1       2.453   4.397  18.129  0.00  0.00    +0.000 A 
ATOM      9  F   UNL     1       1.146   4.181  17.933  0.00  0.00    +0.000 F 
ATOM     10  C   UNL     1       3.331   4.280  17.058  0.00  0.00    +0.000 A 
ATOM     11  C   UNL     1       4.685   4.530  17.266  0.00  0.00    +0.000 A 
ATOM     12  N   UNL     1       5.575   4.461  16.186  0.00  0.00    +0.000 N 
ATOM     13  H   UNL     1       5.242   4.232  15.259  0.00  0.00    +0.000 HD
ENDROOT
BRANCH   4  14
ATOM     14  O   UNL     1       7.049   5.430  19.966  0.00  0.00    +0.000 OA
ATOM     15  H   UNL     1       7.228   4.599  20.440  0.00  0.00    +0.000 HD
ENDBRANCH   4  14
TORSDOF 1
ENDMDL
MODEL 5
REMARK VINA RESULT:      -6.2      3.058      3.636
REMARK  Name = 
REMARK  1 active torsions:
REMARK  status: ('A' for Active; 'I' for Inactive)
REMARK    1  A    between atoms: C_4  and  O_5
REMARK                            x       y       z     vdW  Elec       q    Type
REMARK                         _______ _______ _______ _____ _____    ______ ____
ROOT
ATOM      1  O   UNL     1       7.573   5.827  15.509  0.00  0.00    +0.000 OA
ATOM      2  C   UNL     1       6.680   5.721  16.344  0.00  0.00    +0.000 A 
ATOM      3  C   UNL     1       6.701   4.617  17.330  0.00  0.00    +0.000 A 
ATOM      4  C   UNL     1       5.745   4.509  18.263  0.00  0.00    +0.000 A 
ATOM      5  C   UNL     1       4.660   5.498  18.338  0.00  0.00    +0.000 A 
ATOM      6  C   UNL     1       3.670   5.461  19.329  0.00  0.00    +0.000 A 
ATOM      7  C   UNL     1       2.675   6.440  19.365  0.00  0.00    +0.000 A 
ATOM      8  C   UNL     1       2.662   7.445  18.404  0.00  0.00    +0.000 A 
ATOM      9  F   UNL     1       1.709   8.385  18.447  0.00  0.00    +0.000 F 
ATOM     10  C   UNL     1       3.626   7.498  17.405  0.00  0.00    +0.000 A 
ATOM     11  C   UNL     1       4.628   6.530  17.383  0.00  0.00    +0.000 A 
ATOM     12  N   UNL     1       5.634   6.597  16.409  0.00  0.00    +0.000 N 
ATOM     13  H   UNL     1       5.637   7.343  15.725  0.00  0.00    +0.000 HD
ENDROOT
BRANCH   4  14
ATOM     14  O   UNL     1       5.717   3.494  19.195  0.00  0.00    +0.000 OA
ATOM     15  H   UNL     1       4.983   3.656  19.813  0.00  0.00    +0.000 HD
ENDBRANCH   4  14
TORSDOF 1
ENDMDL
MODEL 6
REMARK VINA RESULT:      -6.1      1.227      1.227
REMARK  Name = 
REMARK  1 active torsions:
REMARK  status: ('A' for Active; 'I' for Inactive)
REMARK    1  A    between atoms: C_4  and  O_5
REMARK                            x       y       z     vdW  Elec       q    Type
REMARK                         _______ _______ _______ _____ _____    ______ ____
ROOT
ATOM      1  O   UNL     1       6.987   4.287  15.687  0.00  0.00    +0.000 OA
ATOM      2  C   UNL     1       5.934   4.482  16.286  0.00  0.00    +0.000 A 
ATOM      3  C   UNL     1       5.472   5.862  16.560  0.00  0.00    +0.000 A 
ATOM      4  C   UNL     1       4.310   6.087  17.189  0.00  0.00    +0.000 A 
ATOM      5  C   UNL     1       3.459   4.964  17.609  0.00  0.00    +0.000 A 
ATOM      6  C   UNL     1       2.211   5.147  18.218  0.00  0.00    +0.000 A 
ATOM      7  C   UNL     1       1.434   4.043  18.575  0.00  0.00    +0.000 A 
ATOM      8  C   UNL     1       1.911   2.759  18.337  0.00  0.00    +0.000 A 
ATOM      9  F   UNL     1       1.159   1.704  18.676  0.00  0.00    +0.000 F 
ATOM     10  C   UNL     1       3.150   2.550  17.743  0.00  0.00    +0.000 A 
ATOM     11  C   UNL     1       3.914   3.654  17.371  0.00  0.00    +0.000 A 
ATOM     12  N   UNL     1       5.145   3.459  16.729  0.00  0.00    +0.000 N 
ATOM     13  H   UNL     1       5.480   2.525  16.534  0.00  0.00    +0.000 HD
ENDROOT
BRANCH   4  14
ATOM     14  O   UNL     1       3.843   7.351  17.475  0.00  0.00    +0.000 OA
ATOM     15  H   UNL     1       4.153   7.608  18.361  0.00  0.00    +0.000 HD
ENDBRANCH   4  14
TORSDOF 1
ENDMDL
MODEL 7
REMARK VINA RESULT:      -6.1      3.204      4.489
REMARK  Name = 
REMARK  1 active torsions:
REMARK  status: ('A' for Active; 'I' for Inactive)
REMARK    1  A    between atoms: C_4  and  O_5
REMARK                            x       y       z     vdW  Elec       q    Type
REMARK                         _______ _______ _______ _____ _____    ______ ____
ROOT
ATOM      1  O   UNL     1       0.201   2.132  18.518  0.00  0.00    +0.000 OA
ATOM      2  C   UNL     1       1.168   2.869  18.687  0.00  0.00    +0.000 A 
ATOM      3  C   UNL     1       1.229   3.770  19.860  0.00  0.00    +0.000 A 
ATOM      4  C   UNL     1       2.293   4.557  20.068  0.00  0.00    +0.000 A 
ATOM      5  C   UNL     1       3.434   4.532  19.142  0.00  0.00    +0.000 A 
ATOM      6  C   UNL     1       4.592   5.293  19.346  0.00  0.00    +0.000 A 
ATOM      7  C   UNL     1       5.655   5.212  18.444  0.00  0.00    +0.000 A 
ATOM      8  C   UNL     1       5.553   4.383  17.332  0.00  0.00    +0.000 A 
ATOM      9  F   UNL     1       6.578   4.305  16.474  0.00  0.00    +0.000 F 
ATOM     10  C   UNL     1       4.411   3.625  17.101  0.00  0.00    +0.000 A 
ATOM     11  C   UNL     1       3.360   3.695  18.013  0.00  0.00    +0.000 A 
ATOM     12  N   UNL     1       2.222   2.901  17.818  0.00  0.00    +0.000 N 
ATOM     13  H   UNL     1       2.159   2.280  17.022  0.00  0.00    +0.000 HD
ENDROOT
BRANCH   4  14
ATOM     14  O   UNL     1       2.391   5.418  21.140  0.00  0.00    +0.000 OA
ATOM     15  H   UNL     1       2.220   6.325  20.830  0.00  0.00    +0.000 HD
ENDBRANCH   4  14
TORSDOF 1
ENDMDL
MODEL 8
REMARK VINA RESULT:      -6.1      3.492      4.677
REMARK  Name = 
REMARK  1 active torsions:
REMARK  status: ('A' for Active; 'I' for Inactive)
REMARK    1  A    between atoms: C_4  and  O_5
REMARK                            x       y       z     vdW  Elec       q    Type
REMARK                         _______ _______ _______ _____ _____    ______ ____
ROOT
ATOM      1  O   UNL     1       1.475   2.714  22.227  0.00  0.00    +0.000 OA
ATOM      2  C   UNL     1       2.144   3.279  21.368  0.00  0.00    +0.000 A 
ATOM      3  C   UNL     1       3.295   2.591  20.740  0.00  0.00    +0.000 A 
ATOM      4  C   UNL     1       4.015   3.189  19.781  0.00  0.00    +0.000 A 
ATOM      5  C   UNL     1       3.667   4.540  19.318  0.00  0.00    +0.000 A 
ATOM      6  C   UNL     1       4.353   5.185  18.280  0.00  0.00    +0.000 A 
ATOM      7  C   UNL     1       3.963   6.461  17.867  0.00  0.00    +0.000 A 
ATOM      8  C   UNL     1       2.900   7.095  18.500  0.00  0.00    +0.000 A 
ATOM      9  F   UNL     1       2.527   8.316  18.095  0.00  0.00    +0.000 F 
ATOM     10  C   UNL     1       2.210   6.482  19.538  0.00  0.00    +0.000 A 
ATOM     11  C   UNL     1       2.590   5.201  19.936  0.00  0.00    +0.000 A 
ATOM     12  N   UNL     1       1.874   4.551  20.950  0.00  0.00    +0.000 N 
ATOM     13  H   UNL     1       1.085   5.004  21.393  0.00  0.00    +0.000 HD
ENDROOT
BRANCH   4  14
ATOM     14  O   UNL     1       5.100   2.593  19.174  0.00  0.00    +0.000 OA
ATOM     15  H   UNL     1       5.418   3.172  18.460  0.00  0.00    +0.000 HD
ENDBRANCH   4  14
TORSDOF 1
ENDMDL
MODEL 9
REMARK VINA RESULT:      -6.1      1.549      1.550
REMARK  Name = 
REMARK  1 active torsions:
REMARK  status: ('A' for Active; 'I' for Inactive)
REMARK    1  A    between atoms: C_4  and  O_5
REMARK                            x       y       z     vdW  Elec       q    Type
REMARK                         _______ _______ _______ _____ _____    ______ ____
ROOT
ATOM      1  O   UNL     1       7.073   4.353  18.087  0.00  0.00    +0.000 OA
ATOM      2  C   UNL     1       5.918   4.533  18.463  0.00  0.00    +0.000 A 
ATOM      3  C   UNL     1       5.161   5.725  18.020  0.00  0.00    +0.000 A 
ATOM      4  C   UNL     1       3.891   5.915  18.403  0.00  0.00    +0.000 A 
ATOM      5  C   UNL     1       3.214   4.932  19.262  0.00  0.00    +0.000 A 
ATOM      6  C   UNL     1       1.872   5.057  19.642  0.00  0.00    +0.000 A 
ATOM      7  C   UNL     1       1.274   4.080  20.441  0.00  0.00    +0.000 A 
ATOM      8  C   UNL     1       2.022   2.989  20.870  0.00  0.00    +0.000 A 
ATOM      9  F   UNL     1       1.442   2.053  21.632  0.00  0.00    +0.000 F 
ATOM     10  C   UNL     1       3.358   2.847  20.515  0.00  0.00    +0.000 A 
ATOM     11  C   UNL     1       3.946   3.815  19.703  0.00  0.00    +0.000 A 
ATOM     12  N   UNL     1       5.278   3.661  19.298  0.00  0.00    +0.000 N 
ATOM     13  H   UNL     1       5.814   2.854  19.591  0.00  0.00    +0.000 HD
ENDROOT
BRANCH   4  14
ATOM     14  O   UNL     1       3.149   7.014  18.025  0.00  0.00    +0.000 OA
ATOM     15  H   UNL     1       3.666   7.819  18.205  0.00  0.00    +0.000 HD
ENDBRANCH   4  14
TORSDOF 1
ENDMDL
