MODEL 1
REMARK VINA RESULT:      -8.4      0.000      0.000
REMARK  Name = 
REMARK  8 active torsions:
REMARK  status: ('A' for Active; 'I' for Inactive)
REMARK    1  A    between atoms: C_1  and  O_2
REMARK    2  A    between atoms: O_2  and  C_3
REMARK    3  A    between atoms: C_6  and  C_7
REMARK    4  A    between atoms: C_10  and  C_12
REMARK    5  A    between atoms: C_12  and  S_13
REMARK    6  A    between atoms: S_13  and  C_14
REMARK    7  A    between atoms: C_18  and  C_19
REMARK    8  A    between atoms: C_21  and  C_22
REMARK                            x       y       z     vdW  Elec       q    Type
REMARK                         _______ _______ _______ _____ _____    ______ ____
ROOT
ATOM      1  C   UNL     1       8.592   9.838  18.213  0.00  0.00    +0.000 C 
ATOM      2  O   UNL     1       7.960  10.170  17.216  0.00  0.00    +0.000 OA
ATOM      3  N   UNL     1       8.569   8.560  18.751  0.00  0.00    +0.000 N 
ATOM      4  C   UNL     1       7.864   7.518  18.169  0.00  0.00    +0.000 C 
ATOM      5  O   UNL     1       7.134   7.603  17.183  0.00  0.00    +0.000 OA
ATOM      6  H   UNL     1       9.213   8.324  19.494  0.00  0.00    +0.000 HD
ENDROOT
BRANCH   1  10
ATOM      7  C   UNL     1      10.900  13.074  19.926  0.00  0.00    +0.000 A 
ATOM      8  C   UNL     1      10.502  13.077  18.594  0.00  0.00    +0.000 A 
ATOM      9  C   UNL     1       9.766  12.009  18.078  0.00  0.00    +0.000 A 
ATOM     10  C   UNL     1       9.418  10.901  18.876  0.00  0.00    +0.000 A 
ATOM     11  C   UNL     1       9.847  10.892  20.209  0.00  0.00    +0.000 A 
ATOM     12  C   UNL     1      10.586  11.975  20.730  0.00  0.00    +0.000 A 
BRANCH   7  14
ATOM     13  C   UNL     1      11.807  15.175  19.326  0.00  0.00    +0.000 C 
ATOM     14  O   UNL     1      11.620  14.169  20.313  0.00  0.00    +0.000 OA
ENDBRANCH   7  14
ENDBRANCH   1  10
BRANCH   4  15
ATOM     15  C   UNL     1       8.021   6.183  18.873  0.00  0.00    +0.000 C 
BRANCH  15  16
ATOM     16  S   UNL     1       7.324   4.846  17.873  0.00  0.00    +0.000 S 
BRANCH  16  17
ATOM     17  C   UNL     1       5.763   4.634  18.610  0.00  0.00    +0.000 A 
ATOM     18  N   UNL     1       5.364   3.467  19.194  0.00  0.00    +0.000 NA
ATOM     19  C   UNL     1       4.186   3.777  19.696  0.00  0.00    +0.000 A 
ATOM     20  N   UNL     1       3.340   2.993  20.426  0.00  0.00    +0.000 NA
ATOM     21  C   UNL     1       2.227   3.547  20.812  0.00  0.00    +0.000 A 
ATOM     22  C   UNL     1       1.257   2.729  21.626  0.00  0.00    +0.000 C 
ATOM     23  C   UNL     1       1.814   4.957  20.512  0.00  0.00    +0.000 A 
ATOM     24  C   UNL     1       2.670   5.692  19.780  0.00  0.00    +0.000 A 
ATOM     25  C   UNL     1       2.395   7.114  19.395  0.00  0.00    +0.000 C 
ATOM     26  N   UNL     1       3.873   5.105  19.368  0.00  0.00    +0.000 N 
ATOM     27  N   UNL     1       4.892   5.639  18.661  0.00  0.00    +0.000 NA
ENDBRANCH  16  17
ENDBRANCH  15  16
ENDBRANCH   4  15
TORSDOF 5
ENDMDL
MODEL 2
REMARK VINA RESULT:      -8.0      1.642      2.120
REMARK  Name = 
REMARK  8 active torsions:
REMARK  status: ('A' for Active; 'I' for Inactive)
REMARK    1  A    between atoms: C_1  and  O_2
REMARK    2  A    between atoms: O_2  and  C_3
REMARK    3  A    between atoms: C_6  and  C_7
REMARK    4  A    between atoms: C_10  and  C_12
REMARK    5  A    between atoms: C_12  and  S_13
REMARK    6  A    between atoms: S_13  and  C_14
REMARK    7  A    between atoms: C_18  and  C_19
REMARK    8  A    between atoms: C_21  and  C_22
REMARK                            x       y       z     vdW  Elec       q    Type
REMARK                         _______ _______ _______ _____ _____    ______ ____
ROOT
ATOM      1  C   UNL     1       8.146   8.176  18.151  0.00  0.00    +0.000 C 
ATOM      2  O   UNL     1       8.659   7.391  18.941  0.00  0.00    +0.000 OA
ATOM      3  N   UNL     1       7.276   7.797  17.140  0.00  0.00    +0.000 N 
ATOM      4  C   UNL     1       6.863   6.486  16.965  0.00  0.00    +0.000 C 
ATOM      5  O   UNL     1       7.255   5.514  17.608  0.00  0.00    +0.000 OA
ATOM      6  H   UNL     1       6.791   8.509  16.610  0.00  0.00    +0.000 HD
ENDROOT
BRANCH   1  10
ATOM      7  C   UNL     1       9.407  12.274  18.742  0.00  0.00    +0.000 A 
ATOM      8  C   UNL     1       9.830  11.245  19.576  0.00  0.00    +0.000 A 
ATOM      9  C   UNL     1       9.393   9.938  19.356  0.00  0.00    +0.000 A 
ATOM     10  C   UNL     1       8.509   9.624  18.305  0.00  0.00    +0.000 A 
ATOM     11  C   UNL     1       8.065  10.671  17.486  0.00  0.00    +0.000 A 
ATOM     12  C   UNL     1       8.513  11.990  17.707  0.00  0.00    +0.000 A 
BRANCH   7  14
ATOM     13  C   UNL     1      10.048  14.420  17.981  0.00  0.00    +0.000 C 
ATOM     14  O   UNL     1       9.898  13.509  19.061  0.00  0.00    +0.000 OA
ENDBRANCH   7  14
ENDBRANCH   1  10
BRANCH   4  15
ATOM     15  C   UNL     1       5.858   6.287  15.844  0.00  0.00    +0.000 C 
BRANCH  15  16
ATOM     16  S   UNL     1       5.351   4.554  15.737  0.00  0.00    +0.000 S 
BRANCH  16  17
ATOM     17  C   UNL     1       4.301   4.411  17.115  0.00  0.00    +0.000 A 
ATOM     18  N   UNL     1       3.998   3.218  17.704  0.00  0.00    +0.000 NA
ATOM     19  C   UNL     1       3.271   3.577  18.742  0.00  0.00    +0.000 A 
ATOM     20  N   UNL     1       2.724   2.788  19.712  0.00  0.00    +0.000 NA
ATOM     21  C   UNL     1       2.047   3.399  20.641  0.00  0.00    +0.000 A 
ATOM     22  C   UNL     1       1.425   2.577  21.741  0.00  0.00    +0.000 C 
ATOM     23  C   UNL     1       1.826   4.880  20.717  0.00  0.00    +0.000 A 
ATOM     24  C   UNL     1       2.371   5.621  19.736  0.00  0.00    +0.000 A 
ATOM     25  C   UNL     1       2.232   7.112  19.672  0.00  0.00    +0.000 C 
ATOM     26  N   UNL     1       3.107   4.972  18.737  0.00  0.00    +0.000 N 
ATOM     27  N   UNL     1       3.766   5.491  17.679  0.00  0.00    +0.000 NA
ENDBRANCH  16  17
ENDBRANCH  15  16
ENDBRANCH   4  15
TORSDOF 5
ENDMDL
MODEL 3
REMARK VINA RESULT:      -8.0      5.792      7.900
REMARK  Name = 
REMARK  8 active torsions:
REMARK  status: ('A' for Active; 'I' for Inactive)
REMARK    1  A    between atoms: C_1  and  O_2
REMARK    2  A    between atoms: O_2  and  C_3
REMARK    3  A    between atoms: C_6  and  C_7
REMARK    4  A    between atoms: C_10  and  C_12
REMARK    5  A    between atoms: C_12  and  S_13
REMARK    6  A    between atoms: S_13  and  C_14
REMARK    7  A    between atoms: C_18  and  C_19
REMARK    8  A    between atoms: C_21  and  C_22
REMARK                            x       y       z     vdW  Elec       q    Type
REMARK                         _______ _______ _______ _____ _____    ______ ____
ROOT
ATOM      1  C   UNL     1       2.791   5.915  19.398  0.00  0.00    +0.000 C 
ATOM      2  O   UNL     1       2.031   4.962  19.533  0.00  0.00    +0.000 OA
ATOM      3  N   UNL     1       4.163   5.791  19.236  0.00  0.00    +0.000 N 
ATOM      4  C   UNL     1       4.797   4.561  19.156  0.00  0.00    +0.000 C 
ATOM      5  O   UNL     1       4.260   3.463  19.290  0.00  0.00    +0.000 OA
ATOM      6  H   UNL     1       4.710   6.608  19.000  0.00  0.00    +0.000 HD
ENDROOT
BRANCH   1  10
ATOM      7  C   UNL     1       0.993   9.847  19.208  0.00  0.00    +0.000 A 
ATOM      8  C   UNL     1       1.600   9.260  18.104  0.00  0.00    +0.000 A 
ATOM      9  C   UNL     1       2.176   7.993  18.209  0.00  0.00    +0.000 A 
ATOM     10  C   UNL     1       2.175   7.282  19.426  0.00  0.00    +0.000 A 
ATOM     11  C   UNL     1       1.586   7.892  20.541  0.00  0.00    +0.000 A 
ATOM     12  C   UNL     1       0.999   9.170  20.430  0.00  0.00    +0.000 A 
BRANCH   7  14
ATOM     13  C   UNL     1       0.046  11.808  20.133  0.00  0.00    +0.000 C 
ATOM     14  O   UNL     1       0.470  11.089  18.983  0.00  0.00    +0.000 OA
ENDBRANCH   7  14
ENDBRANCH   1  10
BRANCH   4  15
ATOM     15  C   UNL     1       6.293   4.638  18.911  0.00  0.00    +0.000 C 
BRANCH  15  16
ATOM     16  S   UNL     1       6.699   6.061  17.871  0.00  0.00    +0.000 S 
BRANCH  16  17
ATOM     17  C   UNL     1       6.693   5.347  16.285  0.00  0.00    +0.000 A 
ATOM     18  N   UNL     1       5.815   4.374  15.906  0.00  0.00    +0.000 NA
ATOM     19  C   UNL     1       6.097   4.202  14.631  0.00  0.00    +0.000 A 
ATOM     20  N   UNL     1       5.498   3.368  13.732  0.00  0.00    +0.000 NA
ATOM     21  C   UNL     1       5.967   3.394  12.518  0.00  0.00    +0.000 A 
ATOM     22  C   UNL     1       5.339   2.496  11.482  0.00  0.00    +0.000 C 
ATOM     23  C   UNL     1       7.102   4.254  12.047  0.00  0.00    +0.000 A 
ATOM     24  C   UNL     1       7.672   5.053  12.966  0.00  0.00    +0.000 A 
ATOM     25  C   UNL     1       8.818   5.965  12.649  0.00  0.00    +0.000 C 
ATOM     26  N   UNL     1       7.168   5.037  14.273  0.00  0.00    +0.000 N 
ATOM     27  N   UNL     1       7.547   5.758  15.350  0.00  0.00    +0.000 NA
ENDBRANCH  16  17
ENDBRANCH  15  16
ENDBRANCH   4  15
TORSDOF 5
ENDMDL
MODEL 4
REMARK VINA RESULT:      -7.9      5.851      7.957
REMARK  Name = 
REMARK  8 active torsions:
REMARK  status: ('A' for Active; 'I' for Inactive)
REMARK    1  A    between atoms: C_1  and  O_2
REMARK    2  A    between atoms: O_2  and  C_3
REMARK    3  A    between atoms: C_6  and  C_7
REMARK    4  A    between atoms: C_10  and  C_12
REMARK    5  A    between atoms: C_12  and  S_13
REMARK    6  A    between atoms: S_13  and  C_14
REMARK    7  A    between atoms: C_18  and  C_19
REMARK    8  A    between atoms: C_21  and  C_22
REMARK                            x       y       z     vdW  Elec       q    Type
REMARK                         _______ _______ _______ _____ _____    ______ ____
ROOT
ATOM      1  C   UNL     1       2.853   5.836  19.632  0.00  0.00    +0.000 C 
ATOM      2  O   UNL     1       2.158   4.911  20.039  0.00  0.00    +0.000 OA
ATOM      3  N   UNL     1       4.191   5.704  19.291  0.00  0.00    +0.000 N 
ATOM      4  C   UNL     1       4.854   4.487  19.329  0.00  0.00    +0.000 C 
ATOM      5  O   UNL     1       4.385   3.422  19.727  0.00  0.00    +0.000 OA
ATOM      6  H   UNL     1       4.666   6.475  18.840  0.00  0.00    +0.000 HD
ENDROOT
BRANCH   1  10
ATOM      7  C   UNL     1       0.956   9.726  19.576  0.00  0.00    +0.000 A 
ATOM      8  C   UNL     1       0.948   8.917  20.708  0.00  0.00    +0.000 A 
ATOM      9  C   UNL     1       1.564   7.665  20.681  0.00  0.00    +0.000 A 
ATOM     10  C   UNL     1       2.194   7.179  19.518  0.00  0.00    +0.000 A 
ATOM     11  C   UNL     1       2.174   7.987  18.374  0.00  0.00    +0.000 A 
ATOM     12  C   UNL     1       1.556   9.254  18.406  0.00  0.00    +0.000 A 
BRANCH   7  14
ATOM     13  C   UNL     1       0.761  11.977  18.878  0.00  0.00    +0.000 C 
ATOM     14  O   UNL     1       0.317  10.924  19.723  0.00  0.00    +0.000 OA
ENDBRANCH   7  14
ENDBRANCH   1  10
BRANCH   4  15
ATOM     15  C   UNL     1       6.295   4.541  18.855  0.00  0.00    +0.000 C 
BRANCH  15  16
ATOM     16  S   UNL     1       6.576   5.998  17.820  0.00  0.00    +0.000 S 
BRANCH  16  17
ATOM     17  C   UNL     1       6.602   5.297  16.228  0.00  0.00    +0.000 A 
ATOM     18  N   UNL     1       5.746   4.312  15.831  0.00  0.00    +0.000 NA
ATOM     19  C   UNL     1       6.047   4.156  14.558  0.00  0.00    +0.000 A 
ATOM     20  N   UNL     1       5.473   3.319  13.645  0.00  0.00    +0.000 NA
ATOM     21  C   UNL     1       5.957   3.362  12.438  0.00  0.00    +0.000 A 
ATOM     22  C   UNL     1       5.358   2.463  11.386  0.00  0.00    +0.000 C 
ATOM     23  C   UNL     1       7.082   4.246  11.988  0.00  0.00    +0.000 A 
ATOM     24  C   UNL     1       7.628   5.046  12.921  0.00  0.00    +0.000 A 
ATOM     25  C   UNL     1       8.761   5.981  12.626  0.00  0.00    +0.000 C 
ATOM     26  N   UNL     1       7.107   5.011  14.220  0.00  0.00    +0.000 N 
ATOM     27  N   UNL     1       7.460   5.730  15.308  0.00  0.00    +0.000 NA
ENDBRANCH  16  17
ENDBRANCH  15  16
ENDBRANCH   4  15
TORSDOF 5
ENDMDL
MODEL 5
REMARK VINA RESULT:      -7.8      1.403      1.790
REMARK  Name = 
REMARK  8 active torsions:
REMARK  status: ('A' for Active; 'I' for Inactive)
REMARK    1  A    between atoms: C_1  and  O_2
REMARK    2  A    between atoms: O_2  and  C_3
REMARK    3  A    between atoms: C_6  and  C_7
REMARK    4  A    between atoms: C_10  and  C_12
REMARK    5  A    between atoms: C_12  and  S_13
REMARK    6  A    between atoms: S_13  and  C_14
REMARK    7  A    between atoms: C_18  and  C_19
REMARK    8  A    between atoms: C_21  and  C_22
REMARK                            x       y       z     vdW  Elec       q    Type
REMARK                         _______ _______ _______ _____ _____    ______ ____
ROOT
ATOM      1  C   UNL     1       8.764   9.966  18.523  0.00  0.00    +0.000 C 
ATOM      2  O   UNL     1       9.448   9.545  19.449  0.00  0.00    +0.000 OA
ATOM      3  N   UNL     1       7.969   9.160  17.722  0.00  0.00    +0.000 N 
ATOM      4  C   UNL     1       7.834   7.798  17.935  0.00  0.00    +0.000 C 
ATOM      5  O   UNL     1       8.435   7.137  18.781  0.00  0.00    +0.000 OA
ATOM      6  H   UNL     1       7.334   9.590  17.062  0.00  0.00    +0.000 HD
ENDROOT
BRANCH   1  10
ATOM      7  C   UNL     1       9.191  14.216  17.824  0.00  0.00    +0.000 A 
ATOM      8  C   UNL     1      10.081  13.507  18.622  0.00  0.00    +0.000 A 
ATOM      9  C   UNL     1       9.903  12.139  18.829  0.00  0.00    +0.000 A 
ATOM     10  C   UNL     1       8.821  11.441  18.256  0.00  0.00    +0.000 A 
ATOM     11  C   UNL     1       7.912  12.168  17.476  0.00  0.00    +0.000 A 
ATOM     12  C   UNL     1       8.098  13.550  17.263  0.00  0.00    +0.000 A 
BRANCH   7  14
ATOM     13  C   UNL     1      10.813  15.934  17.939  0.00  0.00    +0.000 C 
ATOM     14  O   UNL     1       9.466  15.549  17.701  0.00  0.00    +0.000 OA
ENDBRANCH   7  14
ENDBRANCH   1  10
BRANCH   4  15
ATOM     15  C   UNL     1       6.867   7.106  16.992  0.00  0.00    +0.000 C 
BRANCH  15  16
ATOM     16  S   UNL     1       6.963   5.309  17.179  0.00  0.00    +0.000 S 
BRANCH  16  17
ATOM     17  C   UNL     1       5.546   4.980  18.131  0.00  0.00    +0.000 A 
ATOM     18  N   UNL     1       5.290   3.765  18.696  0.00  0.00    +0.000 NA
ATOM     19  C   UNL     1       4.192   3.987  19.390  0.00  0.00    +0.000 A 
ATOM     20  N   UNL     1       3.503   3.123  20.191  0.00  0.00    +0.000 NA
ATOM     21  C   UNL     1       2.441   3.599  20.774  0.00  0.00    +0.000 A 
ATOM     22  C   UNL     1       1.643   2.691  21.675  0.00  0.00    +0.000 C 
ATOM     23  C   UNL     1       1.928   5.001  20.627  0.00  0.00    +0.000 A 
ATOM     24  C   UNL     1       2.630   5.816  19.820  0.00  0.00    +0.000 A 
ATOM     25  C   UNL     1       2.240   7.241  19.570  0.00  0.00    +0.000 C 
ATOM     26  N   UNL     1       3.778   5.314  19.195  0.00  0.00    +0.000 N 
ATOM     27  N   UNL     1       4.652   5.935  18.375  0.00  0.00    +0.000 NA
ENDBRANCH  16  17
ENDBRANCH  15  16
ENDBRANCH   4  15
TORSDOF 5
ENDMDL
MODEL 6
REMARK VINA RESULT:      -7.7      1.134      1.450
REMARK  Name = 
REMARK  8 active torsions:
REMARK  status: ('A' for Active; 'I' for Inactive)
REMARK    1  A    between atoms: C_1  and  O_2
REMARK    2  A    between atoms: O_2  and  C_3
REMARK    3  A    between atoms: C_6  and  C_7
REMARK    4  A    between atoms: C_10  and  C_12
REMARK    5  A    between atoms: C_12  and  S_13
REMARK    6  A    between atoms: S_13  and  C_14
REMARK    7  A    between atoms: C_18  and  C_19
REMARK    8  A    between atoms: C_21  and  C_22
REMARK                            x       y       z     vdW  Elec       q    Type
REMARK                         _______ _______ _______ _____ _____    ______ ____
ROOT
ATOM      1  C   UNL     1       8.260   9.475  17.928  0.00  0.00    +0.000 C 
ATOM      2  O   UNL     1       7.411   9.899  17.151  0.00  0.00    +0.000 OA
ATOM      3  N   UNL     1       8.305   8.166  18.384  0.00  0.00    +0.000 N 
ATOM      4  C   UNL     1       7.413   7.196  17.954  0.00  0.00    +0.000 C 
ATOM      5  O   UNL     1       6.457   7.377  17.202  0.00  0.00    +0.000 OA
ATOM      6  H   UNL     1       9.105   7.854  18.917  0.00  0.00    +0.000 HD
ENDROOT
BRANCH   1  10
ATOM      7  C   UNL     1      11.211  12.193  19.552  0.00  0.00    +0.000 A 
ATOM      8  C   UNL     1      10.290  11.535  20.360  0.00  0.00    +0.000 A 
ATOM      9  C   UNL     1       9.350  10.673  19.795  0.00  0.00    +0.000 A 
ATOM     10  C   UNL     1       9.292  10.455  18.404  0.00  0.00    +0.000 A 
ATOM     11  C   UNL     1      10.204  11.143  17.594  0.00  0.00    +0.000 A 
ATOM     12  C   UNL     1      11.157  12.009  18.168  0.00  0.00    +0.000 A 
BRANCH   7  14
ATOM     13  C   UNL     1      11.982  14.399  19.918  0.00  0.00    +0.000 C 
ATOM     14  O   UNL     1      12.076  13.014  20.218  0.00  0.00    +0.000 OA
ENDBRANCH   7  14
ENDBRANCH   1  10
BRANCH   4  15
ATOM     15  C   UNL     1       7.669   5.811  18.519  0.00  0.00    +0.000 C 
BRANCH  15  16
ATOM     16  S   UNL     1       7.039   4.535  17.402  0.00  0.00    +0.000 S 
BRANCH  16  17
ATOM     17  C   UNL     1       5.541   4.103  18.174  0.00  0.00    +0.000 A 
ATOM     18  N   UNL     1       5.479   3.440  19.365  0.00  0.00    +0.000 NA
ATOM     19  C   UNL     1       4.186   3.409  19.617  0.00  0.00    +0.000 A 
ATOM     20  N   UNL     1       3.544   2.895  20.706  0.00  0.00    +0.000 NA
ATOM     21  C   UNL     1       2.246   2.998  20.713  0.00  0.00    +0.000 A 
ATOM     22  C   UNL     1       1.485   2.452  21.895  0.00  0.00    +0.000 C 
ATOM     23  C   UNL     1       1.422   3.625  19.629  0.00  0.00    +0.000 A 
ATOM     24  C   UNL     1       2.092   4.109  18.568  0.00  0.00    +0.000 A 
ATOM     25  C   UNL     1       1.408   4.759  17.404  0.00  0.00    +0.000 C 
ATOM     26  N   UNL     1       3.489   4.009  18.556  0.00  0.00    +0.000 N 
ATOM     27  N   UNL     1       4.374   4.439  17.632  0.00  0.00    +0.000 NA
ENDBRANCH  16  17
ENDBRANCH  15  16
ENDBRANCH   4  15
TORSDOF 5
ENDMDL
MODEL 7
REMARK VINA RESULT:      -7.7      4.814      6.347
REMARK  Name = 
REMARK  8 active torsions:
REMARK  status: ('A' for Active; 'I' for Inactive)
REMARK    1  A    between atoms: C_1  and  O_2
REMARK    2  A    between atoms: O_2  and  C_3
REMARK    3  A    between atoms: C_6  and  C_7
REMARK    4  A    between atoms: C_10  and  C_12
REMARK    5  A    between atoms: C_12  and  S_13
REMARK    6  A    between atoms: S_13  and  C_14
REMARK    7  A    between atoms: C_18  and  C_19
REMARK    8  A    between atoms: C_21  and  C_22
REMARK                            x       y       z     vdW  Elec       q    Type
REMARK                         _______ _______ _______ _____ _____    ______ ____
ROOT
ATOM      1  C   UNL     1       3.263   7.693  17.773  0.00  0.00    +0.000 C 
ATOM      2  O   UNL     1       2.849   8.016  16.665  0.00  0.00    +0.000 OA
ATOM      3  N   UNL     1       4.501   7.107  17.993  0.00  0.00    +0.000 N 
ATOM      4  C   UNL     1       5.413   6.884  16.973  0.00  0.00    +0.000 C 
ATOM      5  O   UNL     1       5.223   7.095  15.777  0.00  0.00    +0.000 OA
ATOM      6  H   UNL     1       4.830   6.987  18.942  0.00  0.00    +0.000 HD
ENDROOT
BRANCH   1  10
ATOM      7  C   UNL     1       0.497   8.600  20.975  0.00  0.00    +0.000 A 
ATOM      8  C   UNL     1       0.682   9.457  19.896  0.00  0.00    +0.000 A 
ATOM      9  C   UNL     1       1.591   9.131  18.888  0.00  0.00    +0.000 A 
ATOM     10  C   UNL     1       2.351   7.945  18.937  0.00  0.00    +0.000 A 
ATOM     11  C   UNL     1       2.179   7.101  20.041  0.00  0.00    +0.000 A 
ATOM     12  C   UNL     1       1.256   7.430  21.055  0.00  0.00    +0.000 A 
BRANCH   7  14
ATOM     13  C   UNL     1       0.118   9.497  23.131  0.00  0.00    +0.000 C 
ATOM     14  O   UNL     1      -0.414   9.029  21.899  0.00  0.00    +0.000 OA
ENDBRANCH   7  14
ENDBRANCH   1  10
BRANCH   4  15
ATOM     15  C   UNL     1       6.735   6.295  17.430  0.00  0.00    +0.000 C 
BRANCH  15  16
ATOM     16  S   UNL     1       6.751   4.501  17.203  0.00  0.00    +0.000 S 
BRANCH  16  17
ATOM     17  C   UNL     1       5.305   4.029  18.047  0.00  0.00    +0.000 A 
ATOM     18  N   UNL     1       5.313   3.495  19.303  0.00  0.00    +0.000 NA
ATOM     19  C   UNL     1       4.031   3.383  19.583  0.00  0.00    +0.000 A 
ATOM     20  N   UNL     1       3.448   2.936  20.734  0.00  0.00    +0.000 NA
ATOM     21  C   UNL     1       2.147   2.930  20.757  0.00  0.00    +0.000 A 
ATOM     22  C   UNL     1       1.449   2.451  22.005  0.00  0.00    +0.000 C 
ATOM     23  C   UNL     1       1.259   3.365  19.629  0.00  0.00    +0.000 A 
ATOM     24  C   UNL     1       1.873   3.787  18.510  0.00  0.00    +0.000 A 
ATOM     25  C   UNL     1       1.122   4.248  17.298  0.00  0.00    +0.000 C 
ATOM     26  N   UNL     1       3.273   3.804  18.479  0.00  0.00    +0.000 N 
ATOM     27  N   UNL     1       4.107   4.206  17.497  0.00  0.00    +0.000 NA
ENDBRANCH  16  17
ENDBRANCH  15  16
ENDBRANCH   4  15
TORSDOF 5
ENDMDL
MODEL 8
REMARK VINA RESULT:      -7.7      1.085      1.085
REMARK  Name = 
REMARK  8 active torsions:
REMARK  status: ('A' for Active; 'I' for Inactive)
REMARK    1  A    between atoms: C_1  and  O_2
REMARK    2  A    between atoms: O_2  and  C_3
REMARK    3  A    between atoms: C_6  and  C_7
REMARK    4  A    between atoms: C_10  and  C_12
REMARK    5  A    between atoms: C_12  and  S_13
REMARK    6  A    between atoms: S_13  and  C_14
REMARK    7  A    between atoms: C_18  and  C_19
REMARK    8  A    between atoms: C_21  and  C_22
REMARK                            x       y       z     vdW  Elec       q    Type
REMARK                         _______ _______ _______ _____ _____    ______ ____
ROOT
ATOM      1  C   UNL     1       8.577   9.707  18.156  0.00  0.00    +0.000 C 
ATOM      2  O   UNL     1       7.917  10.095  17.199  0.00  0.00    +0.000 OA
ATOM      3  N   UNL     1       8.499   8.425  18.678  0.00  0.00    +0.000 N 
ATOM      4  C   UNL     1       7.697   7.440  18.122  0.00  0.00    +0.000 C 
ATOM      5  O   UNL     1       6.923   7.589  17.178  0.00  0.00    +0.000 OA
ATOM      6  H   UNL     1       9.165   8.135  19.382  0.00  0.00    +0.000 HD
ENDROOT
BRANCH   1  10
ATOM      7  C   UNL     1      11.264  12.710  19.736  0.00  0.00    +0.000 A 
ATOM      8  C   UNL     1      11.134  12.482  18.370  0.00  0.00    +0.000 A 
ATOM      9  C   UNL     1      10.262  11.498  17.902  0.00  0.00    +0.000 A 
ATOM     10  C   UNL     1       9.506  10.702  18.787  0.00  0.00    +0.000 A 
ATOM     11  C   UNL     1       9.664  10.919  20.161  0.00  0.00    +0.000 A 
ATOM     12  C   UNL     1      10.540  11.918  20.631  0.00  0.00    +0.000 A 
BRANCH   7  14
ATOM     13  C   UNL     1      11.615  15.005  20.186  0.00  0.00    +0.000 C 
ATOM     14  O   UNL     1      12.150  13.694  20.072  0.00  0.00    +0.000 OA
ENDBRANCH   7  14
ENDBRANCH   1  10
BRANCH   4  15
ATOM     15  C   UNL     1       7.802   6.086  18.799  0.00  0.00    +0.000 C 
BRANCH  15  16
ATOM     16  S   UNL     1       7.421   4.756  17.634  0.00  0.00    +0.000 S 
BRANCH  16  17
ATOM     17  C   UNL     1       5.733   4.482  17.955  0.00  0.00    +0.000 A 
ATOM     18  N   UNL     1       5.104   3.301  17.692  0.00  0.00    +0.000 NA
ATOM     19  C   UNL     1       3.893   3.499  18.169  0.00  0.00    +0.000 A 
ATOM     20  N   UNL     1       2.842   2.629  18.210  0.00  0.00    +0.000 NA
ATOM     21  C   UNL     1       1.743   3.076  18.746  0.00  0.00    +0.000 A 
ATOM     22  C   UNL     1       0.550   2.157  18.823  0.00  0.00    +0.000 C 
ATOM     23  C   UNL     1       1.552   4.454  19.307  0.00  0.00    +0.000 A 
ATOM     24  C   UNL     1       2.608   5.283  19.237  0.00  0.00    +0.000 A 
ATOM     25  C   UNL     1       2.569   6.691  19.750  0.00  0.00    +0.000 C 
ATOM     26  N   UNL     1       3.796   4.808  18.669  0.00  0.00    +0.000 N 
ATOM     27  N   UNL     1       4.984   5.430  18.513  0.00  0.00    +0.000 NA
ENDBRANCH  16  17
ENDBRANCH  15  16
ENDBRANCH   4  15
TORSDOF 5
ENDMDL
MODEL 9
REMARK VINA RESULT:      -7.7      6.652      9.776
REMARK  Name = 
REMARK  8 active torsions:
REMARK  status: ('A' for Active; 'I' for Inactive)
REMARK    1  A    between atoms: C_1  and  O_2
REMARK    2  A    between atoms: O_2  and  C_3
REMARK    3  A    between atoms: C_6  and  C_7
REMARK    4  A    between atoms: C_10  and  C_12
REMARK    5  A    between atoms: C_12  and  S_13
REMARK    6  A    between atoms: S_13  and  C_14
REMARK    7  A    between atoms: C_18  and  C_19
REMARK    8  A    between atoms: C_21  and  C_22
REMARK                            x       y       z     vdW  Elec       q    Type
REMARK                         _______ _______ _______ _____ _____    ______ ____
ROOT
ATOM      1  C   UNL     1       2.613   7.159  18.747  0.00  0.00    +0.000 C 
ATOM      2  O   UNL     1       2.229   6.629  19.783  0.00  0.00    +0.000 OA
ATOM      3  N   UNL     1       2.255   8.441  18.357  0.00  0.00    +0.000 N 
ATOM      4  C   UNL     1       1.464   9.266  19.142  0.00  0.00    +0.000 C 
ATOM      5  O   UNL     1       0.935   8.956  20.208  0.00  0.00    +0.000 OA
ATOM      6  H   UNL     1       2.711   8.862  17.559  0.00  0.00    +0.000 HD
ENDROOT
BRANCH   1  10
ATOM      7  C   UNL     1       5.024   4.611  16.211  0.00  0.00    +0.000 A 
ATOM      8  C   UNL     1       4.043   4.098  17.053  0.00  0.00    +0.000 A 
ATOM      9  C   UNL     1       3.293   4.954  17.861  0.00  0.00    +0.000 A 
ATOM     10  C   UNL     1       3.512   6.346  17.863  0.00  0.00    +0.000 A 
ATOM     11  C   UNL     1       4.521   6.852  17.033  0.00  0.00    +0.000 A 
ATOM     12  C   UNL     1       5.273   5.986  16.213  0.00  0.00    +0.000 A 
BRANCH   7  14
ATOM     13  C   UNL     1       6.477   4.172  14.397  0.00  0.00    +0.000 C 
ATOM     14  O   UNL     1       5.694   3.676  15.474  0.00  0.00    +0.000 OA
ENDBRANCH   7  14
ENDBRANCH   1  10
BRANCH   4  15
ATOM     15  C   UNL     1       1.240  10.654  18.570  0.00  0.00    +0.000 C 
BRANCH  15  16
ATOM     16  S   UNL     1       0.349  11.697  19.748  0.00  0.00    +0.000 S 
BRANCH  16  17
ATOM     17  C   UNL     1      -1.270  11.638  19.113  0.00  0.00    +0.000 A 
ATOM     18  N   UNL     1      -2.370  11.997  19.835  0.00  0.00    +0.000 NA
ATOM     19  C   UNL     1      -3.346  11.894  18.957  0.00  0.00    +0.000 A 
ATOM     20  N   UNL     1      -4.672  12.170  19.123  0.00  0.00    +0.000 NA
ATOM     21  C   UNL     1      -5.434  11.987  18.084  0.00  0.00    +0.000 A 
ATOM     22  C   UNL     1      -6.908  12.282  18.208  0.00  0.00    +0.000 C 
ATOM     23  C   UNL     1      -4.969  11.501  16.744  0.00  0.00    +0.000 A 
ATOM     24  C   UNL     1      -3.657  11.229  16.626  0.00  0.00    +0.000 A 
ATOM     25  C   UNL     1      -3.044  10.730  15.353  0.00  0.00    +0.000 C 
ATOM     26  N   UNL     1      -2.829  11.430  17.737  0.00  0.00    +0.000 N 
ATOM     27  N   UNL     1      -1.495  11.259  17.857  0.00  0.00    +0.000 NA
ENDBRANCH  16  17
ENDBRANCH  15  16
ENDBRANCH   4  15
TORSDOF 5
ENDMDL
