MODEL 1
REMARK VINA RESULT:      -8.1      0.000      0.000
REMARK  Name = 
REMARK  5 active torsions:
REMARK  status: ('A' for Active; 'I' for Inactive)
REMARK    1  A    between atoms: C_1  and  C_2
REMARK    2  A    between atoms: C_11  and  S_12
REMARK    3  A    between atoms: N_13  and  C_14
REMARK    4  A    between atoms: C_17  and  S_18
REMARK    5  A    between atoms: S_18  and  N_19
REMARK                            x       y       z     vdW  Elec       q    Type
REMARK                         _______ _______ _______ _____ _____    ______ ____
ROOT
ATOM      1  C   UNL     1       1.337   3.205  18.247  0.00  0.00    +0.000 C 
ATOM      2  C   UNL     1       2.794   3.570  18.554  0.00  0.00    +0.000 C 
ATOM      3  C   UNL     1       3.723   2.916  17.503  0.00  0.00    +0.000 C 
ATOM      4  C   UNL     1       4.324   4.093  16.836  0.00  0.00    +0.000 A 
ATOM      5  C   UNL     1       5.215   4.091  15.769  0.00  0.00    +0.000 A 
ATOM      6  C   UNL     1       5.705   5.309  15.307  0.00  0.00    +0.000 A 
ATOM      7  C   UNL     1       5.304   6.504  15.926  0.00  0.00    +0.000 A 
ATOM      8  C   UNL     1       4.405   6.490  16.997  0.00  0.00    +0.000 A 
ATOM      9  C   UNL     1       3.908   5.280  17.461  0.00  0.00    +0.000 A 
ATOM     10  N   UNL     1       3.028   5.031  18.546  0.00  0.00    +0.000 N 
ATOM     11  C   UNL     1       2.439   5.989  19.373  0.00  0.00    +0.000 C 
ATOM     12  N   UNL     1       2.413   7.263  19.090  0.00  0.00    +0.000 NA
ENDROOT
BRANCH  12  13
ATOM     13  C   UNL     1       1.761   8.265  19.821  0.00  0.00    +0.000 A 
ATOM     14  C   UNL     1       1.584   8.244  21.206  0.00  0.00    +0.000 A 
ATOM     15  C   UNL     1       0.786   9.190  21.840  0.00  0.00    +0.000 A 
ATOM     16  C   UNL     1       0.250  10.240  21.098  0.00  0.00    +0.000 A 
ATOM     17  C   UNL     1       0.539  10.377  19.743  0.00  0.00    +0.000 A 
ATOM     18  C   UNL     1       1.289   9.383  19.111  0.00  0.00    +0.000 A 
BRANCH  16  19
ATOM     19  S   UNL     1      -0.768  11.420  21.919  0.00  0.00    +0.000 S 
ATOM     20  O   UNL     1      -1.886  11.764  21.075  0.00  0.00    +0.000 OA
ATOM     21  O   UNL     1      -0.924  11.028  23.301  0.00  0.00    +0.000 OA
BRANCH  19  22
ATOM     22  N   UNL     1       0.290  12.716  21.890  0.00  0.00    +0.000 NA
ATOM     23  H   UNL     1       0.210  13.315  22.707  0.00  0.00    +0.000 HD
ATOM     24  H   UNL     1       1.221  12.468  21.565  0.00  0.00    +0.000 HD
ENDBRANCH  19  22
ENDBRANCH  16  19
ENDBRANCH  12  13
BRANCH  11  25
ATOM     25  S   UNL     1       1.744   5.328  20.872  0.00  0.00    +0.000 S 
ATOM     26  H   UNL     1       2.220   4.090  20.683  0.00  0.00    +0.000 HD
ENDBRANCH  11  25
TORSDOF 4
ENDMDL
MODEL 2
REMARK VINA RESULT:      -7.9      0.857      1.422
REMARK  Name = 
REMARK  5 active torsions:
REMARK  status: ('A' for Active; 'I' for Inactive)
REMARK    1  A    between atoms: C_1  and  C_2
REMARK    2  A    between atoms: C_11  and  S_12
REMARK    3  A    between atoms: N_13  and  C_14
REMARK    4  A    between atoms: C_17  and  S_18
REMARK    5  A    between atoms: S_18  and  N_19
REMARK                            x       y       z     vdW  Elec       q    Type
REMARK                         _______ _______ _______ _____ _____    ______ ____
ROOT
ATOM      1  C   UNL     1       1.598   3.045  18.201  0.00  0.00    +0.000 C 
ATOM      2  C   UNL     1       3.023   3.501  18.534  0.00  0.00    +0.000 C 
ATOM      3  C   UNL     1       4.026   2.792  17.591  0.00  0.00    +0.000 C 
ATOM      4  C   UNL     1       4.609   3.927  16.840  0.00  0.00    +0.000 A 
ATOM      5  C   UNL     1       5.549   3.864  15.818  0.00  0.00    +0.000 A 
ATOM      6  C   UNL     1       6.010   5.054  15.262  0.00  0.00    +0.000 A 
ATOM      7  C   UNL     1       5.534   6.282  15.745  0.00  0.00    +0.000 A 
ATOM      8  C   UNL     1       4.587   6.330  16.774  0.00  0.00    +0.000 A 
ATOM      9  C   UNL     1       4.117   5.148  17.330  0.00  0.00    +0.000 A 
ATOM     10  N   UNL     1       3.199   4.963  18.395  0.00  0.00    +0.000 N 
ATOM     11  C   UNL     1       2.533   5.968  19.101  0.00  0.00    +0.000 C 
ATOM     12  N   UNL     1       2.470   7.207  18.696  0.00  0.00    +0.000 NA
ENDROOT
BRANCH  12  13
ATOM     13  C   UNL     1       1.745   8.244  19.299  0.00  0.00    +0.000 A 
ATOM     14  C   UNL     1       1.196   9.328  18.609  0.00  0.00    +0.000 A 
ATOM     15  C   UNL     1       0.633  10.400  19.294  0.00  0.00    +0.000 A 
ATOM     16  C   UNL     1       0.511  10.338  20.680  0.00  0.00    +0.000 A 
ATOM     17  C   UNL     1       0.905   9.201  21.382  0.00  0.00    +0.000 A 
ATOM     18  C   UNL     1       1.527   8.162  20.685  0.00  0.00    +0.000 A 
BRANCH  16  19
ATOM     19  S   UNL     1      -0.195  11.711  21.527  0.00  0.00    +0.000 S 
ATOM     20  O   UNL     1       0.797  12.748  21.676  0.00  0.00    +0.000 OA
ATOM     21  O   UNL     1      -1.516  11.963  20.998  0.00  0.00    +0.000 OA
BRANCH  19  22
ATOM     22  N   UNL     1      -0.392  10.997  23.027  0.00  0.00    +0.000 NA
ATOM     23  H   UNL     1       0.461  10.576  23.384  0.00  0.00    +0.000 HD
ATOM     24  H   UNL     1      -0.960  11.550  23.664  0.00  0.00    +0.000 HD
ENDBRANCH  19  22
ENDBRANCH  16  19
ENDBRANCH  12  13
BRANCH  11  25
ATOM     25  S   UNL     1       1.797   5.421  20.625  0.00  0.00    +0.000 S 
ATOM     26  H   UNL     1       0.999   6.489  20.758  0.00  0.00    +0.000 HD
ENDBRANCH  11  25
TORSDOF 4
ENDMDL
MODEL 3
REMARK VINA RESULT:      -7.9      4.256      8.192
REMARK  Name = 
REMARK  5 active torsions:
REMARK  status: ('A' for Active; 'I' for Inactive)
REMARK    1  A    between atoms: C_1  and  C_2
REMARK    2  A    between atoms: C_11  and  S_12
REMARK    3  A    between atoms: N_13  and  C_14
REMARK    4  A    between atoms: C_17  and  S_18
REMARK    5  A    between atoms: S_18  and  N_19
REMARK                            x       y       z     vdW  Elec       q    Type
REMARK                         _______ _______ _______ _____ _____    ______ ____
ROOT
ATOM      1  C   UNL     1      -0.940  10.073  17.635  0.00  0.00    +0.000 C 
ATOM      2  C   UNL     1      -0.038  10.738  18.682  0.00  0.00    +0.000 C 
ATOM      3  C   UNL     1      -0.826  11.853  19.410  0.00  0.00    +0.000 C 
ATOM      4  C   UNL     1      -0.860  11.358  20.805  0.00  0.00    +0.000 A 
ATOM      5  C   UNL     1      -1.486  11.953  21.893  0.00  0.00    +0.000 A 
ATOM      6  C   UNL     1      -1.366  11.352  23.143  0.00  0.00    +0.000 A 
ATOM      7  C   UNL     1      -0.614  10.175  23.283  0.00  0.00    +0.000 A 
ATOM      8  C   UNL     1       0.009   9.586  22.177  0.00  0.00    +0.000 A 
ATOM      9  C   UNL     1      -0.110  10.176  20.926  0.00  0.00    +0.000 A 
ATOM     10  N   UNL     1       0.464   9.779  19.691  0.00  0.00    +0.000 N 
ATOM     11  C   UNL     1       1.264   8.656  19.471  0.00  0.00    +0.000 C 
ATOM     12  N   UNL     1       1.374   7.675  20.324  0.00  0.00    +0.000 NA
ENDROOT
BRANCH  12  13
ATOM     13  C   UNL     1       2.079   6.479  20.132  0.00  0.00    +0.000 A 
ATOM     14  C   UNL     1       3.340   6.393  19.539  0.00  0.00    +0.000 A 
ATOM     15  C   UNL     1       3.905   5.159  19.234  0.00  0.00    +0.000 A 
ATOM     16  C   UNL     1       3.254   3.993  19.630  0.00  0.00    +0.000 A 
ATOM     17  C   UNL     1       2.071   4.049  20.363  0.00  0.00    +0.000 A 
ATOM     18  C   UNL     1       1.487   5.294  20.604  0.00  0.00    +0.000 A 
BRANCH  16  19
ATOM     19  S   UNL     1       3.981   2.441  19.223  0.00  0.00    +0.000 S 
ATOM     20  O   UNL     1       5.028   2.137  20.167  0.00  0.00    +0.000 OA
ATOM     21  O   UNL     1       2.934   1.504  18.887  0.00  0.00    +0.000 OA
BRANCH  19  22
ATOM     22  N   UNL     1       4.722   2.888  17.791  0.00  0.00    +0.000 NA
ATOM     23  H   UNL     1       5.732   2.966  17.872  0.00  0.00    +0.000 HD
ATOM     24  H   UNL     1       4.339   2.416  16.975  0.00  0.00    +0.000 HD
ENDBRANCH  19  22
ENDBRANCH  16  19
ENDBRANCH  12  13
BRANCH  11  25
ATOM     25  S   UNL     1       2.151   8.687  17.929  0.00  0.00    +0.000 S 
ATOM     26  H   UNL     1       3.185   7.962  18.377  0.00  0.00    +0.000 HD
ENDBRANCH  11  25
TORSDOF 4
ENDMDL
MODEL 4
REMARK VINA RESULT:      -7.7      4.124      7.879
REMARK  Name = 
REMARK  5 active torsions:
REMARK  status: ('A' for Active; 'I' for Inactive)
REMARK    1  A    between atoms: C_1  and  C_2
REMARK    2  A    between atoms: C_11  and  S_12
REMARK    3  A    between atoms: N_13  and  C_14
REMARK    4  A    between atoms: C_17  and  S_18
REMARK    5  A    between atoms: S_18  and  N_19
REMARK                            x       y       z     vdW  Elec       q    Type
REMARK                         _______ _______ _______ _____ _____    ______ ____
ROOT
ATOM      1  C   UNL     1       0.911  12.232  20.816  0.00  0.00    +0.000 C 
ATOM      2  C   UNL     1      -0.295  11.290  20.725  0.00  0.00    +0.000 C 
ATOM      3  C   UNL     1      -1.544  12.091  20.283  0.00  0.00    +0.000 C 
ATOM      4  C   UNL     1      -1.873  11.469  18.980  0.00  0.00    +0.000 A 
ATOM      5  C   UNL     1      -2.895  11.832  18.111  0.00  0.00    +0.000 A 
ATOM      6  C   UNL     1      -3.072  11.092  16.945  0.00  0.00    +0.000 A 
ATOM      7  C   UNL     1      -2.233   9.999  16.676  0.00  0.00    +0.000 A 
ATOM      8  C   UNL     1      -1.208   9.647  17.561  0.00  0.00    +0.000 A 
ATOM      9  C   UNL     1      -1.021  10.383  18.723  0.00  0.00    +0.000 A 
ATOM     10  N   UNL     1      -0.082  10.183  19.767  0.00  0.00    +0.000 N 
ATOM     11  C   UNL     1       0.900   9.191  19.821  0.00  0.00    +0.000 C 
ATOM     12  N   UNL     1       1.254   8.475  18.790  0.00  0.00    +0.000 NA
ENDROOT
BRANCH  12  13
ATOM     13  C   UNL     1       2.291   7.533  18.746  0.00  0.00    +0.000 A 
ATOM     14  C   UNL     1       2.399   6.438  19.606  0.00  0.00    +0.000 A 
ATOM     15  C   UNL     1       3.540   5.642  19.610  0.00  0.00    +0.000 A 
ATOM     16  C   UNL     1       4.536   5.870  18.664  0.00  0.00    +0.000 A 
ATOM     17  C   UNL     1       4.385   6.854  17.690  0.00  0.00    +0.000 A 
ATOM     18  C   UNL     1       3.264   7.686  17.742  0.00  0.00    +0.000 A 
BRANCH  16  19
ATOM     19  S   UNL     1       5.976   4.856  18.694  0.00  0.00    +0.000 S 
ATOM     20  O   UNL     1       6.451   4.652  17.347  0.00  0.00    +0.000 OA
ATOM     21  O   UNL     1       6.838   5.293  19.769  0.00  0.00    +0.000 OA
BRANCH  19  22
ATOM     22  N   UNL     1       5.258   3.427  19.186  0.00  0.00    +0.000 NA
ATOM     23  H   UNL     1       5.900   2.804  19.669  0.00  0.00    +0.000 HD
ATOM     24  H   UNL     1       4.328   3.558  19.576  0.00  0.00    +0.000 HD
ENDBRANCH  19  22
ENDBRANCH  16  19
ENDBRANCH  12  13
BRANCH  11  25
ATOM     25  S   UNL     1       1.614   8.962  21.435  0.00  0.00    +0.000 S 
ATOM     26  H   UNL     1       2.781   8.490  20.978  0.00  0.00    +0.000 HD
ENDBRANCH  11  25
TORSDOF 4
ENDMDL
MODEL 5
REMARK VINA RESULT:      -7.6      2.062      2.368
REMARK  Name = 
REMARK  5 active torsions:
REMARK  status: ('A' for Active; 'I' for Inactive)
REMARK    1  A    between atoms: C_1  and  C_2
REMARK    2  A    between atoms: C_11  and  S_12
REMARK    3  A    between atoms: N_13  and  C_14
REMARK    4  A    between atoms: C_17  and  S_18
REMARK    5  A    between atoms: S_18  and  N_19
REMARK                            x       y       z     vdW  Elec       q    Type
REMARK                         _______ _______ _______ _____ _____    ______ ____
ROOT
ATOM      1  C   UNL     1       1.670   4.054  18.896  0.00  0.00    +0.000 C 
ATOM      2  C   UNL     1       3.092   4.616  19.012  0.00  0.00    +0.000 C 
ATOM      3  C   UNL     1       4.093   3.625  18.370  0.00  0.00    +0.000 C 
ATOM      4  C   UNL     1       4.646   4.417  17.247  0.00  0.00    +0.000 A 
ATOM      5  C   UNL     1       5.570   3.997  16.298  0.00  0.00    +0.000 A 
ATOM      6  C   UNL     1       6.003   4.910  15.340  0.00  0.00    +0.000 A 
ATOM      7  C   UNL     1       5.512   6.224  15.354  0.00  0.00    +0.000 A 
ATOM      8  C   UNL     1       4.580   6.631  16.315  0.00  0.00    +0.000 A 
ATOM      9  C   UNL     1       4.139   5.727  17.271  0.00  0.00    +0.000 A 
ATOM     10  N   UNL     1       3.240   5.931  18.349  0.00  0.00    +0.000 N 
ATOM     11  C   UNL     1       2.567   7.116  18.655  0.00  0.00    +0.000 C 
ATOM     12  N   UNL     1       2.476   8.122  17.830  0.00  0.00    +0.000 NA
ENDROOT
BRANCH  12  13
ATOM     13  C   UNL     1       1.742   9.299  18.031  0.00  0.00    +0.000 A 
ATOM     14  C   UNL     1       2.308  10.544  18.312  0.00  0.00    +0.000 A 
ATOM     15  C   UNL     1       1.511  11.630  18.660  0.00  0.00    +0.000 A 
ATOM     16  C   UNL     1       0.125  11.503  18.615  0.00  0.00    +0.000 A 
ATOM     17  C   UNL     1      -0.471  10.320  18.185  0.00  0.00    +0.000 A 
ATOM     18  C   UNL     1       0.344   9.221  17.901  0.00  0.00    +0.000 A 
BRANCH  16  19
ATOM     19  S   UNL     1      -0.865  12.887  19.071  0.00  0.00    +0.000 S 
ATOM     20  O   UNL     1      -1.194  12.805  20.473  0.00  0.00    +0.000 OA
ATOM     21  O   UNL     1      -0.316  14.079  18.466  0.00  0.00    +0.000 OA
BRANCH  19  22
ATOM     22  N   UNL     1      -2.247  12.491  18.215  0.00  0.00    +0.000 NA
ATOM     23  H   UNL     1      -2.576  13.245  17.618  0.00  0.00    +0.000 HD
ATOM     24  H   UNL     1      -2.228  11.549  17.834  0.00  0.00    +0.000 HD
ENDBRANCH  19  22
ENDBRANCH  16  19
ENDBRANCH  12  13
BRANCH  11  25
ATOM     25  S   UNL     1       1.863   7.151  20.289  0.00  0.00    +0.000 S 
ATOM     26  H   UNL     1       1.390   5.898  20.237  0.00  0.00    +0.000 HD
ENDBRANCH  11  25
TORSDOF 4
ENDMDL
MODEL 6
REMARK VINA RESULT:      -7.5      1.082      1.259
REMARK  Name = 
REMARK  5 active torsions:
REMARK  status: ('A' for Active; 'I' for Inactive)
REMARK    1  A    between atoms: C_1  and  C_2
REMARK    2  A    between atoms: C_11  and  S_12
REMARK    3  A    between atoms: N_13  and  C_14
REMARK    4  A    between atoms: C_17  and  S_18
REMARK    5  A    between atoms: S_18  and  N_19
REMARK                            x       y       z     vdW  Elec       q    Type
REMARK                         _______ _______ _______ _____ _____    ______ ____
ROOT
ATOM      1  C   UNL     1       1.549   3.122  18.201  0.00  0.00    +0.000 C 
ATOM      2  C   UNL     1       2.989   3.541  18.521  0.00  0.00    +0.000 C 
ATOM      3  C   UNL     1       3.968   2.760  17.611  0.00  0.00    +0.000 C 
ATOM      4  C   UNL     1       4.594   3.843  16.818  0.00  0.00    +0.000 A 
ATOM      5  C   UNL     1       5.533   3.706  15.803  0.00  0.00    +0.000 A 
ATOM      6  C   UNL     1       6.038   4.856  15.202  0.00  0.00    +0.000 A 
ATOM      7  C   UNL     1       5.604   6.119  15.634  0.00  0.00    +0.000 A 
ATOM      8  C   UNL     1       4.656   6.241  16.657  0.00  0.00    +0.000 A 
ATOM      9  C   UNL     1       4.144   5.099  17.257  0.00  0.00    +0.000 A 
ATOM     10  N   UNL     1       3.216   4.989  18.325  0.00  0.00    +0.000 N 
ATOM     11  C   UNL     1       2.585   6.045  18.988  0.00  0.00    +0.000 C 
ATOM     12  N   UNL     1       2.566   7.268  18.534  0.00  0.00    +0.000 NA
ENDROOT
BRANCH  12  13
ATOM     13  C   UNL     1       1.877   8.353  19.092  0.00  0.00    +0.000 A 
ATOM     14  C   UNL     1       1.532   8.459  20.441  0.00  0.00    +0.000 A 
ATOM     15  C   UNL     1       0.706   9.485  20.890  0.00  0.00    +0.000 A 
ATOM     16  C   UNL     1       0.313  10.483  20.002  0.00  0.00    +0.000 A 
ATOM     17  C   UNL     1       0.770  10.491  18.687  0.00  0.00    +0.000 A 
ATOM     18  C   UNL     1       1.546   9.419  18.238  0.00  0.00    +0.000 A 
BRANCH  16  19
ATOM     19  S   UNL     1      -0.742  11.766  20.589  0.00  0.00    +0.000 S 
ATOM     20  O   UNL     1      -1.293  11.390  21.869  0.00  0.00    +0.000 OA
ATOM     21  O   UNL     1      -0.107  13.042  20.356  0.00  0.00    +0.000 OA
BRANCH  19  22
ATOM     22  N   UNL     1      -1.966  11.611  19.460  0.00  0.00    +0.000 NA
ATOM     23  H   UNL     1      -1.661  11.807  18.510  0.00  0.00    +0.000 HD
ATOM     24  H   UNL     1      -2.558  10.799  19.617  0.00  0.00    +0.000 HD
ENDBRANCH  19  22
ENDBRANCH  16  19
ENDBRANCH  12  13
BRANCH  11  25
ATOM     25  S   UNL     1       1.825   5.584  20.530  0.00  0.00    +0.000 S 
ATOM     26  H   UNL     1       2.919   5.814  21.269  0.00  0.00    +0.000 HD
ENDBRANCH  11  25
TORSDOF 4
ENDMDL
MODEL 7
REMARK VINA RESULT:      -7.5      0.942      1.139
REMARK  Name = 
REMARK  5 active torsions:
REMARK  status: ('A' for Active; 'I' for Inactive)
REMARK    1  A    between atoms: C_1  and  C_2
REMARK    2  A    between atoms: C_11  and  S_12
REMARK    3  A    between atoms: N_13  and  C_14
REMARK    4  A    between atoms: C_17  and  S_18
REMARK    5  A    between atoms: S_18  and  N_19
REMARK                            x       y       z     vdW  Elec       q    Type
REMARK                         _______ _______ _______ _____ _____    ______ ____
ROOT
ATOM      1  C   UNL     1       1.453   3.241  18.218  0.00  0.00    +0.000 C 
ATOM      2  C   UNL     1       2.906   3.619  18.530  0.00  0.00    +0.000 C 
ATOM      3  C   UNL     1       3.858   2.794  17.631  0.00  0.00    +0.000 C 
ATOM      4  C   UNL     1       4.516   3.844  16.820  0.00  0.00    +0.000 A 
ATOM      5  C   UNL     1       5.449   3.661  15.806  0.00  0.00    +0.000 A 
ATOM      6  C   UNL     1       5.989   4.784  15.187  0.00  0.00    +0.000 A 
ATOM      7  C   UNL     1       5.596   6.067  15.599  0.00  0.00    +0.000 A 
ATOM      8  C   UNL     1       4.654   6.235  16.620  0.00  0.00    +0.000 A 
ATOM      9  C   UNL     1       4.107   5.120  17.240  0.00  0.00    +0.000 A 
ATOM     10  N   UNL     1       3.179   5.056  18.311  0.00  0.00    +0.000 N 
ATOM     11  C   UNL     1       2.582   6.141  18.957  0.00  0.00    +0.000 C 
ATOM     12  N   UNL     1       2.601   7.357  18.483  0.00  0.00    +0.000 NA
ENDROOT
BRANCH  12  13
ATOM     13  C   UNL     1       1.947   8.472  19.025  0.00  0.00    +0.000 A 
ATOM     14  C   UNL     1       1.482   8.553  20.339  0.00  0.00    +0.000 A 
ATOM     15  C   UNL     1       0.699   9.625  20.756  0.00  0.00    +0.000 A 
ATOM     16  C   UNL     1       0.473  10.686  19.884  0.00  0.00    +0.000 A 
ATOM     17  C   UNL     1       1.055  10.708  18.619  0.00  0.00    +0.000 A 
ATOM     18  C   UNL     1       1.785   9.595  18.195  0.00  0.00    +0.000 A 
BRANCH  16  19
ATOM     19  S   UNL     1      -0.531  12.027  20.429  0.00  0.00    +0.000 S 
ATOM     20  O   UNL     1      -0.081  13.250  19.810  0.00  0.00    +0.000 OA
ATOM     21  O   UNL     1      -1.915  11.612  20.425  0.00  0.00    +0.000 OA
BRANCH  19  22
ATOM     22  N   UNL     1      -0.034  12.070  22.026  0.00  0.00    +0.000 NA
ATOM     23  H   UNL     1       0.578  11.297  22.275  0.00  0.00    +0.000 HD
ATOM     24  H   UNL     1       0.214  13.002  22.346  0.00  0.00    +0.000 HD
ENDBRANCH  19  22
ENDBRANCH  16  19
ENDBRANCH  12  13
BRANCH  11  25
ATOM     25  S   UNL     1       1.811   5.730  20.507  0.00  0.00    +0.000 S 
ATOM     26  H   UNL     1       0.991   6.790  20.512  0.00  0.00    +0.000 HD
ENDBRANCH  11  25
TORSDOF 4
ENDMDL
MODEL 8
REMARK VINA RESULT:      -7.3      1.587      3.027
REMARK  Name = 
REMARK  5 active torsions:
REMARK  status: ('A' for Active; 'I' for Inactive)
REMARK    1  A    between atoms: C_1  and  C_2
REMARK    2  A    between atoms: C_11  and  S_12
REMARK    3  A    between atoms: N_13  and  C_14
REMARK    4  A    between atoms: C_17  and  S_18
REMARK    5  A    between atoms: S_18  and  N_19
REMARK                            x       y       z     vdW  Elec       q    Type
REMARK                         _______ _______ _______ _____ _____    ______ ____
ROOT
ATOM      1  C   UNL     1       5.414   6.006  17.984  0.00  0.00    +0.000 C 
ATOM      2  C   UNL     1       4.083   5.536  17.388  0.00  0.00    +0.000 C 
ATOM      3  C   UNL     1       4.154   4.017  17.099  0.00  0.00    +0.000 C 
ATOM      4  C   UNL     1       3.114   3.474  18.003  0.00  0.00    +0.000 A 
ATOM      5  C   UNL     1       2.774   2.139  18.187  0.00  0.00    +0.000 A 
ATOM      6  C   UNL     1       1.731   1.831  19.056  0.00  0.00    +0.000 A 
ATOM      7  C   UNL     1       1.041   2.860  19.714  0.00  0.00    +0.000 A 
ATOM      8  C   UNL     1       1.396   4.200  19.519  0.00  0.00    +0.000 A 
ATOM      9  C   UNL     1       2.438   4.516  18.659  0.00  0.00    +0.000 A 
ATOM     10  N   UNL     1       2.935   5.791  18.286  0.00  0.00    +0.000 N 
ATOM     11  C   UNL     1       2.482   7.027  18.752  0.00  0.00    +0.000 C 
ATOM     12  N   UNL     1       1.711   7.161  19.797  0.00  0.00    +0.000 NA
ENDROOT
BRANCH  12  13
ATOM     13  C   UNL     1       1.296   8.368  20.376  0.00  0.00    +0.000 A 
ATOM     14  C   UNL     1       1.393   8.663  21.738  0.00  0.00    +0.000 A 
ATOM     15  C   UNL     1       0.811   9.813  22.263  0.00  0.00    +0.000 A 
ATOM     16  C   UNL     1       0.225  10.737  21.402  0.00  0.00    +0.000 A 
ATOM     17  C   UNL     1       0.253  10.546  20.022  0.00  0.00    +0.000 A 
ATOM     18  C   UNL     1       0.784   9.357  19.518  0.00  0.00    +0.000 A 
BRANCH  16  19
ATOM     19  S   UNL     1      -0.516  12.180  22.089  0.00  0.00    +0.000 S 
ATOM     20  O   UNL     1      -1.164  11.843  23.334  0.00  0.00    +0.000 OA
ATOM     21  O   UNL     1       0.401  13.288  21.960  0.00  0.00    +0.000 OA
BRANCH  19  22
ATOM     22  N   UNL     1      -1.721  12.401  20.950  0.00  0.00    +0.000 NA
ATOM     23  H   UNL     1      -2.590  11.934  21.192  0.00  0.00    +0.000 HD
ATOM     24  H   UNL     1      -1.769  13.353  20.594  0.00  0.00    +0.000 HD
ENDBRANCH  19  22
ENDBRANCH  16  19
ENDBRANCH  12  13
BRANCH  11  25
ATOM     25  S   UNL     1       3.023   8.415  17.779  0.00  0.00    +0.000 S 
ATOM     26  H   UNL     1       2.052   8.299  16.864  0.00  0.00    +0.000 HD
ENDBRANCH  11  25
TORSDOF 4
ENDMDL
MODEL 9
REMARK VINA RESULT:      -7.3      4.180      7.959
REMARK  Name = 
REMARK  5 active torsions:
REMARK  status: ('A' for Active; 'I' for Inactive)
REMARK    1  A    between atoms: C_1  and  C_2
REMARK    2  A    between atoms: C_11  and  S_12
REMARK    3  A    between atoms: N_13  and  C_14
REMARK    4  A    between atoms: C_17  and  S_18
REMARK    5  A    between atoms: S_18  and  N_19
REMARK                            x       y       z     vdW  Elec       q    Type
REMARK                         _______ _______ _______ _____ _____    ______ ____
ROOT
ATOM      1  C   UNL     1       0.650  12.320  20.840  0.00  0.00    +0.000 C 
ATOM      2  C   UNL     1      -0.516  11.334  20.700  0.00  0.00    +0.000 C 
ATOM      3  C   UNL     1      -1.781  12.094  20.234  0.00  0.00    +0.000 C 
ATOM      4  C   UNL     1      -2.049  11.482  18.912  0.00  0.00    +0.000 A 
ATOM      5  C   UNL     1      -3.058  11.820  18.018  0.00  0.00    +0.000 A 
ATOM      6  C   UNL     1      -3.173  11.093  16.837  0.00  0.00    +0.000 A 
ATOM      7  C   UNL     1      -2.286  10.037  16.576  0.00  0.00    +0.000 A 
ATOM      8  C   UNL     1      -1.274   9.710  17.485  0.00  0.00    +0.000 A 
ATOM      9  C   UNL     1      -1.148  10.433  18.663  0.00  0.00    +0.000 A 
ATOM     10  N   UNL     1      -0.233  10.252  19.731  0.00  0.00    +0.000 N 
ATOM     11  C   UNL     1       0.784   9.298  19.800  0.00  0.00    +0.000 C 
ATOM     12  N   UNL     1       1.195   8.613  18.768  0.00  0.00    +0.000 NA
ENDROOT
BRANCH  12  13
ATOM     13  C   UNL     1       2.268   7.712  18.740  0.00  0.00    +0.000 A 
ATOM     14  C   UNL     1       3.320   7.764  17.822  0.00  0.00    +0.000 A 
ATOM     15  C   UNL     1       4.261   6.742  17.753  0.00  0.00    +0.000 A 
ATOM     16  C   UNL     1       4.219   5.710  18.688  0.00  0.00    +0.000 A 
ATOM     17  C   UNL     1       3.278   5.713  19.714  0.00  0.00    +0.000 A 
ATOM     18  C   UNL     1       2.303   6.713  19.730  0.00  0.00    +0.000 A 
BRANCH  16  19
ATOM     19  S   UNL     1       5.413   4.420  18.574  0.00  0.00    +0.000 S 
ATOM     20  O   UNL     1       5.029   3.330  19.437  0.00  0.00    +0.000 OA
ATOM     21  O   UNL     1       5.773   4.231  17.188  0.00  0.00    +0.000 OA
BRANCH  19  22
ATOM     22  N   UNL     1       6.692   5.207  19.313  0.00  0.00    +0.000 NA
ATOM     23  H   UNL     1       6.807   4.952  20.290  0.00  0.00    +0.000 HD
ATOM     24  H   UNL     1       7.523   5.261  18.729  0.00  0.00    +0.000 HD
ENDBRANCH  19  22
ENDBRANCH  16  19
ENDBRANCH  12  13
BRANCH  11  25
ATOM     25  S   UNL     1       1.460   9.070  21.430  0.00  0.00    +0.000 S 
ATOM     26  H   UNL     1       1.180  10.313  21.845  0.00  0.00    +0.000 HD
ENDBRANCH  11  25
TORSDOF 4
ENDMDL
