MODEL 1
REMARK VINA RESULT:      -7.5      0.000      0.000
REMARK  Name = 
REMARK  12 active torsions:
REMARK  status: ('A' for Active; 'I' for Inactive)
REMARK    1  A    between atoms: C_1  and  C_2
REMARK    2  A    between atoms: C_2  and  N_3
REMARK    3  A    between atoms: C_4  and  C_6
REMARK    4  A    between atoms: C_9  and  C_10
REMARK    5  A    between atoms: C_12  and  C_13
REMARK    6  A    between atoms: C_13  and  C_14
REMARK    7  A    between atoms: C_13  and  C_15
REMARK    8  A    between atoms: C_16  and  O_17
REMARK    9  A    between atoms: C_19  and  O_20
REMARK   10  A    between atoms: C_21  and  N_22
REMARK   11  A    between atoms: C_23  and  C_25
REMARK   12  A    between atoms: C_28  and  C_29
REMARK                            x       y       z     vdW  Elec       q    Type
REMARK                         _______ _______ _______ _____ _____    ______ ____
ROOT
ATOM      1  C   UNL     1       0.007  10.225  22.218  0.00  0.00    +0.000 A 
ATOM      2  N   UNL     1       1.009   9.758  22.985  0.00  0.00    +0.000 NA
ATOM      3  O   UNL     1       1.641   8.800  22.232  0.00  0.00    +0.000 OA
ATOM      4  C   UNL     1       1.015   8.645  21.025  0.00  0.00    +0.000 A 
ATOM      5  C   UNL     1      -0.031   9.538  20.967  0.00  0.00    +0.000 A 
ENDROOT
BRANCH   4   6
ATOM      6  C   UNL     1       1.568   7.573  20.199  0.00  0.00    +0.000 A 
ATOM      7  C   UNL     1       1.424   6.248  20.664  0.00  0.00    +0.000 A 
ATOM      8  C   UNL     1       2.043   5.142  20.053  0.00  0.00    +0.000 A 
ATOM      9  C   UNL     1       2.790   5.400  18.899  0.00  0.00    +0.000 A 
ATOM     10  C   UNL     1       2.889   6.692  18.370  0.00  0.00    +0.000 A 
ATOM     11  C   UNL     1       2.276   7.772  19.011  0.00  0.00    +0.000 A 
BRANCH   8  12
ATOM     12  C   UNL     1       1.999   3.789  20.754  0.00  0.00    +0.000 C 
ATOM     13  C   UNL     1       0.871   2.952  20.139  0.00  0.00    +0.000 C 
ATOM     14  C   UNL     1       3.313   2.993  20.722  0.00  0.00    +0.000 C 
ENDBRANCH   8  12
BRANCH   9  15
ATOM     15  O   UNL     1       3.493   4.446  18.219  0.00  0.00    +0.000 OA
ATOM     16  H   UNL     1       4.371   4.333  18.610  0.00  0.00    +0.000 HD
ENDBRANCH   9  15
BRANCH  11  17
ATOM     17  O   UNL     1       2.396   9.026  18.469  0.00  0.00    +0.000 OA
ATOM     18  H   UNL     1       1.583   9.521  18.679  0.00  0.00    +0.000 HD
ENDBRANCH  11  17
ENDBRANCH   4   6
BRANCH   1  20
ATOM     19  N   UNL     1      -0.395  12.579  22.219  0.00  0.00    +0.000 N 
ATOM     20  C   UNL     1      -0.818  11.343  22.677  0.00  0.00    +0.000 C 
ATOM     21  O   UNL     1      -1.817  11.207  23.379  0.00  0.00    +0.000 OA
ATOM     22  H   UNL     1       0.366  12.591  21.547  0.00  0.00    +0.000 HD
BRANCH  19  24
ATOM     23  C   UNL     1      -2.012  14.310  21.588  0.00  0.00    +0.000 C 
ATOM     24  C   UNL     1      -1.055  13.787  22.639  0.00  0.00    +0.000 C 
ENDBRANCH  19  24
ENDBRANCH   1  20
BRANCH   5  25
ATOM     25  N   UNL     1      -0.908   9.689  19.905  0.00  0.00    +0.000 N 
ATOM     26  C   UNL     1      -0.592  10.519  18.842  0.00  0.00    +0.000 C 
ATOM     27  O   UNL     1       0.352  11.307  18.831  0.00  0.00    +0.000 OA
ATOM     28  H   UNL     1      -1.891   9.531  20.112  0.00  0.00    +0.000 HD
BRANCH  26  29
ATOM     29  C   UNL     1      -1.503  10.308  17.642  0.00  0.00    +0.000 C 
ATOM     30  C   UNL     1      -2.772   9.528  18.001  0.00  0.00    +0.000 C 
ATOM     31  C   UNL     1      -3.719   9.431  16.801  0.00  0.00    +0.000 C 
ATOM     32  C   UNL     1      -4.097  10.820  16.256  0.00  0.00    +0.000 C 
ATOM     33  C   UNL     1      -2.825  11.604  15.911  0.00  0.00    +0.000 C 
ATOM     34  C   UNL     1      -1.853  11.693  17.080  0.00  0.00    +0.000 C 
BRANCH  32  35
ATOM     35  C   UNL     1      -5.082  11.506  17.212  0.00  0.00    +0.000 C 
ATOM     36  N   UNL     1      -5.345  12.826  17.019  0.00  0.00    +0.000 N 
ATOM     37  O   UNL     1      -5.716  10.893  18.069  0.00  0.00    +0.000 OA
ATOM     38  H   UNL     1      -4.672  13.449  16.597  0.00  0.00    +0.000 HD
ATOM     39  H   UNL     1      -5.946  13.241  17.722  0.00  0.00    +0.000 HD
ENDBRANCH  32  35
ENDBRANCH  26  29
ENDBRANCH   5  25
TORSDOF 9
ENDMDL
MODEL 2
REMARK VINA RESULT:      -7.4      0.966      1.014
REMARK  Name = 
REMARK  12 active torsions:
REMARK  status: ('A' for Active; 'I' for Inactive)
REMARK    1  A    between atoms: C_1  and  C_2
REMARK    2  A    between atoms: C_2  and  N_3
REMARK    3  A    between atoms: C_4  and  C_6
REMARK    4  A    between atoms: C_9  and  C_10
REMARK    5  A    between atoms: C_12  and  C_13
REMARK    6  A    between atoms: C_13  and  C_14
REMARK    7  A    between atoms: C_13  and  C_15
REMARK    8  A    between atoms: C_16  and  O_17
REMARK    9  A    between atoms: C_19  and  O_20
REMARK   10  A    between atoms: C_21  and  N_22
REMARK   11  A    between atoms: C_23  and  C_25
REMARK   12  A    between atoms: C_28  and  C_29
REMARK                            x       y       z     vdW  Elec       q    Type
REMARK                         _______ _______ _______ _____ _____    ______ ____
ROOT
ATOM      1  C   UNL     1       0.082  10.480  22.084  0.00  0.00    +0.000 A 
ATOM      2  N   UNL     1       1.057   9.990  22.871  0.00  0.00    +0.000 NA
ATOM      3  O   UNL     1       1.612   8.947  22.171  0.00  0.00    +0.000 OA
ATOM      4  C   UNL     1       0.964   8.766  20.980  0.00  0.00    +0.000 A 
ATOM      5  C   UNL     1      -0.018   9.725  20.877  0.00  0.00    +0.000 A 
ENDROOT
BRANCH   4   6
ATOM      6  C   UNL     1       1.431   7.611  20.215  0.00  0.00    +0.000 A 
ATOM      7  C   UNL     1       1.120   6.327  20.713  0.00  0.00    +0.000 A 
ATOM      8  C   UNL     1       1.638   5.139  20.167  0.00  0.00    +0.000 A 
ATOM      9  C   UNL     1       2.462   5.272  19.044  0.00  0.00    +0.000 A 
ATOM     10  C   UNL     1       2.728   6.526  18.481  0.00  0.00    +0.000 A 
ATOM     11  C   UNL     1       2.211   7.688  19.058  0.00  0.00    +0.000 A 
BRANCH   8  12
ATOM     12  C   UNL     1       1.413   3.824  20.906  0.00  0.00    +0.000 C 
ATOM     13  C   UNL     1       0.714   2.841  19.959  0.00  0.00    +0.000 C 
ATOM     14  C   UNL     1       2.678   3.174  21.486  0.00  0.00    +0.000 C 
ENDBRANCH   8  12
BRANCH   9  15
ATOM     15  O   UNL     1       3.084   4.223  18.429  0.00  0.00    +0.000 OA
ATOM     16  H   UNL     1       2.462   3.493  18.299  0.00  0.00    +0.000 HD
ENDBRANCH   9  15
BRANCH  11  17
ATOM     17  O   UNL     1       2.494   8.902  18.485  0.00  0.00    +0.000 OA
ATOM     18  H   UNL     1       1.661   9.268  18.135  0.00  0.00    +0.000 HD
ENDBRANCH  11  17
ENDBRANCH   4   6
BRANCH   1  20
ATOM     19  N   UNL     1      -1.961  11.430  22.876  0.00  0.00    +0.000 N 
ATOM     20  C   UNL     1      -0.658  11.679  22.482  0.00  0.00    +0.000 C 
ATOM     21  O   UNL     1      -0.168  12.805  22.499  0.00  0.00    +0.000 OA
ATOM     22  H   UNL     1      -2.248  10.459  22.948  0.00  0.00    +0.000 HD
BRANCH  19  24
ATOM     23  C   UNL     1      -3.839  12.109  24.298  0.00  0.00    +0.000 C 
ATOM     24  C   UNL     1      -2.845  12.510  23.228  0.00  0.00    +0.000 C 
ENDBRANCH  19  24
ENDBRANCH   1  20
BRANCH   5  25
ATOM     25  N   UNL     1      -0.895   9.875  19.814  0.00  0.00    +0.000 N 
ATOM     26  C   UNL     1      -0.507  10.555  18.671  0.00  0.00    +0.000 C 
ATOM     27  O   UNL     1       0.522  11.221  18.573  0.00  0.00    +0.000 OA
ATOM     28  H   UNL     1      -1.884   9.854  20.046  0.00  0.00    +0.000 HD
BRANCH  26  29
ATOM     29  C   UNL     1      -1.462  10.337  17.507  0.00  0.00    +0.000 C 
ATOM     30  C   UNL     1      -2.687   9.507  17.903  0.00  0.00    +0.000 C 
ATOM     31  C   UNL     1      -3.682   9.402  16.743  0.00  0.00    +0.000 C 
ATOM     32  C   UNL     1      -4.130  10.788  16.245  0.00  0.00    +0.000 C 
ATOM     33  C   UNL     1      -2.901  11.623  15.863  0.00  0.00    +0.000 C 
ATOM     34  C   UNL     1      -1.882  11.720  16.991  0.00  0.00    +0.000 C 
BRANCH  32  35
ATOM     35  C   UNL     1      -5.094  11.420  17.257  0.00  0.00    +0.000 C 
ATOM     36  N   UNL     1      -5.437  12.725  17.085  0.00  0.00    +0.000 N 
ATOM     37  O   UNL     1      -5.646  10.774  18.146  0.00  0.00    +0.000 OA
ATOM     38  H   UNL     1      -4.822  13.382  16.628  0.00  0.00    +0.000 HD
ATOM     39  H   UNL     1      -6.018  13.106  17.822  0.00  0.00    +0.000 HD
ENDBRANCH  32  35
ENDBRANCH  26  29
ENDBRANCH   5  25
TORSDOF 9
ENDMDL
MODEL 3
REMARK VINA RESULT:      -7.3      3.123      8.631
REMARK  Name = 
REMARK  12 active torsions:
REMARK  status: ('A' for Active; 'I' for Inactive)
REMARK    1  A    between atoms: C_1  and  C_2
REMARK    2  A    between atoms: C_2  and  N_3
REMARK    3  A    between atoms: C_4  and  C_6
REMARK    4  A    between atoms: C_9  and  C_10
REMARK    5  A    between atoms: C_12  and  C_13
REMARK    6  A    between atoms: C_13  and  C_14
REMARK    7  A    between atoms: C_13  and  C_15
REMARK    8  A    between atoms: C_16  and  O_17
REMARK    9  A    between atoms: C_19  and  O_20
REMARK   10  A    between atoms: C_21  and  N_22
REMARK   11  A    between atoms: C_23  and  C_25
REMARK   12  A    between atoms: C_28  and  C_29
REMARK                            x       y       z     vdW  Elec       q    Type
REMARK                         _______ _______ _______ _____ _____    ______ ____
ROOT
ATOM      1  C   UNL     1      -4.067  11.185  16.788  0.00  0.00    +0.000 A 
ATOM      2  N   UNL     1      -5.293  11.733  16.707  0.00  0.00    +0.000 NA
ATOM      3  O   UNL     1      -5.517  12.328  17.924  0.00  0.00    +0.000 OA
ATOM      4  C   UNL     1      -4.459  12.120  18.765  0.00  0.00    +0.000 A 
ATOM      5  C   UNL     1      -3.505  11.399  18.083  0.00  0.00    +0.000 A 
ENDROOT
BRANCH   4   6
ATOM      6  C   UNL     1      -4.660  12.640  20.117  0.00  0.00    +0.000 A 
ATOM      7  C   UNL     1      -3.647  13.461  20.658  0.00  0.00    +0.000 A 
ATOM      8  C   UNL     1      -3.637  13.896  21.996  0.00  0.00    +0.000 A 
ATOM      9  C   UNL     1      -4.727  13.517  22.787  0.00  0.00    +0.000 A 
ATOM     10  C   UNL     1      -5.784  12.767  22.258  0.00  0.00    +0.000 A 
ATOM     11  C   UNL     1      -5.755  12.336  20.929  0.00  0.00    +0.000 A 
BRANCH   8  12
ATOM     12  C   UNL     1      -2.396  14.598  22.537  0.00  0.00    +0.000 C 
ATOM     13  C   UNL     1      -2.803  15.978  23.067  0.00  0.00    +0.000 C 
ATOM     14  C   UNL     1      -1.632  13.829  23.626  0.00  0.00    +0.000 C 
ENDBRANCH   8  12
BRANCH   9  15
ATOM     15  O   UNL     1      -4.841  13.814  24.115  0.00  0.00    +0.000 OA
ATOM     16  H   UNL     1      -4.182  14.475  24.369  0.00  0.00    +0.000 HD
ENDBRANCH   9  15
BRANCH  11  17
ATOM     17  O   UNL     1      -6.804  11.599  20.443  0.00  0.00    +0.000 OA
ATOM     18  H   UNL     1      -6.451  10.983  19.775  0.00  0.00    +0.000 HD
ENDBRANCH  11  17
ENDBRANCH   4   6
BRANCH   1  20
ATOM     19  N   UNL     1      -4.316  10.429  14.537  0.00  0.00    +0.000 N 
ATOM     20  C   UNL     1      -3.461  10.549  15.618  0.00  0.00    +0.000 C 
ATOM     21  O   UNL     1      -2.290  10.180  15.576  0.00  0.00    +0.000 OA
ATOM     22  H   UNL     1      -5.229  10.868  14.615  0.00  0.00    +0.000 HD
BRANCH  19  24
ATOM     23  C   UNL     1      -4.970   9.781  12.265  0.00  0.00    +0.000 C 
ATOM     24  C   UNL     1      -3.897   9.760  13.333  0.00  0.00    +0.000 C 
ENDBRANCH  19  24
ENDBRANCH   1  20
BRANCH   5  25
ATOM     25  N   UNL     1      -2.286  10.985  18.593  0.00  0.00    +0.000 N 
ATOM     26  C   UNL     1      -1.159  11.782  18.461  0.00  0.00    +0.000 C 
ATOM     27  O   UNL     1      -1.095  12.782  17.749  0.00  0.00    +0.000 OA
ATOM     28  H   UNL     1      -2.153   9.981  18.675  0.00  0.00    +0.000 HD
BRANCH  26  29
ATOM     29  C   UNL     1      -0.012  11.329  19.351  0.00  0.00    +0.000 C 
ATOM     30  C   UNL     1      -0.229  11.704  20.820  0.00  0.00    +0.000 C 
ATOM     31  C   UNL     1       0.885  11.135  21.705  0.00  0.00    +0.000 C 
ATOM     32  C   UNL     1       1.002   9.606  21.568  0.00  0.00    +0.000 C 
ATOM     33  C   UNL     1       1.205   9.233  20.094  0.00  0.00    +0.000 C 
ATOM     34  C   UNL     1       0.125   9.809  19.188  0.00  0.00    +0.000 C 
BRANCH  32  35
ATOM     35  C   UNL     1      -0.169   8.926  22.288  0.00  0.00    +0.000 C 
ATOM     36  N   UNL     1      -0.574   9.443  23.480  0.00  0.00    +0.000 N 
ATOM     37  O   UNL     1      -0.818   8.010  21.788  0.00  0.00    +0.000 OA
ATOM     38  H   UNL     1       0.060   9.938  24.090  0.00  0.00    +0.000 HD
ATOM     39  H   UNL     1      -1.302   8.911  23.941  0.00  0.00    +0.000 HD
ENDBRANCH  32  35
ENDBRANCH  26  29
ENDBRANCH   5  25
TORSDOF 9
ENDMDL
MODEL 4
REMARK VINA RESULT:      -7.0      3.567      5.087
REMARK  Name = 
REMARK  12 active torsions:
REMARK  status: ('A' for Active; 'I' for Inactive)
REMARK    1  A    between atoms: C_1  and  C_2
REMARK    2  A    between atoms: C_2  and  N_3
REMARK    3  A    between atoms: C_4  and  C_6
REMARK    4  A    between atoms: C_9  and  C_10
REMARK    5  A    between atoms: C_12  and  C_13
REMARK    6  A    between atoms: C_13  and  C_14
REMARK    7  A    between atoms: C_13  and  C_15
REMARK    8  A    between atoms: C_16  and  O_17
REMARK    9  A    between atoms: C_19  and  O_20
REMARK   10  A    between atoms: C_21  and  N_22
REMARK   11  A    between atoms: C_23  and  C_25
REMARK   12  A    between atoms: C_28  and  C_29
REMARK                            x       y       z     vdW  Elec       q    Type
REMARK                         _______ _______ _______ _____ _____    ______ ____
ROOT
ATOM      1  C   UNL     1      -0.761  11.072  22.323  0.00  0.00    +0.000 A 
ATOM      2  N   UNL     1      -0.774   9.826  22.829  0.00  0.00    +0.000 NA
ATOM      3  O   UNL     1      -0.035   9.062  21.959  0.00  0.00    +0.000 OA
ATOM      4  C   UNL     1       0.400   9.816  20.905  0.00  0.00    +0.000 A 
ATOM      5  C   UNL     1      -0.034  11.109  21.095  0.00  0.00    +0.000 A 
ENDROOT
BRANCH   4   6
ATOM      6  C   UNL     1       1.115   9.055  19.881  0.00  0.00    +0.000 A 
ATOM      7  C   UNL     1       1.655   7.805  20.253  0.00  0.00    +0.000 A 
ATOM      8  C   UNL     1       2.496   7.047  19.418  0.00  0.00    +0.000 A 
ATOM      9  C   UNL     1       2.748   7.567  18.144  0.00  0.00    +0.000 A 
ATOM     10  C   UNL     1       2.166   8.766  17.718  0.00  0.00    +0.000 A 
ATOM     11  C   UNL     1       1.348   9.504  18.578  0.00  0.00    +0.000 A 
BRANCH   8  12
ATOM     12  C   UNL     1       3.196   5.820  19.991  0.00  0.00    +0.000 C 
ATOM     13  C   UNL     1       2.232   4.629  19.927  0.00  0.00    +0.000 C 
ATOM     14  C   UNL     1       4.524   5.448  19.313  0.00  0.00    +0.000 C 
ENDBRANCH   8  12
BRANCH   9  15
ATOM     15  O   UNL     1       3.583   6.979  17.235  0.00  0.00    +0.000 OA
ATOM     16  H   UNL     1       4.499   7.240  17.404  0.00  0.00    +0.000 HD
ENDBRANCH   9  15
BRANCH  11  17
ATOM     17  O   UNL     1       0.797  10.678  18.132  0.00  0.00    +0.000 OA
ATOM     18  H   UNL     1       0.092  10.932  18.756  0.00  0.00    +0.000 HD
ENDBRANCH  11  17
ENDBRANCH   4   6
BRANCH   1  20
ATOM     19  N   UNL     1      -2.700  11.960  23.396  0.00  0.00    +0.000 N 
ATOM     20  C   UNL     1      -1.376  12.177  23.059  0.00  0.00    +0.000 C 
ATOM     21  O   UNL     1      -0.771  13.196  23.384  0.00  0.00    +0.000 OA
ATOM     22  H   UNL     1      -3.087  11.043  23.196  0.00  0.00    +0.000 HD
BRANCH  19  24
ATOM     23  C   UNL     1      -4.649  12.404  24.816  0.00  0.00    +0.000 C 
ATOM     24  C   UNL     1      -3.470  12.980  24.058  0.00  0.00    +0.000 C 
ENDBRANCH  19  24
ENDBRANCH   1  20
BRANCH   5  25
ATOM     25  N   UNL     1       0.201  12.175  20.242  0.00  0.00    +0.000 N 
ATOM     26  C   UNL     1       1.260  13.039  20.468  0.00  0.00    +0.000 C 
ATOM     27  O   UNL     1       1.935  13.057  21.496  0.00  0.00    +0.000 OA
ATOM     28  H   UNL     1      -0.608  12.532  19.740  0.00  0.00    +0.000 HD
BRANCH  26  29
ATOM     29  C   UNL     1       1.555  13.932  19.273  0.00  0.00    +0.000 C 
ATOM     30  C   UNL     1       1.294  15.412  19.570  0.00  0.00    +0.000 C 
ATOM     31  C   UNL     1       1.707  16.294  18.388  0.00  0.00    +0.000 C 
ATOM     32  C   UNL     1       3.186  16.091  18.011  0.00  0.00    +0.000 C 
ATOM     33  C   UNL     1       3.448  14.606  17.728  0.00  0.00    +0.000 C 
ATOM     34  C   UNL     1       3.021  13.704  18.878  0.00  0.00    +0.000 C 
BRANCH  32  35
ATOM     35  C   UNL     1       4.088  16.754  19.059  0.00  0.00    +0.000 C 
ATOM     36  N   UNL     1       5.364  16.298  19.185  0.00  0.00    +0.000 N 
ATOM     37  O   UNL     1       3.744  17.740  19.708  0.00  0.00    +0.000 OA
ATOM     38  H   UNL     1       5.614  15.345  18.961  0.00  0.00    +0.000 HD
ATOM     39  H   UNL     1       5.888  16.724  19.940  0.00  0.00    +0.000 HD
ENDBRANCH  32  35
ENDBRANCH  26  29
ENDBRANCH   5  25
TORSDOF 9
ENDMDL
MODEL 5
REMARK VINA RESULT:      -6.9      3.996      9.393
REMARK  Name = 
REMARK  12 active torsions:
REMARK  status: ('A' for Active; 'I' for Inactive)
REMARK    1  A    between atoms: C_1  and  C_2
REMARK    2  A    between atoms: C_2  and  N_3
REMARK    3  A    between atoms: C_4  and  C_6
REMARK    4  A    between atoms: C_9  and  C_10
REMARK    5  A    between atoms: C_12  and  C_13
REMARK    6  A    between atoms: C_13  and  C_14
REMARK    7  A    between atoms: C_13  and  C_15
REMARK    8  A    between atoms: C_16  and  O_17
REMARK    9  A    between atoms: C_19  and  O_20
REMARK   10  A    between atoms: C_21  and  N_22
REMARK   11  A    between atoms: C_23  and  C_25
REMARK   12  A    between atoms: C_28  and  C_29
REMARK                            x       y       z     vdW  Elec       q    Type
REMARK                         _______ _______ _______ _____ _____    ______ ____
ROOT
ATOM      1  C   UNL     1       5.342   6.187  15.936  0.00  0.00    +0.000 A 
ATOM      2  N   UNL     1       5.417   7.522  15.792  0.00  0.00    +0.000 NA
ATOM      3  O   UNL     1       4.545   8.047  16.714  0.00  0.00    +0.000 OA
ATOM      4  C   UNL     1       3.907   7.048  17.397  0.00  0.00    +0.000 A 
ATOM      5  C   UNL     1       4.386   5.842  16.939  0.00  0.00    +0.000 A 
ENDROOT
BRANCH   4   6
ATOM      6  C   UNL     1       2.888   7.522  18.333  0.00  0.00    +0.000 A 
ATOM      7  C   UNL     1       2.111   8.635  17.946  0.00  0.00    +0.000 A 
ATOM      8  C   UNL     1       1.211   9.287  18.809  0.00  0.00    +0.000 A 
ATOM      9  C   UNL     1       1.070   8.748  20.092  0.00  0.00    +0.000 A 
ATOM     10  C   UNL     1       1.769   7.599  20.480  0.00  0.00    +0.000 A 
ATOM     11  C   UNL     1       2.668   6.985  19.604  0.00  0.00    +0.000 A 
BRANCH   8  12
ATOM     12  C   UNL     1       0.583  10.604  18.365  0.00  0.00    +0.000 C 
ATOM     13  C   UNL     1      -0.942  10.441  18.352  0.00  0.00    +0.000 C 
ATOM     14  C   UNL     1       0.966  11.829  19.209  0.00  0.00    +0.000 C 
ENDBRANCH   8  12
BRANCH   9  15
ATOM     15  O   UNL     1       0.277   9.293  21.062  0.00  0.00    +0.000 OA
ATOM     16  H   UNL     1      -0.093  10.134  20.759  0.00  0.00    +0.000 HD
ENDBRANCH   9  15
BRANCH  11  17
ATOM     17  O   UNL     1       3.342   5.863  20.017  0.00  0.00    +0.000 OA
ATOM     18  H   UNL     1       3.996   6.138  20.686  0.00  0.00    +0.000 HD
ENDBRANCH  11  17
ENDBRANCH   4   6
BRANCH   1  20
ATOM     19  N   UNL     1       5.574   4.553  14.211  0.00  0.00    +0.000 N 
ATOM     20  C   UNL     1       6.226   5.308  15.169  0.00  0.00    +0.000 C 
ATOM     21  O   UNL     1       7.443   5.260  15.331  0.00  0.00    +0.000 OA
ATOM     22  H   UNL     1       4.588   4.741  14.061  0.00  0.00    +0.000 HD
BRANCH  19  24
ATOM     23  C   UNL     1       5.559   3.241  12.139  0.00  0.00    +0.000 C 
ATOM     24  C   UNL     1       6.290   3.584  13.421  0.00  0.00    +0.000 C 
ENDBRANCH  19  24
ENDBRANCH   1  20
BRANCH   5  25
ATOM     25  N   UNL     1       3.986   4.592  17.382  0.00  0.00    +0.000 N 
ATOM     26  C   UNL     1       4.827   3.817  18.165  0.00  0.00    +0.000 C 
ATOM     27  O   UNL     1       6.015   4.067  18.366  0.00  0.00    +0.000 OA
ATOM     28  H   UNL     1       3.295   4.115  16.808  0.00  0.00    +0.000 HD
BRANCH  26  29
ATOM     29  C   UNL     1       4.110   2.646  18.817  0.00  0.00    +0.000 C 
ATOM     30  C   UNL     1       4.273   2.636  20.341  0.00  0.00    +0.000 C 
ATOM     31  C   UNL     1       3.447   1.513  20.977  0.00  0.00    +0.000 C 
ATOM     32  C   UNL     1       1.955   1.622  20.612  0.00  0.00    +0.000 C 
ATOM     33  C   UNL     1       1.796   1.647  19.087  0.00  0.00    +0.000 C 
ATOM     34  C   UNL     1       2.628   2.738  18.426  0.00  0.00    +0.000 C 
BRANCH  32  35
ATOM     35  C   UNL     1       1.313   2.782  21.383  0.00  0.00    +0.000 C 
ATOM     36  N   UNL     1       0.789   3.814  20.667  0.00  0.00    +0.000 N 
ATOM     37  O   UNL     1       1.159   2.769  22.603  0.00  0.00    +0.000 OA
ATOM     38  H   UNL     1       1.143   4.063  19.755  0.00  0.00    +0.000 HD
ATOM     39  H   UNL     1       0.443   4.582  21.230  0.00  0.00    +0.000 HD
ENDBRANCH  32  35
ENDBRANCH  26  29
ENDBRANCH   5  25
TORSDOF 9
ENDMDL
MODEL 6
REMARK VINA RESULT:      -6.9      2.913      4.545
REMARK  Name = 
REMARK  12 active torsions:
REMARK  status: ('A' for Active; 'I' for Inactive)
REMARK    1  A    between atoms: C_1  and  C_2
REMARK    2  A    between atoms: C_2  and  N_3
REMARK    3  A    between atoms: C_4  and  C_6
REMARK    4  A    between atoms: C_9  and  C_10
REMARK    5  A    between atoms: C_12  and  C_13
REMARK    6  A    between atoms: C_13  and  C_14
REMARK    7  A    between atoms: C_13  and  C_15
REMARK    8  A    between atoms: C_16  and  O_17
REMARK    9  A    between atoms: C_19  and  O_20
REMARK   10  A    between atoms: C_21  and  N_22
REMARK   11  A    between atoms: C_23  and  C_25
REMARK   12  A    between atoms: C_28  and  C_29
REMARK                            x       y       z     vdW  Elec       q    Type
REMARK                         _______ _______ _______ _____ _____    ______ ____
ROOT
ATOM      1  C   UNL     1      -0.207  10.141  21.504  0.00  0.00    +0.000 A 
ATOM      2  N   UNL     1      -0.399   8.864  21.880  0.00  0.00    +0.000 NA
ATOM      3  O   UNL     1       0.423   8.111  21.078  0.00  0.00    +0.000 OA
ATOM      4  C   UNL     1       1.089   8.907  20.188  0.00  0.00    +0.000 A 
ATOM      5  C   UNL     1       0.724  10.213  20.424  0.00  0.00    +0.000 A 
ENDROOT
BRANCH   4   6
ATOM      6  C   UNL     1       1.914   8.171  19.230  0.00  0.00    +0.000 A 
ATOM      7  C   UNL     1       2.477   6.948  19.656  0.00  0.00    +0.000 A 
ATOM      8  C   UNL     1       3.412   6.221  18.897  0.00  0.00    +0.000 A 
ATOM      9  C   UNL     1       3.741   6.743  17.641  0.00  0.00    +0.000 A 
ATOM     10  C   UNL     1       3.144   7.914  17.159  0.00  0.00    +0.000 A 
ATOM     11  C   UNL     1       2.230   8.621  17.946  0.00  0.00    +0.000 A 
BRANCH   8  12
ATOM     12  C   UNL     1       4.117   5.029  19.535  0.00  0.00    +0.000 C 
ATOM     13  C   UNL     1       3.512   3.739  18.968  0.00  0.00    +0.000 C 
ATOM     14  C   UNL     1       5.644   5.004  19.365  0.00  0.00    +0.000 C 
ENDBRANCH   8  12
BRANCH   9  15
ATOM     15  O   UNL     1       4.669   6.187  16.807  0.00  0.00    +0.000 OA
ATOM     16  H   UNL     1       4.632   5.221  16.860  0.00  0.00    +0.000 HD
ENDBRANCH   9  15
BRANCH  11  17
ATOM     17  O   UNL     1       1.666   9.767  17.446  0.00  0.00    +0.000 OA
ATOM     18  H   UNL     1       1.033  10.100  18.109  0.00  0.00    +0.000 HD
ENDBRANCH  11  17
ENDBRANCH   4   6
BRANCH   1  20
ATOM     19  N   UNL     1      -1.794  11.925  21.481  0.00  0.00    +0.000 N 
ATOM     20  C   UNL     1      -0.858  11.233  22.229  0.00  0.00    +0.000 C 
ATOM     21  O   UNL     1      -0.626  11.500  23.406  0.00  0.00    +0.000 OA
ATOM     22  H   UNL     1      -2.011  11.563  20.557  0.00  0.00    +0.000 HD
BRANCH  19  24
ATOM     23  C   UNL     1      -3.850  12.729  22.547  0.00  0.00    +0.000 C 
ATOM     24  C   UNL     1      -2.470  13.074  22.024  0.00  0.00    +0.000 C 
ENDBRANCH  19  24
ENDBRANCH   1  20
BRANCH   5  25
ATOM     25  N   UNL     1       1.183  11.320  19.728  0.00  0.00    +0.000 N 
ATOM     26  C   UNL     1       0.349  11.999  18.854  0.00  0.00    +0.000 C 
ATOM     27  O   UNL     1      -0.752  11.591  18.486  0.00  0.00    +0.000 OA
ATOM     28  H   UNL     1       2.185  11.356  19.558  0.00  0.00    +0.000 HD
BRANCH  26  29
ATOM     29  C   UNL     1       0.908  13.351  18.440  0.00  0.00    +0.000 C 
ATOM     30  C   UNL     1       0.532  14.464  19.423  0.00  0.00    +0.000 C 
ATOM     31  C   UNL     1       1.202  15.788  19.042  0.00  0.00    +0.000 C 
ATOM     32  C   UNL     1       2.734  15.653  18.967  0.00  0.00    +0.000 C 
ATOM     33  C   UNL     1       3.107  14.529  17.993  0.00  0.00    +0.000 C 
ATOM     34  C   UNL     1       2.432  13.207  18.334  0.00  0.00    +0.000 C 
BRANCH  32  35
ATOM     35  C   UNL     1       3.319  15.552  20.381  0.00  0.00    +0.000 C 
ATOM     36  N   UNL     1       4.506  14.906  20.537  0.00  0.00    +0.000 N 
ATOM     37  O   UNL     1       2.819  16.115  21.353  0.00  0.00    +0.000 OA
ATOM     38  H   UNL     1       4.800  14.171  19.910  0.00  0.00    +0.000 HD
ATOM     39  H   UNL     1       4.807  14.809  21.500  0.00  0.00    +0.000 HD
ENDBRANCH  32  35
ENDBRANCH  26  29
ENDBRANCH   5  25
TORSDOF 9
ENDMDL
MODEL 7
REMARK VINA RESULT:      -6.8      3.392      8.018
REMARK  Name = 
REMARK  12 active torsions:
REMARK  status: ('A' for Active; 'I' for Inactive)
REMARK    1  A    between atoms: C_1  and  C_2
REMARK    2  A    between atoms: C_2  and  N_3
REMARK    3  A    between atoms: C_4  and  C_6
REMARK    4  A    between atoms: C_9  and  C_10
REMARK    5  A    between atoms: C_12  and  C_13
REMARK    6  A    between atoms: C_13  and  C_14
REMARK    7  A    between atoms: C_13  and  C_15
REMARK    8  A    between atoms: C_16  and  O_17
REMARK    9  A    between atoms: C_19  and  O_20
REMARK   10  A    between atoms: C_21  and  N_22
REMARK   11  A    between atoms: C_23  and  C_25
REMARK   12  A    between atoms: C_28  and  C_29
REMARK                            x       y       z     vdW  Elec       q    Type
REMARK                         _______ _______ _______ _____ _____    ______ ____
ROOT
ATOM      1  C   UNL     1       0.627   9.508  21.040  0.00  0.00    +0.000 A 
ATOM      2  N   UNL     1      -0.142   9.022  22.030  0.00  0.00    +0.000 NA
ATOM      3  O   UNL     1      -0.783  10.108  22.573  0.00  0.00    +0.000 OA
ATOM      4  C   UNL     1      -0.387  11.261  21.952  0.00  0.00    +0.000 A 
ATOM      5  C   UNL     1       0.509  10.928  20.962  0.00  0.00    +0.000 A 
ENDROOT
BRANCH   4   6
ATOM      6  C   UNL     1      -0.951  12.477  22.536  0.00  0.00    +0.000 A 
ATOM      7  C   UNL     1      -2.262  12.407  23.055  0.00  0.00    +0.000 A 
ATOM      8  C   UNL     1      -2.980  13.533  23.498  0.00  0.00    +0.000 A 
ATOM      9  C   UNL     1      -2.310  14.760  23.453  0.00  0.00    +0.000 A 
ATOM     10  C   UNL     1      -0.984  14.851  23.015  0.00  0.00    +0.000 A 
ATOM     11  C   UNL     1      -0.305  13.716  22.565  0.00  0.00    +0.000 A 
BRANCH   8  12
ATOM     12  C   UNL     1      -4.458  13.381  23.839  0.00  0.00    +0.000 C 
ATOM     13  C   UNL     1      -5.234  13.095  22.547  0.00  0.00    +0.000 C 
ATOM     14  C   UNL     1      -4.781  12.304  24.887  0.00  0.00    +0.000 C 
ENDBRANCH   8  12
BRANCH   9  15
ATOM     15  O   UNL     1      -2.884  15.952  23.798  0.00  0.00    +0.000 OA
ATOM     16  H   UNL     1      -2.894  16.552  23.039  0.00  0.00    +0.000 HD
ENDBRANCH   9  15
BRANCH  11  17
ATOM     17  O   UNL     1       0.992  13.839  22.138  0.00  0.00    +0.000 OA
ATOM     18  H   UNL     1       1.089  14.720  21.730  0.00  0.00    +0.000 HD
ENDBRANCH  11  17
ENDBRANCH   4   6
BRANCH   1  20
ATOM     19  N   UNL     1       1.704   7.394  20.768  0.00  0.00    +0.000 N 
ATOM     20  C   UNL     1       1.379   8.600  20.173  0.00  0.00    +0.000 C 
ATOM     21  O   UNL     1       1.674   8.861  19.009  0.00  0.00    +0.000 OA
ATOM     22  H   UNL     1       1.318   7.211  21.690  0.00  0.00    +0.000 HD
BRANCH  19  24
ATOM     23  C   UNL     1       2.036   5.003  20.336  0.00  0.00    +0.000 C 
ATOM     24  C   UNL     1       2.506   6.420  20.075  0.00  0.00    +0.000 C 
ENDBRANCH  19  24
ENDBRANCH   1  20
BRANCH   5  25
ATOM     25  N   UNL     1       1.140  11.819  20.109  0.00  0.00    +0.000 N 
ATOM     26  C   UNL     1       0.463  12.361  19.028  0.00  0.00    +0.000 C 
ATOM     27  O   UNL     1      -0.635  11.976  18.632  0.00  0.00    +0.000 OA
ATOM     28  H   UNL     1       2.152  11.737  20.047  0.00  0.00    +0.000 HD
BRANCH  26  29
ATOM     29  C   UNL     1       1.193  13.544  18.412  0.00  0.00    +0.000 C 
ATOM     30  C   UNL     1       0.634  14.889  18.889  0.00  0.00    +0.000 C 
ATOM     31  C   UNL     1       1.461  16.056  18.341  0.00  0.00    +0.000 C 
ATOM     32  C   UNL     1       2.946  15.940  18.732  0.00  0.00    +0.000 C 
ATOM     33  C   UNL     1       3.499  14.587  18.266  0.00  0.00    +0.000 C 
ATOM     34  C   UNL     1       2.678  13.409  18.775  0.00  0.00    +0.000 C 
BRANCH  32  35
ATOM     35  C   UNL     1       3.122  16.272  20.218  0.00  0.00    +0.000 C 
ATOM     36  N   UNL     1       3.673  15.325  21.025  0.00  0.00    +0.000 N 
ATOM     37  O   UNL     1       2.888  17.385  20.686  0.00  0.00    +0.000 OA
ATOM     38  H   UNL     1       3.586  14.339  20.824  0.00  0.00    +0.000 HD
ATOM     39  H   UNL     1       3.698  15.573  22.006  0.00  0.00    +0.000 HD
ENDBRANCH  32  35
ENDBRANCH  26  29
ENDBRANCH   5  25
TORSDOF 9
ENDMDL
MODEL 8
REMARK VINA RESULT:      -6.7      3.908      6.891
REMARK  Name = 
REMARK  12 active torsions:
REMARK  status: ('A' for Active; 'I' for Inactive)
REMARK    1  A    between atoms: C_1  and  C_2
REMARK    2  A    between atoms: C_2  and  N_3
REMARK    3  A    between atoms: C_4  and  C_6
REMARK    4  A    between atoms: C_9  and  C_10
REMARK    5  A    between atoms: C_12  and  C_13
REMARK    6  A    between atoms: C_13  and  C_14
REMARK    7  A    between atoms: C_13  and  C_15
REMARK    8  A    between atoms: C_16  and  O_17
REMARK    9  A    between atoms: C_19  and  O_20
REMARK   10  A    between atoms: C_21  and  N_22
REMARK   11  A    between atoms: C_23  and  C_25
REMARK   12  A    between atoms: C_28  and  C_29
REMARK                            x       y       z     vdW  Elec       q    Type
REMARK                         _______ _______ _______ _____ _____    ______ ____
ROOT
ATOM      1  C   UNL     1       1.624  13.457  19.935  0.00  0.00    +0.000 A 
ATOM      2  N   UNL     1       1.874  13.938  21.166  0.00  0.00    +0.000 NA
ATOM      3  O   UNL     1       0.765  13.636  21.917  0.00  0.00    +0.000 OA
ATOM      4  C   UNL     1      -0.180  13.010  21.152  0.00  0.00    +0.000 A 
ATOM      5  C   UNL     1       0.326  12.868  19.879  0.00  0.00    +0.000 A 
ENDROOT
BRANCH   4   6
ATOM      6  C   UNL     1      -1.434  12.740  21.853  0.00  0.00    +0.000 A 
ATOM      7  C   UNL     1      -2.582  13.448  21.437  0.00  0.00    +0.000 A 
ATOM      8  C   UNL     1      -3.810  13.403  22.123  0.00  0.00    +0.000 A 
ATOM      9  C   UNL     1      -3.872  12.566  23.241  0.00  0.00    +0.000 A 
ATOM     10  C   UNL     1      -2.774  11.792  23.634  0.00  0.00    +0.000 A 
ATOM     11  C   UNL     1      -1.564  11.873  22.941  0.00  0.00    +0.000 A 
BRANCH   8  12
ATOM     12  C   UNL     1      -4.919  14.367  21.717  0.00  0.00    +0.000 C 
ATOM     13  C   UNL     1      -4.300  15.743  21.443  0.00  0.00    +0.000 C 
ATOM     14  C   UNL     1      -5.759  13.926  20.508  0.00  0.00    +0.000 C 
ENDBRANCH   8  12
BRANCH   9  15
ATOM     15  O   UNL     1      -4.973  12.450  24.043  0.00  0.00    +0.000 OA
ATOM     16  H   UNL     1      -4.893  11.672  24.612  0.00  0.00    +0.000 HD
ENDBRANCH   9  15
BRANCH  11  17
ATOM     17  O   UNL     1      -0.505  11.105  23.355  0.00  0.00    +0.000 OA
ATOM     18  H   UNL     1       0.204  11.193  22.692  0.00  0.00    +0.000 HD
ENDBRANCH  11  17
ENDBRANCH   4   6
BRANCH   1  20
ATOM     19  N   UNL     1       3.382  14.692  18.891  0.00  0.00    +0.000 N 
ATOM     20  C   UNL     1       2.651  13.516  18.894  0.00  0.00    +0.000 C 
ATOM     21  O   UNL     1       2.876  12.599  18.108  0.00  0.00    +0.000 OA
ATOM     22  H   UNL     1       3.213  15.346  19.649  0.00  0.00    +0.000 HD
BRANCH  19  24
ATOM     23  C   UNL     1       5.786  14.861  18.443  0.00  0.00    +0.000 C 
ATOM     24  C   UNL     1       4.380  14.938  17.884  0.00  0.00    +0.000 C 
ENDBRANCH  19  24
ENDBRANCH   1  20
BRANCH   5  25
ATOM     25  N   UNL     1      -0.331  12.282  18.809  0.00  0.00    +0.000 N 
ATOM     26  C   UNL     1      -0.302  10.908  18.629  0.00  0.00    +0.000 C 
ATOM     27  O   UNL     1       0.429  10.141  19.254  0.00  0.00    +0.000 OA
ATOM     28  H   UNL     1      -0.458  12.868  17.988  0.00  0.00    +0.000 HD
BRANCH  26  29
ATOM     29  C   UNL     1      -1.328  10.426  17.616  0.00  0.00    +0.000 C 
ATOM     30  C   UNL     1      -2.507   9.703  18.276  0.00  0.00    +0.000 C 
ATOM     31  C   UNL     1      -3.576   9.332  17.243  0.00  0.00    +0.000 C 
ATOM     32  C   UNL     1      -4.084  10.566  16.476  0.00  0.00    +0.000 C 
ATOM     33  C   UNL     1      -2.901  11.296  15.828  0.00  0.00    +0.000 C 
ATOM     34  C   UNL     1      -1.810  11.653  16.830  0.00  0.00    +0.000 C 
BRANCH  32  35
ATOM     35  C   UNL     1      -4.990  11.408  17.382  0.00  0.00    +0.000 C 
ATOM     36  N   UNL     1      -5.202  12.709  17.044  0.00  0.00    +0.000 N 
ATOM     37  O   UNL     1      -5.610  10.934  18.332  0.00  0.00    +0.000 OA
ATOM     38  H   UNL     1      -4.522  13.242  16.522  0.00  0.00    +0.000 HD
ATOM     39  H   UNL     1      -5.749  13.233  17.717  0.00  0.00    +0.000 HD
ENDBRANCH  32  35
ENDBRANCH  26  29
ENDBRANCH   5  25
TORSDOF 9
ENDMDL
MODEL 9
REMARK VINA RESULT:      -6.7      8.018     10.964
REMARK  Name = 
REMARK  12 active torsions:
REMARK  status: ('A' for Active; 'I' for Inactive)
REMARK    1  A    between atoms: C_1  and  C_2
REMARK    2  A    between atoms: C_2  and  N_3
REMARK    3  A    between atoms: C_4  and  C_6
REMARK    4  A    between atoms: C_9  and  C_10
REMARK    5  A    between atoms: C_12  and  C_13
REMARK    6  A    between atoms: C_13  and  C_14
REMARK    7  A    between atoms: C_13  and  C_15
REMARK    8  A    between atoms: C_16  and  O_17
REMARK    9  A    between atoms: C_19  and  O_20
REMARK   10  A    between atoms: C_21  and  N_22
REMARK   11  A    between atoms: C_23  and  C_25
REMARK   12  A    between atoms: C_28  and  C_29
REMARK                            x       y       z     vdW  Elec       q    Type
REMARK                         _______ _______ _______ _____ _____    ______ ____
ROOT
ATOM      1  C   UNL     1       6.207  13.686  24.143  0.00  0.00    +0.000 A 
ATOM      2  N   UNL     1       4.960  14.107  24.419  0.00  0.00    +0.000 NA
ATOM      3  O   UNL     1       4.405  14.448  23.210  0.00  0.00    +0.000 OA
ATOM      4  C   UNL     1       5.309  14.278  22.199  0.00  0.00    +0.000 A 
ATOM      5  C   UNL     1       6.474  13.788  22.744  0.00  0.00    +0.000 A 
ENDROOT
BRANCH   4   6
ATOM      6  C   UNL     1       4.828  14.711  20.888  0.00  0.00    +0.000 A 
ATOM      7  C   UNL     1       3.625  14.144  20.413  0.00  0.00    +0.000 A 
ATOM      8  C   UNL     1       3.134  14.351  19.110  0.00  0.00    +0.000 A 
ATOM      9  C   UNL     1       3.877  15.205  18.289  0.00  0.00    +0.000 A 
ATOM     10  C   UNL     1       5.033  15.842  18.756  0.00  0.00    +0.000 A 
ATOM     11  C   UNL     1       5.502  15.603  20.050  0.00  0.00    +0.000 A 
BRANCH   8  12
ATOM     12  C   UNL     1       1.945  13.527  18.628  0.00  0.00    +0.000 C 
ATOM     13  C   UNL     1       2.464  12.199  18.064  0.00  0.00    +0.000 C 
ATOM     14  C   UNL     1       0.866  13.254  19.687  0.00  0.00    +0.000 C 
ENDBRANCH   8  12
BRANCH   9  15
ATOM     15  O   UNL     1       3.564  15.467  16.985  0.00  0.00    +0.000 OA
ATOM     16  H   UNL     1       4.030  14.855  16.398  0.00  0.00    +0.000 HD
ENDBRANCH   9  15
BRANCH  11  17
ATOM     17  O   UNL     1       6.641  16.239  20.476  0.00  0.00    +0.000 OA
ATOM     18  H   UNL     1       6.502  17.198  20.374  0.00  0.00    +0.000 HD
ENDBRANCH  11  17
ENDBRANCH   4   6
BRANCH   1  20
ATOM     19  N   UNL     1       6.494  13.209  26.464  0.00  0.00    +0.000 N 
ATOM     20  C   UNL     1       7.058  13.145  25.203  0.00  0.00    +0.000 C 
ATOM     21  O   UNL     1       8.163  12.647  24.999  0.00  0.00    +0.000 OA
ATOM     22  H   UNL     1       5.531  13.524  26.528  0.00  0.00    +0.000 HD
BRANCH  19  24
ATOM     23  C   UNL     1       6.881  11.370  28.039  0.00  0.00    +0.000 C 
ATOM     24  C   UNL     1       7.231  12.785  27.626  0.00  0.00    +0.000 C 
ENDBRANCH  19  24
ENDBRANCH   1  20
BRANCH   5  25
ATOM     25  N   UNL     1       7.631  13.485  22.043  0.00  0.00    +0.000 N 
ATOM     26  C   UNL     1       8.696  14.373  22.023  0.00  0.00    +0.000 C 
ATOM     27  O   UNL     1       8.644  15.529  22.438  0.00  0.00    +0.000 OA
ATOM     28  H   UNL     1       7.523  12.851  21.256  0.00  0.00    +0.000 HD
BRANCH  26  29
ATOM     29  C   UNL     1       9.974  13.743  21.492  0.00  0.00    +0.000 C 
ATOM     30  C   UNL     1       9.767  12.295  21.037  0.00  0.00    +0.000 C 
ATOM     31  C   UNL     1      11.041  11.728  20.403  0.00  0.00    +0.000 C 
ATOM     32  C   UNL     1      11.521  12.584  19.217  0.00  0.00    +0.000 C 
ATOM     33  C   UNL     1      11.714  14.036  19.672  0.00  0.00    +0.000 C 
ATOM     34  C   UNL     1      10.469  14.616  20.331  0.00  0.00    +0.000 C 
BRANCH  32  35
ATOM     35  C   UNL     1      10.602  12.365  18.009  0.00  0.00    +0.000 C 
ATOM     36  N   UNL     1       9.939  11.181  17.916  0.00  0.00    +0.000 N 
ATOM     37  O   UNL     1      10.360  13.246  17.186  0.00  0.00    +0.000 OA
ATOM     38  H   UNL     1      10.305  10.332  18.322  0.00  0.00    +0.000 HD
ATOM     39  H   UNL     1       9.405  11.065  17.063  0.00  0.00    +0.000 HD
ENDBRANCH  32  35
ENDBRANCH  26  29
ENDBRANCH   5  25
TORSDOF 9
ENDMDL
