MODEL 1
REMARK VINA RESULT:      -6.9      0.000      0.000
REMARK  Name = 
REMARK  10 active torsions:
REMARK  status: ('A' for Active; 'I' for Inactive)
REMARK    1  A    between atoms: C_1  and  C_2
REMARK    2  A    between atoms: C_2  and  C_3
REMARK    3  A    between atoms: C_2  and  C_4
REMARK    4  A    between atoms: C_4  and  C_5
REMARK    5  A    between atoms: C_8  and  C_9
REMARK    6  A    between atoms: C_9  and  C_10
REMARK    7  A    between atoms: C_9  and  C_11
REMARK    8  A    between atoms: N_13  and  C_14
REMARK    9  A    between atoms: C_14  and  C_15
REMARK   10  A    between atoms: C_15  and  O_16
REMARK                            x       y       z     vdW  Elec       q    Type
REMARK                         _______ _______ _______ _____ _____    ______ ____
ROOT
ATOM      1  C   UNL     1       2.915   5.129  19.203  0.00  0.00    +0.000 A 
ATOM      2  C   UNL     1       4.146   4.474  19.310  0.00  0.00    +0.000 A 
ATOM      3  C   UNL     1       5.269   4.943  18.617  0.00  0.00    +0.000 A 
ATOM      4  C   UNL     1       5.181   6.076  17.791  0.00  0.00    +0.000 A 
ATOM      5  C   UNL     1       3.954   6.749  17.708  0.00  0.00    +0.000 A 
ATOM      6  C   UNL     1       2.835   6.279  18.399  0.00  0.00    +0.000 A 
ENDROOT
BRANCH   4   7
ATOM      7  C   UNL     1       6.376   6.496  16.944  0.00  0.00    +0.000 C 
ATOM      8  C   UNL     1       7.513   6.992  17.845  0.00  0.00    +0.000 C 
BRANCH   7   9
ATOM      9  C   UNL     1       6.910   5.433  15.976  0.00  0.00    +0.000 C 
ATOM     10  O   UNL     1       7.844   4.686  16.271  0.00  0.00    +0.000 OA
ATOM     11  N   UNL     1       6.366   5.425  14.710  0.00  0.00    +0.000 N 
ATOM     12  H   UNL     1       5.542   5.980  14.514  0.00  0.00    +0.000 HD
BRANCH  11  13
ATOM     13  C   UNL     1       6.870   4.520  13.687  0.00  0.00    +0.000 C 
BRANCH  13  14
ATOM     14  C   UNL     1       7.757   5.228  12.664  0.00  0.00    +0.000 C 
BRANCH  14  15
ATOM     15  O   UNL     1       8.802   5.938  13.331  0.00  0.00    +0.000 OA
ATOM     16  H   UNL     1       8.897   5.523  14.203  0.00  0.00    +0.000 HD
ENDBRANCH  14  15
ENDBRANCH  13  14
ENDBRANCH  11  13
ENDBRANCH   7   9
ENDBRANCH   4   7
BRANCH   1  17
ATOM     17  C   UNL     1       1.678   4.591  19.885  0.00  0.00    +0.000 C 
BRANCH  17  19
ATOM     18  C   UNL     1       1.288   2.696  21.538  0.00  0.00    +0.000 C 
ATOM     19  C   UNL     1       1.666   3.066  20.102  0.00  0.00    +0.000 C 
ATOM     20  C   UNL     1       0.685   2.407  19.127  0.00  0.00    +0.000 C 
ENDBRANCH  17  19
ENDBRANCH   1  17
TORSDOF 7
ENDMDL
MODEL 2
REMARK VINA RESULT:      -6.8      1.234      1.530
REMARK  Name = 
REMARK  10 active torsions:
REMARK  status: ('A' for Active; 'I' for Inactive)
REMARK    1  A    between atoms: C_1  and  C_2
REMARK    2  A    between atoms: C_2  and  C_3
REMARK    3  A    between atoms: C_2  and  C_4
REMARK    4  A    between atoms: C_4  and  C_5
REMARK    5  A    between atoms: C_8  and  C_9
REMARK    6  A    between atoms: C_9  and  C_10
REMARK    7  A    between atoms: C_9  and  C_11
REMARK    8  A    between atoms: N_13  and  C_14
REMARK    9  A    between atoms: C_14  and  C_15
REMARK   10  A    between atoms: C_15  and  O_16
REMARK                            x       y       z     vdW  Elec       q    Type
REMARK                         _______ _______ _______ _____ _____    ______ ____
ROOT
ATOM      1  C   UNL     1       2.811   5.748  19.593  0.00  0.00    +0.000 A 
ATOM      2  C   UNL     1       4.048   5.112  19.741  0.00  0.00    +0.000 A 
ATOM      3  C   UNL     1       5.107   5.394  18.871  0.00  0.00    +0.000 A 
ATOM      4  C   UNL     1       4.949   6.316  17.823  0.00  0.00    +0.000 A 
ATOM      5  C   UNL     1       3.719   6.977  17.694  0.00  0.00    +0.000 A 
ATOM      6  C   UNL     1       2.663   6.692  18.562  0.00  0.00    +0.000 A 
ENDROOT
BRANCH   4   7
ATOM      7  C   UNL     1       6.068   6.516  16.808  0.00  0.00    +0.000 C 
ATOM      8  C   UNL     1       7.256   7.229  17.465  0.00  0.00    +0.000 C 
BRANCH   7   9
ATOM      9  C   UNL     1       6.556   5.246  16.099  0.00  0.00    +0.000 C 
ATOM     10  O   UNL     1       7.682   4.783  16.284  0.00  0.00    +0.000 OA
ATOM     11  N   UNL     1       5.710   4.705  15.156  0.00  0.00    +0.000 N 
ATOM     12  H   UNL     1       4.758   5.042  15.084  0.00  0.00    +0.000 HD
BRANCH  11  13
ATOM     13  C   UNL     1       6.117   3.556  14.360  0.00  0.00    +0.000 C 
BRANCH  13  14
ATOM     14  C   UNL     1       6.304   3.904  12.883  0.00  0.00    +0.000 C 
BRANCH  14  15
ATOM     15  O   UNL     1       6.610   2.726  12.137  0.00  0.00    +0.000 OA
ATOM     16  H   UNL     1       5.835   2.147  12.215  0.00  0.00    +0.000 HD
ENDBRANCH  14  15
ENDBRANCH  13  14
ENDBRANCH  11  13
ENDBRANCH   7   9
ENDBRANCH   4   7
BRANCH   1  17
ATOM     17  C   UNL     1       1.637   5.398  20.478  0.00  0.00    +0.000 C 
BRANCH  17  19
ATOM     18  C   UNL     1       1.248   3.550  18.774  0.00  0.00    +0.000 C 
ATOM     19  C   UNL     1       1.011   4.016  20.211  0.00  0.00    +0.000 C 
ATOM     20  C   UNL     1       1.586   2.984  21.187  0.00  0.00    +0.000 C 
ENDBRANCH  17  19
ENDBRANCH   1  17
TORSDOF 7
ENDMDL
MODEL 3
REMARK VINA RESULT:      -6.8      1.094      1.884
REMARK  Name = 
REMARK  10 active torsions:
REMARK  status: ('A' for Active; 'I' for Inactive)
REMARK    1  A    between atoms: C_1  and  C_2
REMARK    2  A    between atoms: C_2  and  C_3
REMARK    3  A    between atoms: C_2  and  C_4
REMARK    4  A    between atoms: C_4  and  C_5
REMARK    5  A    between atoms: C_8  and  C_9
REMARK    6  A    between atoms: C_9  and  C_10
REMARK    7  A    between atoms: C_9  and  C_11
REMARK    8  A    between atoms: N_13  and  C_14
REMARK    9  A    between atoms: C_14  and  C_15
REMARK   10  A    between atoms: C_15  and  O_16
REMARK                            x       y       z     vdW  Elec       q    Type
REMARK                         _______ _______ _______ _____ _____    ______ ____
ROOT
ATOM      1  C   UNL     1       2.851   5.434  19.466  0.00  0.00    +0.000 A 
ATOM      2  C   UNL     1       2.892   6.319  18.383  0.00  0.00    +0.000 A 
ATOM      3  C   UNL     1       4.095   6.576  17.714  0.00  0.00    +0.000 A 
ATOM      4  C   UNL     1       5.289   5.958  18.121  0.00  0.00    +0.000 A 
ATOM      5  C   UNL     1       5.241   5.047  19.187  0.00  0.00    +0.000 A 
ATOM      6  C   UNL     1       4.041   4.794  19.854  0.00  0.00    +0.000 A 
ENDROOT
BRANCH   4   7
ATOM      7  C   UNL     1       6.610   6.346  17.468  0.00  0.00    +0.000 C 
ATOM      8  C   UNL     1       7.704   6.485  18.533  0.00  0.00    +0.000 C 
BRANCH   7   9
ATOM      9  C   UNL     1       7.094   5.418  16.348  0.00  0.00    +0.000 C 
ATOM     10  O   UNL     1       7.882   4.494  16.556  0.00  0.00    +0.000 OA
ATOM     11  N   UNL     1       6.691   5.734  15.069  0.00  0.00    +0.000 N 
ATOM     12  H   UNL     1       5.974   6.436  14.928  0.00  0.00    +0.000 HD
BRANCH  11  13
ATOM     13  C   UNL     1       7.172   4.973  13.924  0.00  0.00    +0.000 C 
BRANCH  13  14
ATOM     14  C   UNL     1       6.192   3.883  13.493  0.00  0.00    +0.000 C 
BRANCH  14  15
ATOM     15  O   UNL     1       5.916   3.010  14.590  0.00  0.00    +0.000 OA
ATOM     16  H   UNL     1       5.084   3.323  14.980  0.00  0.00    +0.000 HD
ENDBRANCH  14  15
ENDBRANCH  13  14
ENDBRANCH  11  13
ENDBRANCH   7   9
ENDBRANCH   4   7
BRANCH   1  17
ATOM     17  C   UNL     1       1.575   5.204  20.244  0.00  0.00    +0.000 C 
BRANCH  17  19
ATOM     18  C   UNL     1       1.299   3.211  18.687  0.00  0.00    +0.000 C 
ATOM     19  C   UNL     1       0.932   3.819  20.042  0.00  0.00    +0.000 C 
ATOM     20  C   UNL     1       1.366   2.871  21.165  0.00  0.00    +0.000 C 
ENDBRANCH  17  19
ENDBRANCH   1  17
TORSDOF 7
ENDMDL
MODEL 4
REMARK VINA RESULT:      -6.6      1.440      2.053
REMARK  Name = 
REMARK  10 active torsions:
REMARK  status: ('A' for Active; 'I' for Inactive)
REMARK    1  A    between atoms: C_1  and  C_2
REMARK    2  A    between atoms: C_2  and  C_3
REMARK    3  A    between atoms: C_2  and  C_4
REMARK    4  A    between atoms: C_4  and  C_5
REMARK    5  A    between atoms: C_8  and  C_9
REMARK    6  A    between atoms: C_9  and  C_10
REMARK    7  A    between atoms: C_9  and  C_11
REMARK    8  A    between atoms: N_13  and  C_14
REMARK    9  A    between atoms: C_14  and  C_15
REMARK   10  A    between atoms: C_15  and  O_16
REMARK                            x       y       z     vdW  Elec       q    Type
REMARK                         _______ _______ _______ _____ _____    ______ ____
ROOT
ATOM      1  C   UNL     1       2.538   5.285  19.701  0.00  0.00    +0.000 A 
ATOM      2  C   UNL     1       2.422   6.256  18.701  0.00  0.00    +0.000 A 
ATOM      3  C   UNL     1       3.534   6.641  17.944  0.00  0.00    +0.000 A 
ATOM      4  C   UNL     1       4.795   6.068  18.178  0.00  0.00    +0.000 A 
ATOM      5  C   UNL     1       4.905   5.072  19.160  0.00  0.00    +0.000 A 
ATOM      6  C   UNL     1       3.794   4.691  19.915  0.00  0.00    +0.000 A 
ENDROOT
BRANCH   4   7
ATOM      7  C   UNL     1       6.020   6.589  17.437  0.00  0.00    +0.000 C 
ATOM      8  C   UNL     1       7.301   6.092  18.118  0.00  0.00    +0.000 C 
BRANCH   7   9
ATOM      9  C   UNL     1       6.075   6.269  15.938  0.00  0.00    +0.000 C 
ATOM     10  O   UNL     1       5.263   6.734  15.137  0.00  0.00    +0.000 OA
ATOM     11  N   UNL     1       7.015   5.344  15.541  0.00  0.00    +0.000 N 
ATOM     12  H   UNL     1       7.730   5.043  16.192  0.00  0.00    +0.000 HD
BRANCH  11  13
ATOM     13  C   UNL     1       7.088   4.899  14.156  0.00  0.00    +0.000 C 
BRANCH  13  14
ATOM     14  C   UNL     1       6.140   3.736  13.865  0.00  0.00    +0.000 C 
BRANCH  14  15
ATOM     15  O   UNL     1       6.458   3.150  12.602  0.00  0.00    +0.000 OA
ATOM     16  H   UNL     1       7.422   3.212  12.510  0.00  0.00    +0.000 HD
ENDBRANCH  14  15
ENDBRANCH  13  14
ENDBRANCH  11  13
ENDBRANCH   7   9
ENDBRANCH   4   7
BRANCH   1  17
ATOM     17  C   UNL     1       1.362   4.914  20.575  0.00  0.00    +0.000 C 
BRANCH  17  19
ATOM     18  C   UNL     1       1.089   2.918  19.021  0.00  0.00    +0.000 C 
ATOM     19  C   UNL     1       0.887   3.455  20.440  0.00  0.00    +0.000 C 
ATOM     20  C   UNL     1       1.636   2.565  21.437  0.00  0.00    +0.000 C 
ENDBRANCH  17  19
ENDBRANCH   1  17
TORSDOF 7
ENDMDL
MODEL 5
REMARK VINA RESULT:      -6.6      3.081      6.702
REMARK  Name = 
REMARK  10 active torsions:
REMARK  status: ('A' for Active; 'I' for Inactive)
REMARK    1  A    between atoms: C_1  and  C_2
REMARK    2  A    between atoms: C_2  and  C_3
REMARK    3  A    between atoms: C_2  and  C_4
REMARK    4  A    between atoms: C_4  and  C_5
REMARK    5  A    between atoms: C_8  and  C_9
REMARK    6  A    between atoms: C_9  and  C_10
REMARK    7  A    between atoms: C_9  and  C_11
REMARK    8  A    between atoms: N_13  and  C_14
REMARK    9  A    between atoms: C_14  and  C_15
REMARK   10  A    between atoms: C_15  and  O_16
REMARK                            x       y       z     vdW  Elec       q    Type
REMARK                         _______ _______ _______ _____ _____    ______ ____
ROOT
ATOM      1  C   UNL     1       6.306   4.105  13.801  0.00  0.00    +0.000 A 
ATOM      2  C   UNL     1       5.331   3.630  14.685  0.00  0.00    +0.000 A 
ATOM      3  C   UNL     1       5.432   3.871  16.060  0.00  0.00    +0.000 A 
ATOM      4  C   UNL     1       6.520   4.589  16.585  0.00  0.00    +0.000 A 
ATOM      5  C   UNL     1       7.480   5.092  15.695  0.00  0.00    +0.000 A 
ATOM      6  C   UNL     1       7.378   4.849  14.324  0.00  0.00    +0.000 A 
ENDROOT
BRANCH   4   7
ATOM      7  C   UNL     1       6.683   4.732  18.093  0.00  0.00    +0.000 C 
ATOM      8  C   UNL     1       7.218   6.127  18.436  0.00  0.00    +0.000 C 
BRANCH   7   9
ATOM      9  C   UNL     1       5.430   4.440  18.927  0.00  0.00    +0.000 C 
ATOM     10  O   UNL     1       4.726   5.338  19.391  0.00  0.00    +0.000 OA
ATOM     11  N   UNL     1       5.185   3.118  19.227  0.00  0.00    +0.000 N 
ATOM     12  H   UNL     1       5.716   2.391  18.764  0.00  0.00    +0.000 HD
BRANCH  11  13
ATOM     13  C   UNL     1       4.075   2.741  20.092  0.00  0.00    +0.000 C 
BRANCH  13  14
ATOM     14  C   UNL     1       2.853   2.272  19.304  0.00  0.00    +0.000 C 
BRANCH  14  15
ATOM     15  O   UNL     1       1.681   2.365  20.116  0.00  0.00    +0.000 OA
ATOM     16  H   UNL     1       1.186   1.543  19.970  0.00  0.00    +0.000 HD
ENDBRANCH  14  15
ENDBRANCH  13  14
ENDBRANCH  11  13
ENDBRANCH   7   9
ENDBRANCH   4   7
BRANCH   1  17
ATOM     17  C   UNL     1       6.248   3.789  12.324  0.00  0.00    +0.000 C 
BRANCH  17  19
ATOM     18  C   UNL     1       4.117   3.159  11.087  0.00  0.00    +0.000 C 
ATOM     19  C   UNL     1       5.281   2.653  11.940  0.00  0.00    +0.000 C 
ATOM     20  C   UNL     1       6.036   1.557  11.181  0.00  0.00    +0.000 C 
ENDBRANCH  17  19
ENDBRANCH   1  17
TORSDOF 7
ENDMDL
MODEL 6
REMARK VINA RESULT:      -6.6      1.965      3.533
REMARK  Name = 
REMARK  10 active torsions:
REMARK  status: ('A' for Active; 'I' for Inactive)
REMARK    1  A    between atoms: C_1  and  C_2
REMARK    2  A    between atoms: C_2  and  C_3
REMARK    3  A    between atoms: C_2  and  C_4
REMARK    4  A    between atoms: C_4  and  C_5
REMARK    5  A    between atoms: C_8  and  C_9
REMARK    6  A    between atoms: C_9  and  C_10
REMARK    7  A    between atoms: C_9  and  C_11
REMARK    8  A    between atoms: N_13  and  C_14
REMARK    9  A    between atoms: C_14  and  C_15
REMARK   10  A    between atoms: C_15  and  O_16
REMARK                            x       y       z     vdW  Elec       q    Type
REMARK                         _______ _______ _______ _____ _____    ______ ____
ROOT
ATOM      1  C   UNL     1       2.204   3.629  18.349  0.00  0.00    +0.000 A 
ATOM      2  C   UNL     1       2.604   4.878  17.863  0.00  0.00    +0.000 A 
ATOM      3  C   UNL     1       3.763   5.008  17.089  0.00  0.00    +0.000 A 
ATOM      4  C   UNL     1       4.556   3.887  16.790  0.00  0.00    +0.000 A 
ATOM      5  C   UNL     1       4.138   2.631  17.252  0.00  0.00    +0.000 A 
ATOM      6  C   UNL     1       2.982   2.504  18.025  0.00  0.00    +0.000 A 
ENDROOT
BRANCH   4   7
ATOM      7  C   UNL     1       5.880   4.063  16.058  0.00  0.00    +0.000 C 
ATOM      8  C   UNL     1       5.667   4.859  14.764  0.00  0.00    +0.000 C 
BRANCH   7   9
ATOM      9  C   UNL     1       7.011   4.701  16.875  0.00  0.00    +0.000 C 
ATOM     10  O   UNL     1       8.082   4.126  17.075  0.00  0.00    +0.000 OA
ATOM     11  N   UNL     1       6.732   5.911  17.472  0.00  0.00    +0.000 N 
ATOM     12  H   UNL     1       5.886   6.410  17.223  0.00  0.00    +0.000 HD
BRANCH  11  13
ATOM     13  C   UNL     1       7.703   6.555  18.345  0.00  0.00    +0.000 C 
BRANCH  13  14
ATOM     14  C   UNL     1       7.668   5.999  19.768  0.00  0.00    +0.000 C 
BRANCH  14  15
ATOM     15  O   UNL     1       8.765   5.108  19.973  0.00  0.00    +0.000 OA
ATOM     16  H   UNL     1       9.455   5.627  20.417  0.00  0.00    +0.000 HD
ENDBRANCH  14  15
ENDBRANCH  13  14
ENDBRANCH  11  13
ENDBRANCH   7   9
ENDBRANCH   4   7
BRANCH   1  17
ATOM     17  C   UNL     1       0.997   3.486  19.247  0.00  0.00    +0.000 C 
BRANCH  17  19
ATOM     18  C   UNL     1       2.261   3.023  21.406  0.00  0.00    +0.000 C 
ATOM     19  C   UNL     1       1.223   3.907  20.712  0.00  0.00    +0.000 C 
ATOM     20  C   UNL     1       1.672   5.371  20.772  0.00  0.00    +0.000 C 
ENDBRANCH  17  19
ENDBRANCH   1  17
TORSDOF 7
ENDMDL
MODEL 7
REMARK VINA RESULT:      -6.5      0.660      1.233
REMARK  Name = 
REMARK  10 active torsions:
REMARK  status: ('A' for Active; 'I' for Inactive)
REMARK    1  A    between atoms: C_1  and  C_2
REMARK    2  A    between atoms: C_2  and  C_3
REMARK    3  A    between atoms: C_2  and  C_4
REMARK    4  A    between atoms: C_4  and  C_5
REMARK    5  A    between atoms: C_8  and  C_9
REMARK    6  A    between atoms: C_9  and  C_10
REMARK    7  A    between atoms: C_9  and  C_11
REMARK    8  A    between atoms: N_13  and  C_14
REMARK    9  A    between atoms: C_14  and  C_15
REMARK   10  A    between atoms: C_15  and  O_16
REMARK                            x       y       z     vdW  Elec       q    Type
REMARK                         _______ _______ _______ _____ _____    ______ ____
ROOT
ATOM      1  C   UNL     1       2.744   4.976  18.926  0.00  0.00    +0.000 A 
ATOM      2  C   UNL     1       2.920   6.322  18.590  0.00  0.00    +0.000 A 
ATOM      3  C   UNL     1       3.963   6.718  17.744  0.00  0.00    +0.000 A 
ATOM      4  C   UNL     1       4.862   5.772  17.222  0.00  0.00    +0.000 A 
ATOM      5  C   UNL     1       4.666   4.419  17.535  0.00  0.00    +0.000 A 
ATOM      6  C   UNL     1       3.626   4.027  18.380  0.00  0.00    +0.000 A 
ENDROOT
BRANCH   4   7
ATOM      7  C   UNL     1       6.066   6.233  16.410  0.00  0.00    +0.000 C 
ATOM      8  C   UNL     1       7.131   6.831  17.338  0.00  0.00    +0.000 C 
BRANCH   7   9
ATOM      9  C   UNL     1       6.706   5.169  15.509  0.00  0.00    +0.000 C 
ATOM     10  O   UNL     1       7.802   4.667  15.762  0.00  0.00    +0.000 OA
ATOM     11  N   UNL     1       6.043   4.876  14.337  0.00  0.00    +0.000 N 
ATOM     12  H   UNL     1       5.104   5.227  14.190  0.00  0.00    +0.000 HD
BRANCH  11  13
ATOM     13  C   UNL     1       6.613   3.952  13.367  0.00  0.00    +0.000 C 
BRANCH  13  14
ATOM     14  C   UNL     1       7.341   4.670  12.232  0.00  0.00    +0.000 C 
BRANCH  14  15
ATOM     15  O   UNL     1       8.184   5.694  12.761  0.00  0.00    +0.000 OA
ATOM     16  H   UNL     1       7.703   6.078  13.512  0.00  0.00    +0.000 HD
ENDBRANCH  14  15
ENDBRANCH  13  14
ENDBRANCH  11  13
ENDBRANCH   7   9
ENDBRANCH   4   7
BRANCH   1  17
ATOM     17  C   UNL     1       1.669   4.543  19.897  0.00  0.00    +0.000 C 
BRANCH  17  19
ATOM     18  C   UNL     1       1.310   2.723  21.638  0.00  0.00    +0.000 C 
ATOM     19  C   UNL     1       1.610   3.028  20.169  0.00  0.00    +0.000 C 
ATOM     20  C   UNL     1       0.543   2.378  19.281  0.00  0.00    +0.000 C 
ENDBRANCH  17  19
ENDBRANCH   1  17
TORSDOF 7
ENDMDL
MODEL 8
REMARK VINA RESULT:      -6.5      1.370      1.622
REMARK  Name = 
REMARK  10 active torsions:
REMARK  status: ('A' for Active; 'I' for Inactive)
REMARK    1  A    between atoms: C_1  and  C_2
REMARK    2  A    between atoms: C_2  and  C_3
REMARK    3  A    between atoms: C_2  and  C_4
REMARK    4  A    between atoms: C_4  and  C_5
REMARK    5  A    between atoms: C_8  and  C_9
REMARK    6  A    between atoms: C_9  and  C_10
REMARK    7  A    between atoms: C_9  and  C_11
REMARK    8  A    between atoms: N_13  and  C_14
REMARK    9  A    between atoms: C_14  and  C_15
REMARK   10  A    between atoms: C_15  and  O_16
REMARK                            x       y       z     vdW  Elec       q    Type
REMARK                         _______ _______ _______ _____ _____    ______ ____
ROOT
ATOM      1  C   UNL     1       2.602   4.230  18.450  0.00  0.00    +0.000 A 
ATOM      2  C   UNL     1       3.808   3.522  18.411  0.00  0.00    +0.000 A 
ATOM      3  C   UNL     1       4.978   4.127  17.936  0.00  0.00    +0.000 A 
ATOM      4  C   UNL     1       4.965   5.455  17.480  0.00  0.00    +0.000 A 
ATOM      5  C   UNL     1       3.762   6.174  17.548  0.00  0.00    +0.000 A 
ATOM      6  C   UNL     1       2.596   5.569  18.021  0.00  0.00    +0.000 A 
ENDROOT
BRANCH   4   7
ATOM      7  C   UNL     1       6.213   6.056  16.846  0.00  0.00    +0.000 C 
ATOM      8  C   UNL     1       7.221   6.448  17.934  0.00  0.00    +0.000 C 
BRANCH   7   9
ATOM      9  C   UNL     1       6.907   5.186  15.790  0.00  0.00    +0.000 C 
ATOM     10  O   UNL     1       7.892   4.496  16.053  0.00  0.00    +0.000 OA
ATOM     11  N   UNL     1       6.440   5.297  14.499  0.00  0.00    +0.000 N 
ATOM     12  H   UNL     1       5.577   5.795  14.318  0.00  0.00    +0.000 HD
BRANCH  11  13
ATOM     13  C   UNL     1       7.090   4.587  13.406  0.00  0.00    +0.000 C 
BRANCH  13  14
ATOM     14  C   UNL     1       6.233   3.446  12.859  0.00  0.00    +0.000 C 
BRANCH  14  15
ATOM     15  O   UNL     1       4.870   3.861  12.758  0.00  0.00    +0.000 OA
ATOM     16  H   UNL     1       4.781   4.287  11.890  0.00  0.00    +0.000 HD
ENDBRANCH  14  15
ENDBRANCH  13  14
ENDBRANCH  11  13
ENDBRANCH   7   9
ENDBRANCH   4   7
BRANCH   1  17
ATOM     17  C   UNL     1       1.316   3.568  18.890  0.00  0.00    +0.000 C 
BRANCH  17  19
ATOM     18  C   UNL     1       1.394   2.694  21.278  0.00  0.00    +0.000 C 
ATOM     19  C   UNL     1       0.923   3.822  20.358  0.00  0.00    +0.000 C 
ATOM     20  C   UNL     1       1.513   5.153  20.835  0.00  0.00    +0.000 C 
ENDBRANCH  17  19
ENDBRANCH   1  17
TORSDOF 7
ENDMDL
MODEL 9
REMARK VINA RESULT:      -6.4      1.522      2.111
REMARK  Name = 
REMARK  10 active torsions:
REMARK  status: ('A' for Active; 'I' for Inactive)
REMARK    1  A    between atoms: C_1  and  C_2
REMARK    2  A    between atoms: C_2  and  C_3
REMARK    3  A    between atoms: C_2  and  C_4
REMARK    4  A    between atoms: C_4  and  C_5
REMARK    5  A    between atoms: C_8  and  C_9
REMARK    6  A    between atoms: C_9  and  C_10
REMARK    7  A    between atoms: C_9  and  C_11
REMARK    8  A    between atoms: N_13  and  C_14
REMARK    9  A    between atoms: C_14  and  C_15
REMARK   10  A    between atoms: C_15  and  O_16
REMARK                            x       y       z     vdW  Elec       q    Type
REMARK                         _______ _______ _______ _____ _____    ______ ____
ROOT
ATOM      1  C   UNL     1       2.798   3.376  18.799  0.00  0.00    +0.000 A 
ATOM      2  C   UNL     1       2.738   4.375  17.822  0.00  0.00    +0.000 A 
ATOM      3  C   UNL     1       3.869   5.136  17.505  0.00  0.00    +0.000 A 
ATOM      4  C   UNL     1       5.089   4.919  18.169  0.00  0.00    +0.000 A 
ATOM      5  C   UNL     1       5.156   3.896  19.126  0.00  0.00    +0.000 A 
ATOM      6  C   UNL     1       4.026   3.140  19.441  0.00  0.00    +0.000 A 
ENDROOT
BRANCH   4   7
ATOM      7  C   UNL     1       6.274   5.839  17.906  0.00  0.00    +0.000 C 
ATOM      8  C   UNL     1       7.330   5.667  19.005  0.00  0.00    +0.000 C 
BRANCH   7   9
ATOM      9  C   UNL     1       6.934   5.696  16.529  0.00  0.00    +0.000 C 
ATOM     10  O   UNL     1       7.712   6.540  16.082  0.00  0.00    +0.000 OA
ATOM     11  N   UNL     1       6.531   4.624  15.762  0.00  0.00    +0.000 N 
ATOM     12  H   UNL     1       5.965   3.894  16.178  0.00  0.00    +0.000 HD
BRANCH  11  13
ATOM     13  C   UNL     1       7.026   4.450  14.404  0.00  0.00    +0.000 C 
BRANCH  13  14
ATOM     14  C   UNL     1       5.936   3.979  13.441  0.00  0.00    +0.000 C 
BRANCH  14  15
ATOM     15  O   UNL     1       6.410   2.877  12.667  0.00  0.00    +0.000 OA
ATOM     16  H   UNL     1       7.278   3.141  12.323  0.00  0.00    +0.000 HD
ENDBRANCH  14  15
ENDBRANCH  13  14
ENDBRANCH  11  13
ENDBRANCH   7   9
ENDBRANCH   4   7
BRANCH   1  17
ATOM     17  C   UNL     1       1.567   2.598  19.203  0.00  0.00    +0.000 C 
BRANCH  17  19
ATOM     18  C   UNL     1       1.487   2.516  21.745  0.00  0.00    +0.000 C 
ATOM     19  C   UNL     1       0.866   3.107  20.478  0.00  0.00    +0.000 C 
ATOM     20  C   UNL     1       0.934   4.636  20.537  0.00  0.00    +0.000 C 
ENDBRANCH  17  19
ENDBRANCH   1  17
TORSDOF 7
ENDMDL
