MODEL 1
REMARK VINA RESULT:      -9.3      0.000      0.000
REMARK  Name = 
REMARK  7 active torsions:
REMARK  status: ('A' for Active; 'I' for Inactive)
REMARK    1  A    between atoms: C_1  and  C_2
REMARK    2  A    between atoms: C_2  and  C_3
REMARK    3  A    between atoms: C_3  and  N_4
REMARK    4  A    between atoms: C_6  and  C_7
REMARK    5  A    between atoms: C_7  and  C_9
REMARK    6  A    between atoms: C_16  and  C_17
REMARK    7  A    between atoms: C_17  and  C_18
REMARK                            x       y       z     vdW  Elec       q    Type
REMARK                         _______ _______ _______ _____ _____    ______ ____
ROOT
ATOM      1  C   UNL     1       1.711   9.132  17.874  0.00  0.00    +0.000 C 
ATOM      2  O   UNL     1       2.494  10.040  17.572  0.00  0.00    +0.000 OA
ENDROOT
BRANCH   1   3
ATOM      3  C   UNL     1      -0.016   9.675  17.902  0.00  0.00    +0.000 A 
ATOM      4  C   UNL     1       0.478  10.070  19.112  0.00  0.00    +0.000 A 
ATOM      5  C   UNL     1      -0.392   9.939  20.113  0.00  0.00    +0.000 A 
ATOM      6  C   UNL     1      -0.987  11.126  20.056  0.00  0.00    +0.000 A 
ATOM      7  C   UNL     1      -1.838  11.210  19.020  0.00  0.00    +0.000 A 
ATOM      8  C   UNL     1      -2.833  12.160  19.355  0.00  0.00    +0.000 A 
ATOM      9  C   UNL     1      -4.143  12.077  18.962  0.00  0.00    +0.000 A 
ATOM     10  C   UNL     1      -4.500  11.057  18.104  0.00  0.00    +0.000 A 
ATOM     11  C   UNL     1      -3.309  10.248  17.542  0.00  0.00    +0.000 A 
ATOM     12  C   UNL     1      -1.680  10.232  18.000  0.00  0.00    +0.000 A 
BRANCH  10  13
ATOM     13  C   UNL     1      -6.078  11.016  18.103  0.00  0.00    +0.000 C 
ATOM     14  C   UNL     1      -7.016  11.500  19.193  0.00  0.00    +0.000 C 
ENDBRANCH  10  13
ENDBRANCH   1   3
BRANCH   1  17
ATOM     15  N   UNL     1       2.858   5.644  19.658  0.00  0.00    +0.000 N 
ATOM     16  C   UNL     1       2.161   6.859  19.492  0.00  0.00    +0.000 A 
ATOM     17  C   UNL     1       2.520   7.604  18.310  0.00  0.00    +0.000 A 
ATOM     18  C   UNL     1       3.666   6.674  17.812  0.00  0.00    +0.000 A 
ATOM     19  C   UNL     1       4.639   6.661  16.764  0.00  0.00    +0.000 A 
ATOM     20  C   UNL     1       5.578   5.606  16.558  0.00  0.00    +0.000 A 
ATOM     21  C   UNL     1       5.625   4.505  17.387  0.00  0.00    +0.000 A 
ATOM     22  C   UNL     1       4.739   4.459  18.447  0.00  0.00    +0.000 A 
ATOM     23  C   UNL     1       3.791   5.520  18.650  0.00  0.00    +0.000 A 
BRANCH  15  24
ATOM     24  C   UNL     1       2.725   4.628  20.741  0.00  0.00    +0.000 C 
BRANCH  24  26
ATOM     25  C   UNL     1       0.973   3.182  19.497  0.00  0.00    +0.000 C 
ATOM     26  C   UNL     1       1.371   3.909  20.789  0.00  0.00    +0.000 C 
ENDBRANCH  24  26
ENDBRANCH  15  24
ENDBRANCH   1  17
TORSDOF 5
ENDMDL
MODEL 2
REMARK VINA RESULT:      -8.8      0.975      2.875
REMARK  Name = 
REMARK  7 active torsions:
REMARK  status: ('A' for Active; 'I' for Inactive)
REMARK    1  A    between atoms: C_1  and  C_2
REMARK    2  A    between atoms: C_2  and  C_3
REMARK    3  A    between atoms: C_3  and  N_4
REMARK    4  A    between atoms: C_6  and  C_7
REMARK    5  A    between atoms: C_7  and  C_9
REMARK    6  A    between atoms: C_16  and  C_17
REMARK    7  A    between atoms: C_17  and  C_18
REMARK                            x       y       z     vdW  Elec       q    Type
REMARK                         _______ _______ _______ _____ _____    ______ ____
ROOT
ATOM      1  C   UNL     1       1.815   9.231  17.854  0.00  0.00    +0.000 C 
ATOM      2  O   UNL     1       2.579  10.174  17.621  0.00  0.00    +0.000 OA
ENDROOT
BRANCH   1   3
ATOM      3  C   UNL     1       0.075   9.731  17.886  0.00  0.00    +0.000 A 
ATOM      4  C   UNL     1       0.552  10.102  19.110  0.00  0.00    +0.000 A 
ATOM      5  C   UNL     1      -0.321   9.921  20.101  0.00  0.00    +0.000 A 
ATOM      6  C   UNL     1      -0.946  11.093  20.075  0.00  0.00    +0.000 A 
ATOM      7  C   UNL     1      -1.792  11.187  19.036  0.00  0.00    +0.000 A 
ATOM      8  C   UNL     1      -2.812  12.102  19.391  0.00  0.00    +0.000 A 
ATOM      9  C   UNL     1      -4.117  11.998  18.987  0.00  0.00    +0.000 A 
ATOM     10  C   UNL     1      -4.443  10.996  18.097  0.00  0.00    +0.000 A 
ATOM     11  C   UNL     1      -3.230  10.233  17.520  0.00  0.00    +0.000 A 
ATOM     12  C   UNL     1      -1.603  10.244  17.989  0.00  0.00    +0.000 A 
BRANCH  10  13
ATOM     13  C   UNL     1      -6.020  10.916  18.084  0.00  0.00    +0.000 C 
ATOM     14  C   UNL     1      -7.005  12.047  18.309  0.00  0.00    +0.000 C 
ENDBRANCH  10  13
ENDBRANCH   1   3
BRANCH   1  17
ATOM     15  N   UNL     1       4.398   6.071  17.922  0.00  0.00    +0.000 N 
ATOM     16  C   UNL     1       3.822   7.279  17.475  0.00  0.00    +0.000 A 
ATOM     17  C   UNL     1       2.655   7.699  18.210  0.00  0.00    +0.000 A 
ATOM     18  C   UNL     1       2.536   6.461  19.146  0.00  0.00    +0.000 A 
ATOM     19  C   UNL     1       1.636   5.972  20.145  0.00  0.00    +0.000 A 
ATOM     20  C   UNL     1       1.827   4.754  20.866  0.00  0.00    +0.000 A 
ATOM     21  C   UNL     1       2.912   3.935  20.631  0.00  0.00    +0.000 A 
ATOM     22  C   UNL     1       3.810   4.321  19.653  0.00  0.00    +0.000 A 
ATOM     23  C   UNL     1       3.618   5.549  18.932  0.00  0.00    +0.000 A 
BRANCH  15  24
ATOM     24  C   UNL     1       5.607   5.364  17.412  0.00  0.00    +0.000 C 
BRANCH  24  26
ATOM     25  C   UNL     1       7.483   7.135  17.643  0.00  0.00    +0.000 C 
ATOM     26  C   UNL     1       6.925   5.774  18.081  0.00  0.00    +0.000 C 
ENDBRANCH  24  26
ENDBRANCH  15  24
ENDBRANCH   1  17
TORSDOF 5
ENDMDL
MODEL 3
REMARK VINA RESULT:      -8.8      0.855      2.793
REMARK  Name = 
REMARK  7 active torsions:
REMARK  status: ('A' for Active; 'I' for Inactive)
REMARK    1  A    between atoms: C_1  and  C_2
REMARK    2  A    between atoms: C_2  and  C_3
REMARK    3  A    between atoms: C_3  and  N_4
REMARK    4  A    between atoms: C_6  and  C_7
REMARK    5  A    between atoms: C_7  and  C_9
REMARK    6  A    between atoms: C_16  and  C_17
REMARK    7  A    between atoms: C_17  and  C_18
REMARK                            x       y       z     vdW  Elec       q    Type
REMARK                         _______ _______ _______ _____ _____    ______ ____
ROOT
ATOM      1  C   UNL     1       1.851   9.167  17.858  0.00  0.00    +0.000 C 
ATOM      2  O   UNL     1       2.635  10.098  17.642  0.00  0.00    +0.000 OA
ENDROOT
BRANCH   1   3
ATOM      3  C   UNL     1       0.121   9.701  17.884  0.00  0.00    +0.000 A 
ATOM      4  C   UNL     1       0.592  10.035  19.121  0.00  0.00    +0.000 A 
ATOM      5  C   UNL     1      -0.295   9.848  20.099  0.00  0.00    +0.000 A 
ATOM      6  C   UNL     1      -0.896  11.033  20.093  0.00  0.00    +0.000 A 
ATOM      7  C   UNL     1      -1.729  11.167  19.048  0.00  0.00    +0.000 A 
ATOM      8  C   UNL     1      -2.735  12.094  19.413  0.00  0.00    +0.000 A 
ATOM      9  C   UNL     1      -4.037  12.025  18.994  0.00  0.00    +0.000 A 
ATOM     10  C   UNL     1      -4.374  11.050  18.078  0.00  0.00    +0.000 A 
ATOM     11  C   UNL     1      -3.169  10.276  17.497  0.00  0.00    +0.000 A 
ATOM     12  C   UNL     1      -1.548  10.244  17.982  0.00  0.00    +0.000 A 
BRANCH  10  13
ATOM     13  C   UNL     1      -5.951  11.001  18.048  0.00  0.00    +0.000 C 
ATOM     14  C   UNL     1      -6.882  10.496  19.134  0.00  0.00    +0.000 C 
ENDBRANCH  10  13
ENDBRANCH   1   3
BRANCH   1  17
ATOM     15  N   UNL     1       4.353   5.942  17.882  0.00  0.00    +0.000 N 
ATOM     16  C   UNL     1       3.799   7.164  17.443  0.00  0.00    +0.000 A 
ATOM     17  C   UNL     1       2.658   7.615  18.201  0.00  0.00    +0.000 A 
ATOM     18  C   UNL     1       2.526   6.381  19.143  0.00  0.00    +0.000 A 
ATOM     19  C   UNL     1       1.635   5.918  20.160  0.00  0.00    +0.000 A 
ATOM     20  C   UNL     1       1.809   4.697  20.880  0.00  0.00    +0.000 A 
ATOM     21  C   UNL     1       2.867   3.850  20.625  0.00  0.00    +0.000 A 
ATOM     22  C   UNL     1       3.755   4.211  19.629  0.00  0.00    +0.000 A 
ATOM     23  C   UNL     1       3.581   5.442  18.909  0.00  0.00    +0.000 A 
BRANCH  15  24
ATOM     24  C   UNL     1       5.533   5.203  17.349  0.00  0.00    +0.000 C 
BRANCH  24  26
ATOM     25  C   UNL     1       5.512   4.412  14.883  0.00  0.00    +0.000 C 
ATOM     26  C   UNL     1       5.881   5.512  15.888  0.00  0.00    +0.000 C 
ENDBRANCH  24  26
ENDBRANCH  15  24
ENDBRANCH   1  17
TORSDOF 5
ENDMDL
MODEL 4
REMARK VINA RESULT:      -8.6      2.347      8.918
REMARK  Name = 
REMARK  7 active torsions:
REMARK  status: ('A' for Active; 'I' for Inactive)
REMARK    1  A    between atoms: C_1  and  C_2
REMARK    2  A    between atoms: C_2  and  C_3
REMARK    3  A    between atoms: C_3  and  N_4
REMARK    4  A    between atoms: C_6  and  C_7
REMARK    5  A    between atoms: C_7  and  C_9
REMARK    6  A    between atoms: C_16  and  C_17
REMARK    7  A    between atoms: C_17  and  C_18
REMARK                            x       y       z     vdW  Elec       q    Type
REMARK                         _______ _______ _______ _____ _____    ______ ____
ROOT
ATOM      1  C   UNL     1       1.337   8.525  20.775  0.00  0.00    +0.000 C 
ATOM      2  O   UNL     1       1.690   8.387  21.952  0.00  0.00    +0.000 OA
ENDROOT
BRANCH   1   3
ATOM      3  C   UNL     1       2.246   7.446  19.640  0.00  0.00    +0.000 A 
ATOM      4  C   UNL     1       1.487   6.588  20.381  0.00  0.00    +0.000 A 
ATOM      5  C   UNL     1       2.107   5.445  20.677  0.00  0.00    +0.000 A 
ATOM      6  C   UNL     1       1.762   4.717  19.620  0.00  0.00    +0.000 A 
ATOM      7  C   UNL     1       2.446   5.073  18.521  0.00  0.00    +0.000 A 
ATOM      8  C   UNL     1       2.511   3.945  17.668  0.00  0.00    +0.000 A 
ATOM      9  C   UNL     1       3.576   3.649  16.858  0.00  0.00    +0.000 A 
ATOM     10  C   UNL     1       4.612   4.557  16.791  0.00  0.00    +0.000 A 
ATOM     11  C   UNL     1       4.334   5.899  17.507  0.00  0.00    +0.000 A 
ATOM     12  C   UNL     1       3.092   6.338  18.570  0.00  0.00    +0.000 A 
BRANCH  10  13
ATOM     13  C   UNL     1       5.804   3.812  16.073  0.00  0.00    +0.000 C 
ATOM     14  C   UNL     1       6.212   3.910  14.615  0.00  0.00    +0.000 C 
ENDBRANCH  10  13
ENDBRANCH   1   3
BRANCH   1  17
ATOM     15  N   UNL     1      -1.214  11.297  19.203  0.00  0.00    +0.000 N 
ATOM     16  C   UNL     1      -0.207  10.309  19.220  0.00  0.00    +0.000 A 
ATOM     17  C   UNL     1       0.139   9.824  20.534  0.00  0.00    +0.000 A 
ATOM     18  C   UNL     1      -0.771  10.779  21.361  0.00  0.00    +0.000 A 
ATOM     19  C   UNL     1      -1.023  11.072  22.738  0.00  0.00    +0.000 A 
ATOM     20  C   UNL     1      -1.976  12.034  23.189  0.00  0.00    +0.000 A 
ATOM     21  C   UNL     1      -2.728  12.779  22.305  0.00  0.00    +0.000 A 
ATOM     22  C   UNL     1      -2.517  12.579  20.953  0.00  0.00    +0.000 A 
ATOM     23  C   UNL     1      -1.561  11.607  20.501  0.00  0.00    +0.000 A 
BRANCH  15  24
ATOM     24  C   UNL     1      -1.822  11.995  18.035  0.00  0.00    +0.000 C 
BRANCH  24  26
ATOM     25  C   UNL     1      -3.122   9.798  17.605  0.00  0.00    +0.000 C 
ATOM     26  C   UNL     1      -3.078  11.325  17.465  0.00  0.00    +0.000 C 
ENDBRANCH  24  26
ENDBRANCH  15  24
ENDBRANCH   1  17
TORSDOF 5
ENDMDL
MODEL 5
REMARK VINA RESULT:      -8.6      2.035      3.798
REMARK  Name = 
REMARK  7 active torsions:
REMARK  status: ('A' for Active; 'I' for Inactive)
REMARK    1  A    between atoms: C_1  and  C_2
REMARK    2  A    between atoms: C_2  and  C_3
REMARK    3  A    between atoms: C_3  and  N_4
REMARK    4  A    between atoms: C_6  and  C_7
REMARK    5  A    between atoms: C_7  and  C_9
REMARK    6  A    between atoms: C_16  and  C_17
REMARK    7  A    between atoms: C_17  and  C_18
REMARK                            x       y       z     vdW  Elec       q    Type
REMARK                         _______ _______ _______ _____ _____    ______ ____
ROOT
ATOM      1  C   UNL     1       1.901   8.483  18.520  0.00  0.00    +0.000 C 
ATOM      2  O   UNL     1       2.312   8.978  17.465  0.00  0.00    +0.000 OA
ENDROOT
BRANCH   1   3
ATOM      3  C   UNL     1       0.750   9.568  19.401  0.00  0.00    +0.000 A 
ATOM      4  C   UNL     1       1.111   8.639  20.332  0.00  0.00    +0.000 A 
ATOM      5  C   UNL     1       0.114   8.272  21.137  0.00  0.00    +0.000 A 
ATOM      6  C   UNL     1       0.252   9.178  22.100  0.00  0.00    +0.000 A 
ATOM      7  C   UNL     1      -0.191  10.386  21.718  0.00  0.00    +0.000 A 
ATOM      8  C   UNL     1      -0.589  11.088  22.881  0.00  0.00    +0.000 A 
ATOM      9  C   UNL     1      -1.634  11.973  22.931  0.00  0.00    +0.000 A 
ATOM     10  C   UNL     1      -2.281  12.279  21.752  0.00  0.00    +0.000 A 
ATOM     11  C   UNL     1      -1.601  11.715  20.483  0.00  0.00    +0.000 A 
ATOM     12  C   UNL     1      -0.357  10.578  20.319  0.00  0.00    +0.000 A 
BRANCH  10  13
ATOM     13  C   UNL     1      -3.608  13.030  22.161  0.00  0.00    +0.000 C 
ATOM     14  C   UNL     1      -5.020  12.734  21.693  0.00  0.00    +0.000 C 
ENDBRANCH  10  13
ENDBRANCH   1   3
BRANCH   1  17
ATOM     15  N   UNL     1       4.466   5.341  18.979  0.00  0.00    +0.000 N 
ATOM     16  C   UNL     1       4.007   6.600  18.536  0.00  0.00    +0.000 A 
ATOM     17  C   UNL     1       2.653   6.916  18.917  0.00  0.00    +0.000 A 
ATOM     18  C   UNL     1       2.301   5.560  19.598  0.00  0.00    +0.000 A 
ATOM     19  C   UNL     1       1.158   4.939  20.191  0.00  0.00    +0.000 A 
ATOM     20  C   UNL     1       1.167   3.634  20.769  0.00  0.00    +0.000 A 
ATOM     21  C   UNL     1       2.304   2.854  20.781  0.00  0.00    +0.000 A 
ATOM     22  C   UNL     1       3.444   3.370  20.194  0.00  0.00    +0.000 A 
ATOM     23  C   UNL     1       3.434   4.686  19.616  0.00  0.00    +0.000 A 
BRANCH  15  24
ATOM     24  C   UNL     1       5.803   4.711  18.785  0.00  0.00    +0.000 C 
BRANCH  24  26
ATOM     25  C   UNL     1       7.616   6.443  18.138  0.00  0.00    +0.000 C 
ATOM     26  C   UNL     1       6.992   5.568  19.234  0.00  0.00    +0.000 C 
ENDBRANCH  24  26
ENDBRANCH  15  24
ENDBRANCH   1  17
TORSDOF 5
ENDMDL
MODEL 6
REMARK VINA RESULT:      -8.5      2.470      3.891
REMARK  Name = 
REMARK  7 active torsions:
REMARK  status: ('A' for Active; 'I' for Inactive)
REMARK    1  A    between atoms: C_1  and  C_2
REMARK    2  A    between atoms: C_2  and  C_3
REMARK    3  A    between atoms: C_3  and  N_4
REMARK    4  A    between atoms: C_6  and  C_7
REMARK    5  A    between atoms: C_7  and  C_9
REMARK    6  A    between atoms: C_16  and  C_17
REMARK    7  A    between atoms: C_17  and  C_18
REMARK                            x       y       z     vdW  Elec       q    Type
REMARK                         _______ _______ _______ _____ _____    ______ ____
ROOT
ATOM      1  C   UNL     1       2.292   8.274  18.031  0.00  0.00    +0.000 C 
ATOM      2  O   UNL     1       2.666   8.876  17.019  0.00  0.00    +0.000 OA
ENDROOT
BRANCH   1   3
ATOM      3  C   UNL     1       1.193   9.269  19.071  0.00  0.00    +0.000 A 
ATOM      4  C   UNL     1       1.621   8.271  19.897  0.00  0.00    +0.000 A 
ATOM      5  C   UNL     1       0.680   7.828  20.732  0.00  0.00    +0.000 A 
ATOM      6  C   UNL     1       0.874   8.653  21.755  0.00  0.00    +0.000 A 
ATOM      7  C   UNL     1       0.398   9.884  21.504  0.00  0.00    +0.000 A 
ATOM      8  C   UNL     1       0.073  10.483  22.744  0.00  0.00    +0.000 A 
ATOM      9  C   UNL     1      -0.973  11.348  22.933  0.00  0.00    +0.000 A 
ATOM     10  C   UNL     1      -1.698  11.740  21.827  0.00  0.00    +0.000 A 
ATOM     11  C   UNL     1      -1.098  11.290  20.476  0.00  0.00    +0.000 A 
ATOM     12  C   UNL     1       0.141  10.187  20.139  0.00  0.00    +0.000 A 
BRANCH  10  13
ATOM     13  C   UNL     1      -3.001  12.439  22.381  0.00  0.00    +0.000 C 
ATOM     14  C   UNL     1      -3.521  12.428  23.806  0.00  0.00    +0.000 C 
ENDBRANCH  10  13
ENDBRANCH   1   3
BRANCH   1  17
ATOM     15  N   UNL     1       4.886   5.167  18.559  0.00  0.00    +0.000 N 
ATOM     16  C   UNL     1       4.465   6.498  18.352  0.00  0.00    +0.000 A 
ATOM     17  C   UNL     1       3.039   6.667  18.228  0.00  0.00    +0.000 A 
ATOM     18  C   UNL     1       2.639   5.163  18.286  0.00  0.00    +0.000 A 
ATOM     19  C   UNL     1       1.451   4.378  18.162  0.00  0.00    +0.000 A 
ATOM     20  C   UNL     1       1.414   2.957  18.291  0.00  0.00    +0.000 A 
ATOM     21  C   UNL     1       2.555   2.221  18.535  0.00  0.00    +0.000 A 
ATOM     22  C   UNL     1       3.752   2.905  18.634  0.00  0.00    +0.000 A 
ATOM     23  C   UNL     1       3.787   4.336  18.508  0.00  0.00    +0.000 A 
BRANCH  15  24
ATOM     24  C   UNL     1       6.267   4.639  18.748  0.00  0.00    +0.000 C 
BRANCH  24  26
ATOM     25  C   UNL     1       7.030   4.434  16.282  0.00  0.00    +0.000 C 
ATOM     26  C   UNL     1       7.270   5.055  17.664  0.00  0.00    +0.000 C 
ENDBRANCH  24  26
ENDBRANCH  15  24
ENDBRANCH   1  17
TORSDOF 5
ENDMDL
MODEL 7
REMARK VINA RESULT:      -8.5      2.186      3.804
REMARK  Name = 
REMARK  7 active torsions:
REMARK  status: ('A' for Active; 'I' for Inactive)
REMARK    1  A    between atoms: C_1  and  C_2
REMARK    2  A    between atoms: C_2  and  C_3
REMARK    3  A    between atoms: C_3  and  N_4
REMARK    4  A    between atoms: C_6  and  C_7
REMARK    5  A    between atoms: C_7  and  C_9
REMARK    6  A    between atoms: C_16  and  C_17
REMARK    7  A    between atoms: C_17  and  C_18
REMARK                            x       y       z     vdW  Elec       q    Type
REMARK                         _______ _______ _______ _____ _____    ______ ____
ROOT
ATOM      1  C   UNL     1       1.932   8.423  18.508  0.00  0.00    +0.000 C 
ATOM      2  O   UNL     1       2.356   8.934  17.466  0.00  0.00    +0.000 OA
ENDROOT
BRANCH   1   3
ATOM      3  C   UNL     1       0.785   9.503  19.401  0.00  0.00    +0.000 A 
ATOM      4  C   UNL     1       1.162   8.577  20.329  0.00  0.00    +0.000 A 
ATOM      5  C   UNL     1       0.176   8.206  21.146  0.00  0.00    +0.000 A 
ATOM      6  C   UNL     1       0.320   9.114  22.106  0.00  0.00    +0.000 A 
ATOM      7  C   UNL     1      -0.134  10.320  21.728  0.00  0.00    +0.000 A 
ATOM      8  C   UNL     1      -0.522  11.021  22.895  0.00  0.00    +0.000 A 
ATOM      9  C   UNL     1      -1.571  11.900  22.954  0.00  0.00    +0.000 A 
ATOM     10  C   UNL     1      -2.234  12.200  21.782  0.00  0.00    +0.000 A 
ATOM     11  C   UNL     1      -1.565  11.638  20.507  0.00  0.00    +0.000 A 
ATOM     12  C   UNL     1      -0.317  10.509  20.330  0.00  0.00    +0.000 A 
BRANCH  10  13
ATOM     13  C   UNL     1      -3.560  12.945  22.206  0.00  0.00    +0.000 C 
ATOM     14  C   UNL     1      -3.768  13.857  23.399  0.00  0.00    +0.000 C 
ENDBRANCH  10  13
ENDBRANCH   1   3
BRANCH   1  17
ATOM     15  N   UNL     1       4.448   5.231  18.886  0.00  0.00    +0.000 N 
ATOM     16  C   UNL     1       4.000   6.499  18.458  0.00  0.00    +0.000 A 
ATOM     17  C   UNL     1       2.665   6.841  18.882  0.00  0.00    +0.000 A 
ATOM     18  C   UNL     1       2.309   5.492  19.574  0.00  0.00    +0.000 A 
ATOM     19  C   UNL     1       1.173   4.894  20.204  0.00  0.00    +0.000 A 
ATOM     20  C   UNL     1       1.175   3.589  20.782  0.00  0.00    +0.000 A 
ATOM     21  C   UNL     1       2.297   2.786  20.757  0.00  0.00    +0.000 A 
ATOM     22  C   UNL     1       3.427   3.281  20.134  0.00  0.00    +0.000 A 
ATOM     23  C   UNL     1       3.425   4.596  19.557  0.00  0.00    +0.000 A 
BRANCH  15  24
ATOM     24  C   UNL     1       5.765   4.575  18.650  0.00  0.00    +0.000 C 
BRANCH  24  26
ATOM     25  C   UNL     1       5.341   3.915  16.183  0.00  0.00    +0.000 C 
ATOM     26  C   UNL     1       6.255   4.614  17.198  0.00  0.00    +0.000 C 
ENDBRANCH  24  26
ENDBRANCH  15  24
ENDBRANCH   1  17
TORSDOF 5
ENDMDL
MODEL 8
REMARK VINA RESULT:      -8.4      3.312      8.790
REMARK  Name = 
REMARK  7 active torsions:
REMARK  status: ('A' for Active; 'I' for Inactive)
REMARK    1  A    between atoms: C_1  and  C_2
REMARK    2  A    between atoms: C_2  and  C_3
REMARK    3  A    between atoms: C_3  and  N_4
REMARK    4  A    between atoms: C_6  and  C_7
REMARK    5  A    between atoms: C_7  and  C_9
REMARK    6  A    between atoms: C_16  and  C_17
REMARK    7  A    between atoms: C_17  and  C_18
REMARK                            x       y       z     vdW  Elec       q    Type
REMARK                         _______ _______ _______ _____ _____    ______ ____
ROOT
ATOM      1  C   UNL     1       2.831   5.618  19.288  0.00  0.00    +0.000 C 
ATOM      2  O   UNL     1       2.773   4.726  20.142  0.00  0.00    +0.000 OA
ENDROOT
BRANCH   1   3
ATOM      3  C   UNL     1       3.724   5.105  17.799  0.00  0.00    +0.000 A 
ATOM      4  C   UNL     1       4.289   6.302  18.131  0.00  0.00    +0.000 A 
ATOM      5  C   UNL     1       4.600   7.058  17.078  0.00  0.00    +0.000 A 
ATOM      6  C   UNL     1       5.835   6.628  16.844  0.00  0.00    +0.000 A 
ATOM      7  C   UNL     1       5.843   5.415  16.269  0.00  0.00    +0.000 A 
ATOM      8  C   UNL     1       7.038   5.300  15.518  0.00  0.00    +0.000 A 
ATOM      9  C   UNL     1       7.145   4.613  14.338  0.00  0.00    +0.000 A 
ATOM     10  C   UNL     1       6.047   3.903  13.898  0.00  0.00    +0.000 A 
ATOM     11  C   UNL     1       4.887   3.824  14.915  0.00  0.00    +0.000 A 
ATOM     12  C   UNL     1       4.633   4.673  16.358  0.00  0.00    +0.000 A 
BRANCH  10  13
ATOM     13  C   UNL     1       6.349   3.512  12.398  0.00  0.00    +0.000 C 
ATOM     14  C   UNL     1       5.820   2.315  11.631  0.00  0.00    +0.000 C 
ENDBRANCH  10  13
ENDBRANCH   1   3
BRANCH   1  17
ATOM     15  N   UNL     1       1.259   8.697  21.458  0.00  0.00    +0.000 N 
ATOM     16  C   UNL     1       1.740   7.397  21.192  0.00  0.00    +0.000 A 
ATOM     17  C   UNL     1       2.132   7.168  19.823  0.00  0.00    +0.000 A 
ATOM     18  C   UNL     1       1.702   8.548  19.244  0.00  0.00    +0.000 A 
ATOM     19  C   UNL     1       1.640   9.187  17.966  0.00  0.00    +0.000 A 
ATOM     20  C   UNL     1       1.194  10.528  17.763  0.00  0.00    +0.000 A 
ATOM     21  C   UNL     1       0.766  11.316  18.811  0.00  0.00    +0.000 A 
ATOM     22  C   UNL     1       0.762  10.758  20.076  0.00  0.00    +0.000 A 
ATOM     23  C   UNL     1       1.215   9.409  20.279  0.00  0.00    +0.000 A 
BRANCH  15  24
ATOM     24  C   UNL     1       0.793   9.277  22.750  0.00  0.00    +0.000 C 
BRANCH  24  26
ATOM     25  C   UNL     1      -1.236  10.836  23.146  0.00  0.00    +0.000 C 
ATOM     26  C   UNL     1      -0.729   9.411  22.886  0.00  0.00    +0.000 C 
ENDBRANCH  24  26
ENDBRANCH  15  24
ENDBRANCH   1  17
TORSDOF 5
ENDMDL
MODEL 9
REMARK VINA RESULT:      -8.4      2.168      8.973
REMARK  Name = 
REMARK  7 active torsions:
REMARK  status: ('A' for Active; 'I' for Inactive)
REMARK    1  A    between atoms: C_1  and  C_2
REMARK    2  A    between atoms: C_2  and  C_3
REMARK    3  A    between atoms: C_3  and  N_4
REMARK    4  A    between atoms: C_6  and  C_7
REMARK    5  A    between atoms: C_7  and  C_9
REMARK    6  A    between atoms: C_16  and  C_17
REMARK    7  A    between atoms: C_17  and  C_18
REMARK                            x       y       z     vdW  Elec       q    Type
REMARK                         _______ _______ _______ _____ _____    ______ ____
ROOT
ATOM      1  C   UNL     1       1.017  10.234  18.950  0.00  0.00    +0.000 C 
ATOM      2  O   UNL     1       1.606  11.046  19.672  0.00  0.00    +0.000 OA
ENDROOT
BRANCH   1   3
ATOM      3  C   UNL     1       2.100   8.909  18.357  0.00  0.00    +0.000 A 
ATOM      4  C   UNL     1       1.428   8.347  19.404  0.00  0.00    +0.000 A 
ATOM      5  C   UNL     1       2.177   7.527  20.141  0.00  0.00    +0.000 A 
ATOM      6  C   UNL     1       1.970   6.384  19.495  0.00  0.00    +0.000 A 
ATOM      7  C   UNL     1       2.645   6.335  18.336  0.00  0.00    +0.000 A 
ATOM      8  C   UNL     1       2.887   4.973  18.034  0.00  0.00    +0.000 A 
ATOM      9  C   UNL     1       4.012   4.509  17.404  0.00  0.00    +0.000 A 
ATOM     10  C   UNL     1       4.925   5.434  16.943  0.00  0.00    +0.000 A 
ATOM     11  C   UNL     1       4.451   6.902  17.034  0.00  0.00    +0.000 A 
ATOM     12  C   UNL     1       3.122   7.578  17.836  0.00  0.00    +0.000 A 
BRANCH  10  13
ATOM     13  C   UNL     1       6.230   4.621  16.583  0.00  0.00    +0.000 C 
ATOM     14  C   UNL     1       7.530   4.567  17.362  0.00  0.00    +0.000 C 
ENDBRANCH  10  13
ENDBRANCH   1   3
BRANCH   1  17
ATOM     15  N   UNL     1      -2.686  10.685  17.292  0.00  0.00    +0.000 N 
ATOM     16  C   UNL     1      -1.328  10.309  17.376  0.00  0.00    +0.000 A 
ATOM     17  C   UNL     1      -0.677  10.674  18.611  0.00  0.00    +0.000 A 
ATOM     18  C   UNL     1      -1.862  11.453  19.254  0.00  0.00    +0.000 A 
ATOM     19  C   UNL     1      -2.104  12.226  20.433  0.00  0.00    +0.000 A 
ATOM     20  C   UNL     1      -3.361  12.819  20.756  0.00  0.00    +0.000 A 
ATOM     21  C   UNL     1      -4.454  12.700  19.923  0.00  0.00    +0.000 A 
ATOM     22  C   UNL     1      -4.291  11.996  18.744  0.00  0.00    +0.000 A 
ATOM     23  C   UNL     1      -3.025  11.396  18.423  0.00  0.00    +0.000 A 
BRANCH  15  24
ATOM     24  C   UNL     1      -3.655  10.452  16.184  0.00  0.00    +0.000 C 
BRANCH  24  26
ATOM     25  C   UNL     1      -3.994  10.007  13.655  0.00  0.00    +0.000 C 
ATOM     26  C   UNL     1      -3.019  10.079  14.838  0.00  0.00    +0.000 C 
ENDBRANCH  24  26
ENDBRANCH  15  24
ENDBRANCH   1  17
TORSDOF 5
ENDMDL
