MODEL 1
REMARK VINA RESULT:      -7.9      0.000      0.000
REMARK  Name = 
REMARK  10 active torsions:
REMARK  status: ('A' for Active; 'I' for Inactive)
REMARK    1  A    between atoms: C_1  and  C_2
REMARK    2  A    between atoms: C_2  and  O_4
REMARK    3  A    between atoms: O_4  and  C_5
REMARK    4  A    between atoms: C_10  and  C_11
REMARK    5  A    between atoms: C_11  and  O_13
REMARK    6  A    between atoms: O_13  and  C_14
REMARK    7  A    between atoms: C_14  and  C_15
REMARK    8  A    between atoms: C_17  and  C_18
REMARK    9  A    between atoms: C_19  and  C_20
REMARK   10  A    between atoms: C_22  and  C_23
REMARK                            x       y       z     vdW  Elec       q    Type
REMARK                         _______ _______ _______ _____ _____    ______ ____
ROOT
ATOM      1  C   UNL     1       3.078   3.150  17.553  0.00  0.00    +0.000 C 
ATOM      2  O   UNL     1       2.259   3.121  16.643  0.00  0.00    +0.000 OA
ENDROOT
BRANCH   1   8
ATOM      3  C   UNL     1       2.170   4.702  19.417  0.00  0.00    +0.000 A 
ATOM      4  C   UNL     1       1.825   4.850  20.773  0.00  0.00    +0.000 A 
ATOM      5  C   UNL     1       2.072   3.829  21.684  0.00  0.00    +0.000 A 
ATOM      6  C   UNL     1       2.636   2.638  21.247  0.00  0.00    +0.000 A 
ATOM      7  C   UNL     1       2.941   2.468  19.896  0.00  0.00    +0.000 A 
ATOM      8  C   UNL     1       2.700   3.491  18.955  0.00  0.00    +0.000 A 
BRANCH   3   9
ATOM      9  O   UNL     1       1.857   5.763  18.549  0.00  0.00    +0.000 OA
BRANCH   9  11
ATOM     10  C   UNL     1       3.545   7.236  17.795  0.00  0.00    +0.000 C 
ATOM     11  C   UNL     1       2.487   6.977  18.825  0.00  0.00    +0.000 C 
ATOM     12  O   UNL     1       2.216   7.757  19.730  0.00  0.00    +0.000 OA
ENDBRANCH   9  11
ENDBRANCH   3   9
ENDBRANCH   1   8
BRANCH   1  13
ATOM     13  O   UNL     1       4.395   2.875  17.404  0.00  0.00    +0.000 OA
BRANCH  13  14
ATOM     14  C   UNL     1       5.245   4.020  17.613  0.00  0.00    +0.000 C 
BRANCH  14  15
ATOM     15  C   UNL     1       5.893   4.451  16.316  0.00  0.00    +0.000 A 
ATOM     16  N   UNL     1       5.487   3.821  15.180  0.00  0.00    +0.000 NA
ATOM     17  C   UNL     1       6.114   4.139  14.024  0.00  0.00    +0.000 A 
ATOM     18  C   UNL     1       5.520   3.559  12.779  0.00  0.00    +0.000 C 
ATOM     19  C   UNL     1       7.206   5.001  14.013  0.00  0.00    +0.000 A 
ATOM     20  C   UNL     1       8.084   5.182  12.813  0.00  0.00    +0.000 C 
ATOM     21  N   UNL     1       7.585   5.671  15.132  0.00  0.00    +0.000 NA
ATOM     22  C   UNL     1       6.890   5.424  16.273  0.00  0.00    +0.000 A 
ATOM     23  C   UNL     1       7.180   6.330  17.430  0.00  0.00    +0.000 C 
ENDBRANCH  14  15
ENDBRANCH  13  14
ENDBRANCH   1  13
TORSDOF 6
ENDMDL
MODEL 2
REMARK VINA RESULT:      -7.9      1.442      2.656
REMARK  Name = 
REMARK  10 active torsions:
REMARK  status: ('A' for Active; 'I' for Inactive)
REMARK    1  A    between atoms: C_1  and  C_2
REMARK    2  A    between atoms: C_2  and  O_4
REMARK    3  A    between atoms: O_4  and  C_5
REMARK    4  A    between atoms: C_10  and  C_11
REMARK    5  A    between atoms: C_11  and  O_13
REMARK    6  A    between atoms: O_13  and  C_14
REMARK    7  A    between atoms: C_14  and  C_15
REMARK    8  A    between atoms: C_17  and  C_18
REMARK    9  A    between atoms: C_19  and  C_20
REMARK   10  A    between atoms: C_22  and  C_23
REMARK                            x       y       z     vdW  Elec       q    Type
REMARK                         _______ _______ _______ _____ _____    ______ ____
ROOT
ATOM      1  C   UNL     1       3.084   3.643  17.516  0.00  0.00    +0.000 C 
ATOM      2  O   UNL     1       2.259   3.220  16.716  0.00  0.00    +0.000 OA
ENDROOT
BRANCH   1   8
ATOM      3  C   UNL     1       2.604   4.674  19.842  0.00  0.00    +0.000 A 
ATOM      4  C   UNL     1       2.368   5.838  20.598  0.00  0.00    +0.000 A 
ATOM      5  C   UNL     1       2.238   7.075  19.975  0.00  0.00    +0.000 A 
ATOM      6  C   UNL     1       2.373   7.169  18.596  0.00  0.00    +0.000 A 
ATOM      7  C   UNL     1       2.650   6.025  17.845  0.00  0.00    +0.000 A 
ATOM      8  C   UNL     1       2.784   4.761  18.456  0.00  0.00    +0.000 A 
BRANCH   3   9
ATOM      9  O   UNL     1       2.761   3.467  20.545  0.00  0.00    +0.000 OA
BRANCH   9  11
ATOM     10  C   UNL     1       0.594   2.709  19.980  0.00  0.00    +0.000 C 
ATOM     11  C   UNL     1       1.592   2.921  21.077  0.00  0.00    +0.000 C 
ATOM     12  O   UNL     1       1.393   2.608  22.246  0.00  0.00    +0.000 OA
ENDBRANCH   9  11
ENDBRANCH   3   9
ENDBRANCH   1   8
BRANCH   1  13
ATOM     13  O   UNL     1       4.341   3.155  17.646  0.00  0.00    +0.000 OA
BRANCH  13  14
ATOM     14  C   UNL     1       5.336   4.180  17.823  0.00  0.00    +0.000 C 
BRANCH  14  15
ATOM     15  C   UNL     1       5.954   4.564  16.496  0.00  0.00    +0.000 A 
ATOM     16  N   UNL     1       5.520   3.893  15.393  0.00  0.00    +0.000 NA
ATOM     17  C   UNL     1       6.119   4.168  14.212  0.00  0.00    +0.000 A 
ATOM     18  C   UNL     1       5.496   3.544  13.004  0.00  0.00    +0.000 C 
ATOM     19  C   UNL     1       7.211   5.027  14.143  0.00  0.00    +0.000 A 
ATOM     20  C   UNL     1       8.061   5.164  12.917  0.00  0.00    +0.000 C 
ATOM     21  N   UNL     1       7.618   5.737  15.228  0.00  0.00    +0.000 NA
ATOM     22  C   UNL     1       6.950   5.533  16.393  0.00  0.00    +0.000 A 
ATOM     23  C   UNL     1       7.268   6.479  17.510  0.00  0.00    +0.000 C 
ENDBRANCH  14  15
ENDBRANCH  13  14
ENDBRANCH   1  13
TORSDOF 6
ENDMDL
MODEL 3
REMARK VINA RESULT:      -7.9      1.748      3.761
REMARK  Name = 
REMARK  10 active torsions:
REMARK  status: ('A' for Active; 'I' for Inactive)
REMARK    1  A    between atoms: C_1  and  C_2
REMARK    2  A    between atoms: C_2  and  O_4
REMARK    3  A    between atoms: O_4  and  C_5
REMARK    4  A    between atoms: C_10  and  C_11
REMARK    5  A    between atoms: C_11  and  O_13
REMARK    6  A    between atoms: O_13  and  C_14
REMARK    7  A    between atoms: C_14  and  C_15
REMARK    8  A    between atoms: C_17  and  C_18
REMARK    9  A    between atoms: C_19  and  C_20
REMARK   10  A    between atoms: C_22  and  C_23
REMARK                            x       y       z     vdW  Elec       q    Type
REMARK                         _______ _______ _______ _____ _____    ______ ____
ROOT
ATOM      1  C   UNL     1       2.923   3.645  17.538  0.00  0.00    +0.000 C 
ATOM      2  O   UNL     1       2.203   3.310  16.606  0.00  0.00    +0.000 OA
ENDROOT
BRANCH   1   8
ATOM      3  C   UNL     1       1.799   4.604  19.665  0.00  0.00    +0.000 A 
ATOM      4  C   UNL     1       1.565   5.728  20.478  0.00  0.00    +0.000 A 
ATOM      5  C   UNL     1       2.006   6.989  20.090  0.00  0.00    +0.000 A 
ATOM      6  C   UNL     1       2.713   7.137  18.904  0.00  0.00    +0.000 A 
ATOM      7  C   UNL     1       2.986   6.018  18.114  0.00  0.00    +0.000 A 
ATOM      8  C   UNL     1       2.546   4.732  18.487  0.00  0.00    +0.000 A 
BRANCH   3   9
ATOM      9  O   UNL     1       1.355   3.358  20.139  0.00  0.00    +0.000 OA
BRANCH   9  11
ATOM     10  C   UNL     1       1.303   2.365  22.285  0.00  0.00    +0.000 C 
ATOM     11  C   UNL     1       2.154   2.762  21.116  0.00  0.00    +0.000 C 
ATOM     12  O   UNL     1       3.357   2.540  21.046  0.00  0.00    +0.000 OA
ENDBRANCH   9  11
ENDBRANCH   3   9
ENDBRANCH   1   8
BRANCH   1  13
ATOM     13  O   UNL     1       4.120   3.078  17.820  0.00  0.00    +0.000 OA
BRANCH  13  14
ATOM     14  C   UNL     1       5.077   3.203  16.750  0.00  0.00    +0.000 C 
BRANCH  14  15
ATOM     15  C   UNL     1       5.963   4.411  16.963  0.00  0.00    +0.000 A 
ATOM     16  N   UNL     1       6.522   4.563  18.195  0.00  0.00    +0.000 NA
ATOM     17  C   UNL     1       7.251   5.679  18.425  0.00  0.00    +0.000 A 
ATOM     18  C   UNL     1       7.989   5.720  19.725  0.00  0.00    +0.000 C 
ATOM     19  C   UNL     1       7.340   6.687  17.470  0.00  0.00    +0.000 A 
ATOM     20  C   UNL     1       7.914   8.038  17.768  0.00  0.00    +0.000 C 
ATOM     21  N   UNL     1       6.828   6.522  16.222  0.00  0.00    +0.000 NA
ATOM     22  C   UNL     1       6.181   5.357  15.962  0.00  0.00    +0.000 A 
ATOM     23  C   UNL     1       5.823   5.108  14.529  0.00  0.00    +0.000 C 
ENDBRANCH  14  15
ENDBRANCH  13  14
ENDBRANCH   1  13
TORSDOF 6
ENDMDL
MODEL 4
REMARK VINA RESULT:      -7.8      1.860      3.874
REMARK  Name = 
REMARK  10 active torsions:
REMARK  status: ('A' for Active; 'I' for Inactive)
REMARK    1  A    between atoms: C_1  and  C_2
REMARK    2  A    between atoms: C_2  and  O_4
REMARK    3  A    between atoms: O_4  and  C_5
REMARK    4  A    between atoms: C_10  and  C_11
REMARK    5  A    between atoms: C_11  and  O_13
REMARK    6  A    between atoms: O_13  and  C_14
REMARK    7  A    between atoms: C_14  and  C_15
REMARK    8  A    between atoms: C_17  and  C_18
REMARK    9  A    between atoms: C_19  and  C_20
REMARK   10  A    between atoms: C_22  and  C_23
REMARK                            x       y       z     vdW  Elec       q    Type
REMARK                         _______ _______ _______ _____ _____    ______ ____
ROOT
ATOM      1  C   UNL     1       2.727   3.961  18.006  0.00  0.00    +0.000 C 
ATOM      2  O   UNL     1       1.878   3.388  17.335  0.00  0.00    +0.000 OA
ENDROOT
BRANCH   1   8
ATOM      3  C   UNL     1       2.280   5.626  19.938  0.00  0.00    +0.000 A 
ATOM      4  C   UNL     1       2.128   6.968  20.336  0.00  0.00    +0.000 A 
ATOM      5  C   UNL     1       2.121   7.991  19.395  0.00  0.00    +0.000 A 
ATOM      6  C   UNL     1       2.298   7.692  18.051  0.00  0.00    +0.000 A 
ATOM      7  C   UNL     1       2.494   6.368  17.654  0.00  0.00    +0.000 A 
ATOM      8  C   UNL     1       2.502   5.314  18.591  0.00  0.00    +0.000 A 
BRANCH   3   9
ATOM      9  O   UNL     1       2.313   4.651  20.949  0.00  0.00    +0.000 OA
BRANCH   9  11
ATOM     10  C   UNL     1       1.717   2.499  21.729  0.00  0.00    +0.000 C 
ATOM     11  C   UNL     1       1.326   3.667  20.873  0.00  0.00    +0.000 C 
ATOM     12  O   UNL     1       0.271   3.730  20.252  0.00  0.00    +0.000 OA
ENDBRANCH   9  11
ENDBRANCH   3   9
ENDBRANCH   1   8
BRANCH   1  13
ATOM     13  O   UNL     1       3.945   3.446  18.297  0.00  0.00    +0.000 OA
BRANCH  13  14
ATOM     14  C   UNL     1       4.857   3.471  17.183  0.00  0.00    +0.000 C 
BRANCH  14  15
ATOM     15  C   UNL     1       5.834   4.619  17.315  0.00  0.00    +0.000 A 
ATOM     16  N   UNL     1       6.537   4.705  18.478  0.00  0.00    +0.000 NA
ATOM     17  C   UNL     1       7.355   5.770  18.644  0.00  0.00    +0.000 A 
ATOM     18  C   UNL     1       8.238   5.733  19.851  0.00  0.00    +0.000 C 
ATOM     19  C   UNL     1       7.396   6.796  17.705  0.00  0.00    +0.000 A 
ATOM     20  C   UNL     1       8.083   8.103  17.961  0.00  0.00    +0.000 C 
ATOM     21  N   UNL     1       6.737   6.695  16.522  0.00  0.00    +0.000 NA
ATOM     22  C   UNL     1       5.994   5.577  16.316  0.00  0.00    +0.000 A 
ATOM     23  C   UNL     1       5.460   5.387  14.929  0.00  0.00    +0.000 C 
ENDBRANCH  14  15
ENDBRANCH  13  14
ENDBRANCH   1  13
TORSDOF 6
ENDMDL
MODEL 5
REMARK VINA RESULT:      -7.7      1.905      3.804
REMARK  Name = 
REMARK  10 active torsions:
REMARK  status: ('A' for Active; 'I' for Inactive)
REMARK    1  A    between atoms: C_1  and  C_2
REMARK    2  A    between atoms: C_2  and  O_4
REMARK    3  A    between atoms: O_4  and  C_5
REMARK    4  A    between atoms: C_10  and  C_11
REMARK    5  A    between atoms: C_11  and  O_13
REMARK    6  A    between atoms: O_13  and  C_14
REMARK    7  A    between atoms: C_14  and  C_15
REMARK    8  A    between atoms: C_17  and  C_18
REMARK    9  A    between atoms: C_19  and  C_20
REMARK   10  A    between atoms: C_22  and  C_23
REMARK                            x       y       z     vdW  Elec       q    Type
REMARK                         _______ _______ _______ _____ _____    ______ ____
ROOT
ATOM      1  C   UNL     1       3.572   3.256  17.518  0.00  0.00    +0.000 C 
ATOM      2  O   UNL     1       3.336   2.098  17.836  0.00  0.00    +0.000 OA
ENDROOT
BRANCH   1   8
ATOM      3  C   UNL     1       2.802   4.397  19.712  0.00  0.00    +0.000 A 
ATOM      4  C   UNL     1       2.464   5.593  20.371  0.00  0.00    +0.000 A 
ATOM      5  C   UNL     1       2.396   6.794  19.673  0.00  0.00    +0.000 A 
ATOM      6  C   UNL     1       2.697   6.820  18.317  0.00  0.00    +0.000 A 
ATOM      7  C   UNL     1       3.075   5.644  17.667  0.00  0.00    +0.000 A 
ATOM      8  C   UNL     1       3.148   4.416  18.355  0.00  0.00    +0.000 A 
BRANCH   3   9
ATOM      9  O   UNL     1       2.885   3.229  20.491  0.00  0.00    +0.000 OA
BRANCH   9  11
ATOM     10  C   UNL     1       0.632   2.717  19.992  0.00  0.00    +0.000 C 
ATOM     11  C   UNL     1       1.686   2.791  21.055  0.00  0.00    +0.000 C 
ATOM     12  O   UNL     1       1.499   2.465  22.221  0.00  0.00    +0.000 OA
ENDBRANCH   9  11
ENDBRANCH   3   9
ENDBRANCH   1   8
BRANCH   1  13
ATOM     13  O   UNL     1       4.237   3.620  16.396  0.00  0.00    +0.000 OA
BRANCH  13  14
ATOM     14  C   UNL     1       5.637   3.283  16.428  0.00  0.00    +0.000 C 
BRANCH  14  15
ATOM     15  C   UNL     1       6.466   4.477  16.851  0.00  0.00    +0.000 A 
ATOM     16  N   UNL     1       6.781   4.576  18.172  0.00  0.00    +0.000 NA
ATOM     17  C   UNL     1       7.453   5.678  18.578  0.00  0.00    +0.000 A 
ATOM     18  C   UNL     1       7.932   5.664  19.995  0.00  0.00    +0.000 C 
ATOM     19  C   UNL     1       7.720   6.722  17.698  0.00  0.00    +0.000 A 
ATOM     20  C   UNL     1       8.227   8.057  18.152  0.00  0.00    +0.000 C 
ATOM     21  N   UNL     1       7.454   6.609  16.370  0.00  0.00    +0.000 NA
ATOM     22  C   UNL     1       6.868   5.459  15.948  0.00  0.00    +0.000 A 
ATOM     23  C   UNL     1       6.788   5.267  14.464  0.00  0.00    +0.000 C 
ENDBRANCH  14  15
ENDBRANCH  13  14
ENDBRANCH   1  13
TORSDOF 6
ENDMDL
MODEL 6
REMARK VINA RESULT:      -7.7      1.354      2.924
REMARK  Name = 
REMARK  10 active torsions:
REMARK  status: ('A' for Active; 'I' for Inactive)
REMARK    1  A    between atoms: C_1  and  C_2
REMARK    2  A    between atoms: C_2  and  O_4
REMARK    3  A    between atoms: O_4  and  C_5
REMARK    4  A    between atoms: C_10  and  C_11
REMARK    5  A    between atoms: C_11  and  O_13
REMARK    6  A    between atoms: O_13  and  C_14
REMARK    7  A    between atoms: C_14  and  C_15
REMARK    8  A    between atoms: C_17  and  C_18
REMARK    9  A    between atoms: C_19  and  C_20
REMARK   10  A    between atoms: C_22  and  C_23
REMARK                            x       y       z     vdW  Elec       q    Type
REMARK                         _______ _______ _______ _____ _____    ______ ____
ROOT
ATOM      1  C   UNL     1       3.509   5.040  18.186  0.00  0.00    +0.000 C 
ATOM      2  O   UNL     1       2.924   4.199  17.517  0.00  0.00    +0.000 OA
ENDROOT
BRANCH   1   8
ATOM      3  C   UNL     1       2.256   6.202  20.133  0.00  0.00    +0.000 A 
ATOM      4  C   UNL     1       1.648   7.374  20.621  0.00  0.00    +0.000 A 
ATOM      5  C   UNL     1       1.509   8.492  19.806  0.00  0.00    +0.000 A 
ATOM      6  C   UNL     1       2.003   8.466  18.509  0.00  0.00    +0.000 A 
ATOM      7  C   UNL     1       2.646   7.321  18.034  0.00  0.00    +0.000 A 
ATOM      8  C   UNL     1       2.796   6.175  18.841  0.00  0.00    +0.000 A 
BRANCH   3   9
ATOM      9  O   UNL     1       2.394   5.124  21.025  0.00  0.00    +0.000 OA
BRANCH   9  11
ATOM     10  C   UNL     1       2.019   2.855  21.575  0.00  0.00    +0.000 C 
ATOM     11  C   UNL     1       1.526   4.051  20.817  0.00  0.00    +0.000 C 
ATOM     12  O   UNL     1       0.491   4.059  20.161  0.00  0.00    +0.000 OA
ENDBRANCH   9  11
ENDBRANCH   3   9
ENDBRANCH   1   8
BRANCH   1  13
ATOM     13  O   UNL     1       4.843   5.041  18.416  0.00  0.00    +0.000 OA
BRANCH  13  14
ATOM     14  C   UNL     1       5.537   3.965  17.756  0.00  0.00    +0.000 C 
BRANCH  14  15
ATOM     15  C   UNL     1       6.079   4.416  16.418  0.00  0.00    +0.000 A 
ATOM     16  N   UNL     1       5.618   3.769  15.312  0.00  0.00    +0.000 NA
ATOM     17  C   UNL     1       6.152   4.106  14.115  0.00  0.00    +0.000 A 
ATOM     18  C   UNL     1       5.495   3.503  12.914  0.00  0.00    +0.000 C 
ATOM     19  C   UNL     1       7.210   5.006  14.029  0.00  0.00    +0.000 A 
ATOM     20  C   UNL     1       7.996   5.215  12.772  0.00  0.00    +0.000 C 
ATOM     21  N   UNL     1       7.642   5.691  15.120  0.00  0.00    +0.000 NA
ATOM     22  C   UNL     1       7.036   5.423  16.305  0.00  0.00    +0.000 A 
ATOM     23  C   UNL     1       7.373   6.341  17.440  0.00  0.00    +0.000 C 
ENDBRANCH  14  15
ENDBRANCH  13  14
ENDBRANCH   1  13
TORSDOF 6
ENDMDL
MODEL 7
REMARK VINA RESULT:      -7.7      1.259      2.680
REMARK  Name = 
REMARK  10 active torsions:
REMARK  status: ('A' for Active; 'I' for Inactive)
REMARK    1  A    between atoms: C_1  and  C_2
REMARK    2  A    between atoms: C_2  and  O_4
REMARK    3  A    between atoms: O_4  and  C_5
REMARK    4  A    between atoms: C_10  and  C_11
REMARK    5  A    between atoms: C_11  and  O_13
REMARK    6  A    between atoms: O_13  and  C_14
REMARK    7  A    between atoms: C_14  and  C_15
REMARK    8  A    between atoms: C_17  and  C_18
REMARK    9  A    between atoms: C_19  and  C_20
REMARK   10  A    between atoms: C_22  and  C_23
REMARK                            x       y       z     vdW  Elec       q    Type
REMARK                         _______ _______ _______ _____ _____    ______ ____
ROOT
ATOM      1  C   UNL     1       2.760   3.035  17.494  0.00  0.00    +0.000 C 
ATOM      2  O   UNL     1       2.201   2.048  17.035  0.00  0.00    +0.000 OA
ENDROOT
BRANCH   1   8
ATOM      3  C   UNL     1       2.156   4.774  19.317  0.00  0.00    +0.000 A 
ATOM      4  C   UNL     1       1.953   5.036  20.684  0.00  0.00    +0.000 A 
ATOM      5  C   UNL     1       2.206   4.058  21.640  0.00  0.00    +0.000 A 
ATOM      6  C   UNL     1       2.632   2.798  21.240  0.00  0.00    +0.000 A 
ATOM      7  C   UNL     1       2.793   2.518  19.882  0.00  0.00    +0.000 A 
ATOM      8  C   UNL     1       2.545   3.495  18.897  0.00  0.00    +0.000 A 
BRANCH   3   9
ATOM      9  O   UNL     1       1.846   5.799  18.407  0.00  0.00    +0.000 OA
BRANCH   9  11
ATOM     10  C   UNL     1       3.682   7.153  17.786  0.00  0.00    +0.000 C 
ATOM     11  C   UNL     1       2.462   7.028  18.647  0.00  0.00    +0.000 C 
ATOM     12  O   UNL     1       2.071   7.912  19.402  0.00  0.00    +0.000 OA
ENDBRANCH   9  11
ENDBRANCH   3   9
ENDBRANCH   1   8
BRANCH   1  13
ATOM     13  O   UNL     1       3.629   3.811  16.803  0.00  0.00    +0.000 OA
BRANCH  13  14
ATOM     14  C   UNL     1       4.990   3.343  16.870  0.00  0.00    +0.000 C 
BRANCH  14  15
ATOM     15  C   UNL     1       5.945   4.498  17.079  0.00  0.00    +0.000 A 
ATOM     16  N   UNL     1       6.466   4.655  18.327  0.00  0.00    +0.000 NA
ATOM     17  C   UNL     1       7.258   5.729  18.550  0.00  0.00    +0.000 A 
ATOM     18  C   UNL     1       7.948   5.766  19.877  0.00  0.00    +0.000 C 
ATOM     19  C   UNL     1       7.447   6.697  17.569  0.00  0.00    +0.000 A 
ATOM     20  C   UNL     1       8.097   8.017  17.847  0.00  0.00    +0.000 C 
ATOM     21  N   UNL     1       6.973   6.523  16.308  0.00  0.00    +0.000 NA
ATOM     22  C   UNL     1       6.260   5.394  16.059  0.00  0.00    +0.000 A 
ATOM     23  C   UNL     1       5.940   5.120  14.622  0.00  0.00    +0.000 C 
ENDBRANCH  14  15
ENDBRANCH  13  14
ENDBRANCH   1  13
TORSDOF 6
ENDMDL
MODEL 8
REMARK VINA RESULT:      -7.4      1.512      2.698
REMARK  Name = 
REMARK  10 active torsions:
REMARK  status: ('A' for Active; 'I' for Inactive)
REMARK    1  A    between atoms: C_1  and  C_2
REMARK    2  A    between atoms: C_2  and  O_4
REMARK    3  A    between atoms: O_4  and  C_5
REMARK    4  A    between atoms: C_10  and  C_11
REMARK    5  A    between atoms: C_11  and  O_13
REMARK    6  A    between atoms: O_13  and  C_14
REMARK    7  A    between atoms: C_14  and  C_15
REMARK    8  A    between atoms: C_17  and  C_18
REMARK    9  A    between atoms: C_19  and  C_20
REMARK   10  A    between atoms: C_22  and  C_23
REMARK                            x       y       z     vdW  Elec       q    Type
REMARK                         _______ _______ _______ _____ _____    ______ ____
ROOT
ATOM      1  C   UNL     1       2.526   3.799  17.697  0.00  0.00    +0.000 C 
ATOM      2  O   UNL     1       2.043   2.675  17.715  0.00  0.00    +0.000 OA
ENDROOT
BRANCH   1   8
ATOM      3  C   UNL     1       1.525   4.606  19.945  0.00  0.00    +0.000 A 
ATOM      4  C   UNL     1       1.382   5.657  20.870  0.00  0.00    +0.000 A 
ATOM      5  C   UNL     1       1.885   6.923  20.590  0.00  0.00    +0.000 A 
ATOM      6  C   UNL     1       2.563   7.147  19.399  0.00  0.00    +0.000 A 
ATOM      7  C   UNL     1       2.746   6.098  18.496  0.00  0.00    +0.000 A 
ATOM      8  C   UNL     1       2.243   4.807  18.759  0.00  0.00    +0.000 A 
BRANCH   3   9
ATOM      9  O   UNL     1       1.023   3.346  20.313  0.00  0.00    +0.000 OA
BRANCH   9  11
ATOM     10  C   UNL     1       3.071   2.449  21.080  0.00  0.00    +0.000 C 
ATOM     11  C   UNL     1       1.640   2.746  21.412  0.00  0.00    +0.000 C 
ATOM     12  O   UNL     1       1.136   2.523  22.507  0.00  0.00    +0.000 OA
ENDBRANCH   9  11
ENDBRANCH   3   9
ENDBRANCH   1   8
BRANCH   1  13
ATOM     13  O   UNL     1       3.365   4.255  16.736  0.00  0.00    +0.000 OA
BRANCH  13  14
ATOM     14  C   UNL     1       4.720   3.796  16.895  0.00  0.00    +0.000 C 
BRANCH  14  15
ATOM     15  C   UNL     1       5.600   4.321  15.782  0.00  0.00    +0.000 A 
ATOM     16  N   UNL     1       5.497   3.711  14.569  0.00  0.00    +0.000 NA
ATOM     17  C   UNL     1       6.333   4.117  13.586  0.00  0.00    +0.000 A 
ATOM     18  C   UNL     1       6.067   3.548  12.228  0.00  0.00    +0.000 C 
ATOM     19  C   UNL     1       7.334   5.050  13.835  0.00  0.00    +0.000 A 
ATOM     20  C   UNL     1       8.435   5.338  12.860  0.00  0.00    +0.000 C 
ATOM     21  N   UNL     1       7.412   5.699  15.026  0.00  0.00    +0.000 NA
ATOM     22  C   UNL     1       6.507   5.360  15.981  0.00  0.00    +0.000 A 
ATOM     23  C   UNL     1       6.472   6.236  17.195  0.00  0.00    +0.000 C 
ENDBRANCH  14  15
ENDBRANCH  13  14
ENDBRANCH   1  13
TORSDOF 6
ENDMDL
MODEL 9
REMARK VINA RESULT:      -7.3      4.453      7.709
REMARK  Name = 
REMARK  10 active torsions:
REMARK  status: ('A' for Active; 'I' for Inactive)
REMARK    1  A    between atoms: C_1  and  C_2
REMARK    2  A    between atoms: C_2  and  O_4
REMARK    3  A    between atoms: O_4  and  C_5
REMARK    4  A    between atoms: C_10  and  C_11
REMARK    5  A    between atoms: C_11  and  O_13
REMARK    6  A    between atoms: O_13  and  C_14
REMARK    7  A    between atoms: C_14  and  C_15
REMARK    8  A    between atoms: C_17  and  C_18
REMARK    9  A    between atoms: C_19  and  C_20
REMARK   10  A    between atoms: C_22  and  C_23
REMARK                            x       y       z     vdW  Elec       q    Type
REMARK                         _______ _______ _______ _____ _____    ______ ____
ROOT
ATOM      1  C   UNL     1       2.487   7.385  18.631  0.00  0.00    +0.000 C 
ATOM      2  O   UNL     1       2.361   7.391  19.849  0.00  0.00    +0.000 OA
ENDROOT
BRANCH   1   8
ATOM      3  C   UNL     1       3.420   5.037  18.060  0.00  0.00    +0.000 A 
ATOM      4  C   UNL     1       4.313   4.272  17.287  0.00  0.00    +0.000 A 
ATOM      5  C   UNL     1       5.226   4.889  16.438  0.00  0.00    +0.000 A 
ATOM      6  C   UNL     1       5.237   6.273  16.328  0.00  0.00    +0.000 A 
ATOM      7  C   UNL     1       4.325   7.036  17.059  0.00  0.00    +0.000 A 
ATOM      8  C   UNL     1       3.393   6.431  17.927  0.00  0.00    +0.000 A 
BRANCH   3   9
ATOM      9  O   UNL     1       2.503   4.343  18.867  0.00  0.00    +0.000 OA
BRANCH   9  11
ATOM     10  C   UNL     1       1.269   2.327  18.825  0.00  0.00    +0.000 C 
ATOM     11  C   UNL     1       1.490   3.665  18.187  0.00  0.00    +0.000 C 
ATOM     12  O   UNL     1       0.832   4.083  17.241  0.00  0.00    +0.000 OA
ENDBRANCH   9  11
ENDBRANCH   3   9
ENDBRANCH   1   8
BRANCH   1  13
ATOM     13  O   UNL     1       1.831   8.221  17.792  0.00  0.00    +0.000 OA
BRANCH  13  14
ATOM     14  C   UNL     1       1.797   9.584  18.255  0.00  0.00    +0.000 C 
BRANCH  14  15
ATOM     15  C   UNL     1       0.371  10.036  18.488  0.00  0.00    +0.000 A 
ATOM     16  N   UNL     1      -0.526   9.797  17.493  0.00  0.00    +0.000 NA
ATOM     17  C   UNL     1      -1.786  10.265  17.653  0.00  0.00    +0.000 A 
ATOM     18  C   UNL     1      -2.779   9.830  16.623  0.00  0.00    +0.000 C 
ATOM     19  C   UNL     1      -2.124  11.054  18.747  0.00  0.00    +0.000 A 
ATOM     20  C   UNL     1      -3.419  11.802  18.839  0.00  0.00    +0.000 C 
ATOM     21  N   UNL     1      -1.250  11.256  19.768  0.00  0.00    +0.000 NA
ATOM     22  C   UNL     1      -0.016  10.700  19.650  0.00  0.00    +0.000 A 
ATOM     23  C   UNL     1       0.847  10.748  20.874  0.00  0.00    +0.000 C 
ENDBRANCH  14  15
ENDBRANCH  13  14
ENDBRANCH   1  13
TORSDOF 6
ENDMDL
