MODEL 1
REMARK VINA RESULT:      -8.1      0.000      0.000
REMARK  Name = 
REMARK  5 active torsions:
REMARK  status: ('A' for Active; 'I' for Inactive)
REMARK    1  A    between atoms: C_2  and  C_3
REMARK    2  A    between atoms: C_4  and  C_5
REMARK    3  A    between atoms: N_15  and  S_16
REMARK    4  A    between atoms: S_16  and  C_19
REMARK    5  A    between atoms: C_20  and  C_21
REMARK                            x       y       z     vdW  Elec       q    Type
REMARK                         _______ _______ _______ _____ _____    ______ ____
ROOT
ATOM      1  O   UNL     1       6.930   4.625  18.783  0.00  0.00    +0.000 OA
ATOM      2  C   UNL     1       5.978   4.412  18.039  0.00  0.00    +0.000 C 
ATOM      3  N   UNL     1       4.790   3.843  18.454  0.00  0.00    +0.000 N 
ATOM      4  C   UNL     1       3.667   3.496  17.575  0.00  0.00    +0.000 C 
ATOM      5  C   UNL     1       3.074   2.125  17.934  0.00  0.00    +0.000 C 
ATOM      6  N   UNL     1       2.725   2.021  19.384  0.00  0.00    +0.000 NA
ATOM      7  C   UNL     1       3.930   2.313  20.228  0.00  0.00    +0.000 C 
ATOM      8  C   UNL     1       4.542   3.682  19.897  0.00  0.00    +0.000 C 
ENDROOT
BRANCH   6   9
ATOM      9  S   UNL     1       1.276   2.793  19.870  0.00  0.00    +0.000 S 
ATOM     10  O   UNL     1       0.190   2.105  19.200  0.00  0.00    +0.000 OA
ATOM     11  O   UNL     1       1.292   2.877  21.314  0.00  0.00    +0.000 OA
BRANCH   9  12
ATOM     12  C   UNL     1       1.394   4.404  19.247  0.00  0.00    +0.000 C 
ATOM     13  C   UNL     1       1.734   5.405  20.072  0.00  0.00    +0.000 C 
BRANCH  13  14
ATOM     14  C   UNL     1       1.774   6.817  19.671  0.00  0.00    +0.000 A 
ATOM     15  C   UNL     1       1.306   7.784  20.571  0.00  0.00    +0.000 A 
ATOM     16  C   UNL     1       1.306   9.138  20.227  0.00  0.00    +0.000 A 
ATOM     17  C   UNL     1       1.788   9.542  18.985  0.00  0.00    +0.000 A 
ATOM     18  C   UNL     1       2.277   8.594  18.088  0.00  0.00    +0.000 A 
ATOM     19  C   UNL     1       2.276   7.240  18.432  0.00  0.00    +0.000 A 
ENDBRANCH  13  14
ENDBRANCH   9  12
ENDBRANCH   6   9
BRANCH   2  20
ATOM     20  C   UNL     1       6.071   4.784  16.607  0.00  0.00    +0.000 C 
ATOM     21  C   UNL     1       6.598   3.919  15.729  0.00  0.00    +0.000 C 
BRANCH  21  22
ATOM     22  C   UNL     1       6.816   4.303  14.333  0.00  0.00    +0.000 A 
ATOM     23  C   UNL     1       6.130   3.617  13.321  0.00  0.00    +0.000 A 
ATOM     24  C   UNL     1       6.357   3.937  11.981  0.00  0.00    +0.000 A 
ATOM     25  C   UNL     1       7.265   4.935  11.658  0.00  0.00    +0.000 A 
ATOM     26  F   UNL     1       7.497   5.227  10.371  0.00  0.00    +0.000 F 
ATOM     27  C   UNL     1       7.944   5.632  12.651  0.00  0.00    +0.000 A 
ATOM     28  C   UNL     1       7.720   5.317  13.994  0.00  0.00    +0.000 A 
ENDBRANCH  21  22
ENDBRANCH   2  20
TORSDOF 5
ENDMDL
MODEL 2
REMARK VINA RESULT:      -8.1      0.219      1.309
REMARK  Name = 
REMARK  5 active torsions:
REMARK  status: ('A' for Active; 'I' for Inactive)
REMARK    1  A    between atoms: C_2  and  C_3
REMARK    2  A    between atoms: C_4  and  C_5
REMARK    3  A    between atoms: N_15  and  S_16
REMARK    4  A    between atoms: S_16  and  C_19
REMARK    5  A    between atoms: C_20  and  C_21
REMARK                            x       y       z     vdW  Elec       q    Type
REMARK                         _______ _______ _______ _____ _____    ______ ____
ROOT
ATOM      1  O   UNL     1       7.057   4.768  18.965  0.00  0.00    +0.000 OA
ATOM      2  C   UNL     1       6.165   4.515  18.162  0.00  0.00    +0.000 C 
ATOM      3  N   UNL     1       4.968   3.919  18.506  0.00  0.00    +0.000 N 
ATOM      4  C   UNL     1       3.918   3.525  17.559  0.00  0.00    +0.000 C 
ATOM      5  C   UNL     1       3.340   2.143  17.903  0.00  0.00    +0.000 C 
ATOM      6  N   UNL     1       2.896   2.054  19.328  0.00  0.00    +0.000 NA
ATOM      7  C   UNL     1       4.032   2.394  20.245  0.00  0.00    +0.000 C 
ATOM      8  C   UNL     1       4.626   3.775  19.931  0.00  0.00    +0.000 C 
ENDROOT
BRANCH   6   9
ATOM      9  S   UNL     1       1.396   2.791  19.700  0.00  0.00    +0.000 S 
ATOM     10  O   UNL     1       0.381   2.078  18.949  0.00  0.00    +0.000 OA
ATOM     11  O   UNL     1       1.299   2.875  21.141  0.00  0.00    +0.000 OA
BRANCH   9  12
ATOM     12  C   UNL     1       1.523   4.405  19.085  0.00  0.00    +0.000 C 
ATOM     13  C   UNL     1       1.782   5.413  19.931  0.00  0.00    +0.000 C 
BRANCH  13  14
ATOM     14  C   UNL     1       1.821   6.825  19.533  0.00  0.00    +0.000 A 
ATOM     15  C   UNL     1       2.289   7.149  18.253  0.00  0.00    +0.000 A 
ATOM     16  C   UNL     1       2.363   8.481  17.835  0.00  0.00    +0.000 A 
ATOM     17  C   UNL     1       1.954   9.501  18.689  0.00  0.00    +0.000 A 
ATOM     18  C   UNL     1       1.465   9.193  19.956  0.00  0.00    +0.000 A 
ATOM     19  C   UNL     1       1.393   7.863  20.374  0.00  0.00    +0.000 A 
ENDBRANCH  13  14
ENDBRANCH   9  12
ENDBRANCH   6   9
BRANCH   2  20
ATOM     20  C   UNL     1       6.346   4.866  16.733  0.00  0.00    +0.000 C 
ATOM     21  C   UNL     1       6.390   3.895  15.811  0.00  0.00    +0.000 C 
BRANCH  21  22
ATOM     22  C   UNL     1       6.689   4.199  14.411  0.00  0.00    +0.000 A 
ATOM     23  C   UNL     1       7.602   5.221  14.114  0.00  0.00    +0.000 A 
ATOM     24  C   UNL     1       7.867   5.559  12.786  0.00  0.00    +0.000 A 
ATOM     25  C   UNL     1       7.222   4.879  11.763  0.00  0.00    +0.000 A 
ATOM     26  F   UNL     1       7.463   5.217  10.489  0.00  0.00    +0.000 F 
ATOM     27  C   UNL     1       6.323   3.855  12.041  0.00  0.00    +0.000 A 
ATOM     28  C   UNL     1       6.054   3.512  13.369  0.00  0.00    +0.000 A 
ENDBRANCH  21  22
ENDBRANCH   2  20
TORSDOF 5
ENDMDL
MODEL 3
REMARK VINA RESULT:      -8.0      5.785      8.305
REMARK  Name = 
REMARK  5 active torsions:
REMARK  status: ('A' for Active; 'I' for Inactive)
REMARK    1  A    between atoms: C_2  and  C_3
REMARK    2  A    between atoms: C_4  and  C_5
REMARK    3  A    between atoms: N_15  and  S_16
REMARK    4  A    between atoms: S_16  and  C_19
REMARK    5  A    between atoms: C_20  and  C_21
REMARK                            x       y       z     vdW  Elec       q    Type
REMARK                         _______ _______ _______ _____ _____    ______ ____
ROOT
ATOM      1  O   UNL     1       2.705   9.883  17.454  0.00  0.00    +0.000 OA
ATOM      2  C   UNL     1       1.920   9.466  18.299  0.00  0.00    +0.000 C 
ATOM      3  N   UNL     1       1.266  10.276  19.206  0.00  0.00    +0.000 N 
ATOM      4  C   UNL     1       0.389   9.801  20.284  0.00  0.00    +0.000 C 
ATOM      5  C   UNL     1       0.648  10.559  21.595  0.00  0.00    +0.000 C 
ATOM      6  N   UNL     1       0.589  12.042  21.414  0.00  0.00    +0.000 NA
ATOM      7  C   UNL     1       1.559  12.472  20.354  0.00  0.00    +0.000 C 
ATOM      8  C   UNL     1       1.320  11.737  19.028  0.00  0.00    +0.000 C 
ENDROOT
BRANCH   6   9
ATOM      9  S   UNL     1      -0.976  12.728  21.308  0.00  0.00    +0.000 S 
ATOM     10  O   UNL     1      -1.831  11.962  22.196  0.00  0.00    +0.000 OA
ATOM     11  O   UNL     1      -0.838  14.156  21.496  0.00  0.00    +0.000 OA
BRANCH   9  12
ATOM     12  C   UNL     1      -1.476  12.458  19.673  0.00  0.00    +0.000 C 
ATOM     13  C   UNL     1      -2.338  11.465  19.403  0.00  0.00    +0.000 C 
BRANCH  13  14
ATOM     14  C   UNL     1      -2.756  11.091  18.047  0.00  0.00    +0.000 A 
ATOM     15  C   UNL     1      -1.984  10.160  17.339  0.00  0.00    +0.000 A 
ATOM     16  C   UNL     1      -2.331   9.788  16.038  0.00  0.00    +0.000 A 
ATOM     17  C   UNL     1      -3.463  10.331  15.436  0.00  0.00    +0.000 A 
ATOM     18  C   UNL     1      -4.253  11.240  16.136  0.00  0.00    +0.000 A 
ATOM     19  C   UNL     1      -3.905  11.614  17.436  0.00  0.00    +0.000 A 
ENDBRANCH  13  14
ENDBRANCH   9  12
ENDBRANCH   6   9
BRANCH   2  20
ATOM     20  C   UNL     1       1.626   8.015  18.372  0.00  0.00    +0.000 C 
ATOM     21  C   UNL     1       2.291   7.245  19.245  0.00  0.00    +0.000 C 
BRANCH  21  22
ATOM     22  C   UNL     1       2.112   5.793  19.256  0.00  0.00    +0.000 A 
ATOM     23  C   UNL     1       2.184   5.087  18.047  0.00  0.00    +0.000 A 
ATOM     24  C   UNL     1       1.971   3.706  18.028  0.00  0.00    +0.000 A 
ATOM     25  C   UNL     1       1.687   3.040  19.211  0.00  0.00    +0.000 A 
ATOM     26  F   UNL     1       1.463   1.719  19.189  0.00  0.00    +0.000 F 
ATOM     27  C   UNL     1       1.623   3.725  20.421  0.00  0.00    +0.000 A 
ATOM     28  C   UNL     1       1.836   5.106  20.446  0.00  0.00    +0.000 A 
ENDBRANCH  21  22
ENDBRANCH   2  20
TORSDOF 5
ENDMDL
MODEL 4
REMARK VINA RESULT:      -8.0      5.102      6.916
REMARK  Name = 
REMARK  5 active torsions:
REMARK  status: ('A' for Active; 'I' for Inactive)
REMARK    1  A    between atoms: C_2  and  C_3
REMARK    2  A    between atoms: C_4  and  C_5
REMARK    3  A    between atoms: N_15  and  S_16
REMARK    4  A    between atoms: S_16  and  C_19
REMARK    5  A    between atoms: C_20  and  C_21
REMARK                            x       y       z     vdW  Elec       q    Type
REMARK                         _______ _______ _______ _____ _____    ______ ____
ROOT
ATOM      1  O   UNL     1       1.997   5.659  20.802  0.00  0.00    +0.000 OA
ATOM      2  C   UNL     1       2.213   6.492  19.928  0.00  0.00    +0.000 C 
ATOM      3  N   UNL     1       1.732   7.785  19.963  0.00  0.00    +0.000 N 
ATOM      4  C   UNL     1       1.900   8.779  18.895  0.00  0.00    +0.000 C 
ATOM      5  C   UNL     1       0.603   9.565  18.649  0.00  0.00    +0.000 C 
ATOM      6  N   UNL     1       0.052  10.158  19.907  0.00  0.00    +0.000 NA
ATOM      7  C   UNL     1      -0.167   9.083  20.930  0.00  0.00    +0.000 C 
ATOM      8  C   UNL     1       1.115   8.284  21.203  0.00  0.00    +0.000 C 
ENDROOT
BRANCH   6   9
ATOM      9  S   UNL     1       0.824  11.576  20.475  0.00  0.00    +0.000 S 
ATOM     10  O   UNL     1       1.776  11.159  21.487  0.00  0.00    +0.000 OA
ATOM     11  O   UNL     1       1.281  12.315  19.318  0.00  0.00    +0.000 OA
BRANCH   9  12
ATOM     12  C   UNL     1      -0.431  12.500  21.228  0.00  0.00    +0.000 C 
ATOM     13  C   UNL     1      -0.786  12.221  22.492  0.00  0.00    +0.000 C 
BRANCH  13  14
ATOM     14  C   UNL     1      -1.895  12.878  23.194  0.00  0.00    +0.000 A 
ATOM     15  C   UNL     1      -1.734  14.208  23.607  0.00  0.00    +0.000 A 
ATOM     16  C   UNL     1      -2.754  14.869  24.295  0.00  0.00    +0.000 A 
ATOM     17  C   UNL     1      -3.952  14.213  24.566  0.00  0.00    +0.000 A 
ATOM     18  C   UNL     1      -4.134  12.898  24.142  0.00  0.00    +0.000 A 
ATOM     19  C   UNL     1      -3.114  12.237  23.455  0.00  0.00    +0.000 A 
ENDBRANCH  13  14
ENDBRANCH   9  12
ENDBRANCH   6   9
BRANCH   2  20
ATOM     20  C   UNL     1       3.046   6.125  18.757  0.00  0.00    +0.000 C 
ATOM     21  C   UNL     1       4.314   5.731  18.941  0.00  0.00    +0.000 C 
BRANCH  21  22
ATOM     22  C   UNL     1       5.197   5.481  17.801  0.00  0.00    +0.000 A 
ATOM     23  C   UNL     1       4.792   5.888  16.522  0.00  0.00    +0.000 A 
ATOM     24  C   UNL     1       5.598   5.619  15.413  0.00  0.00    +0.000 A 
ATOM     25  C   UNL     1       6.799   4.947  15.586  0.00  0.00    +0.000 A 
ATOM     26  F   UNL     1       7.563   4.672  14.520  0.00  0.00    +0.000 F 
ATOM     27  C   UNL     1       7.220   4.547  16.850  0.00  0.00    +0.000 A 
ATOM     28  C   UNL     1       6.418   4.814  17.963  0.00  0.00    +0.000 A 
ENDBRANCH  21  22
ENDBRANCH   2  20
TORSDOF 5
ENDMDL
MODEL 5
REMARK VINA RESULT:      -8.0      5.720      8.147
REMARK  Name = 
REMARK  5 active torsions:
REMARK  status: ('A' for Active; 'I' for Inactive)
REMARK    1  A    between atoms: C_2  and  C_3
REMARK    2  A    between atoms: C_4  and  C_5
REMARK    3  A    between atoms: N_15  and  S_16
REMARK    4  A    between atoms: S_16  and  C_19
REMARK    5  A    between atoms: C_20  and  C_21
REMARK                            x       y       z     vdW  Elec       q    Type
REMARK                         _______ _______ _______ _____ _____    ______ ____
ROOT
ATOM      1  O   UNL     1       2.499   9.765  17.272  0.00  0.00    +0.000 OA
ATOM      2  C   UNL     1       1.825   9.388  18.224  0.00  0.00    +0.000 C 
ATOM      3  N   UNL     1       1.227  10.242  19.130  0.00  0.00    +0.000 N 
ATOM      4  C   UNL     1       0.487   9.823  20.326  0.00  0.00    +0.000 C 
ATOM      5  C   UNL     1       0.841  10.695  21.541  0.00  0.00    +0.000 C 
ATOM      6  N   UNL     1       0.693  12.154  21.253  0.00  0.00    +0.000 NA
ATOM      7  C   UNL     1       1.530  12.535  20.068  0.00  0.00    +0.000 C 
ATOM      8  C   UNL     1       1.194  11.685  18.835  0.00  0.00    +0.000 C 
ENDROOT
BRANCH   6   9
ATOM      9  S   UNL     1      -0.905  12.768  21.259  0.00  0.00    +0.000 S 
ATOM     10  O   UNL     1      -1.668  11.942  22.176  0.00  0.00    +0.000 OA
ATOM     11  O   UNL     1      -0.822  14.196  21.476  0.00  0.00    +0.000 OA
BRANCH   9  12
ATOM     12  C   UNL     1      -1.491  12.512  19.649  0.00  0.00    +0.000 C 
ATOM     13  C   UNL     1      -2.274  11.453  19.395  0.00  0.00    +0.000 C 
BRANCH  13  14
ATOM     14  C   UNL     1      -2.749  11.092  18.053  0.00  0.00    +0.000 A 
ATOM     15  C   UNL     1      -3.983  11.597  17.620  0.00  0.00    +0.000 A 
ATOM     16  C   UNL     1      -4.486  11.265  16.359  0.00  0.00    +0.000 A 
ATOM     17  C   UNL     1      -3.754  10.437  15.513  0.00  0.00    +0.000 A 
ATOM     18  C   UNL     1      -2.516   9.946  15.921  0.00  0.00    +0.000 A 
ATOM     19  C   UNL     1      -2.014  10.276  17.182  0.00  0.00    +0.000 A 
ENDBRANCH  13  14
ENDBRANCH   9  12
ENDBRANCH   6   9
BRANCH   2  20
ATOM     20  C   UNL     1       1.608   7.937  18.439  0.00  0.00    +0.000 C 
ATOM     21  C   UNL     1       2.663   7.116  18.539  0.00  0.00    +0.000 C 
BRANCH  21  22
ATOM     22  C   UNL     1       2.482   5.666  18.627  0.00  0.00    +0.000 A 
ATOM     23  C   UNL     1       1.850   5.125  19.755  0.00  0.00    +0.000 A 
ATOM     24  C   UNL     1       1.707   3.741  19.882  0.00  0.00    +0.000 A 
ATOM     25  C   UNL     1       2.196   2.908  18.887  0.00  0.00    +0.000 A 
ATOM     26  F   UNL     1       2.076   1.580  19.018  0.00  0.00    +0.000 F 
ATOM     27  C   UNL     1       2.815   3.431  17.756  0.00  0.00    +0.000 A 
ATOM     28  C   UNL     1       2.960   4.814  17.624  0.00  0.00    +0.000 A 
ENDBRANCH  21  22
ENDBRANCH   2  20
TORSDOF 5
ENDMDL
MODEL 6
REMARK VINA RESULT:      -7.9      6.181      8.415
REMARK  Name = 
REMARK  5 active torsions:
REMARK  status: ('A' for Active; 'I' for Inactive)
REMARK    1  A    between atoms: C_2  and  C_3
REMARK    2  A    between atoms: C_4  and  C_5
REMARK    3  A    between atoms: N_15  and  S_16
REMARK    4  A    between atoms: S_16  and  C_19
REMARK    5  A    between atoms: C_20  and  C_21
REMARK                            x       y       z     vdW  Elec       q    Type
REMARK                         _______ _______ _______ _____ _____    ______ ____
ROOT
ATOM      1  O   UNL     1       2.219   9.105  17.431  0.00  0.00    +0.000 OA
ATOM      2  C   UNL     1       1.914   8.611  18.512  0.00  0.00    +0.000 C 
ATOM      3  N   UNL     1       1.323   9.318  19.540  0.00  0.00    +0.000 N 
ATOM      4  C   UNL     1       1.025   8.780  20.873  0.00  0.00    +0.000 C 
ATOM      5  C   UNL     1       1.386   9.784  21.979  0.00  0.00    +0.000 C 
ATOM      6  N   UNL     1       0.770  11.127  21.748  0.00  0.00    +0.000 NA
ATOM      7  C   UNL     1       1.172  11.654  20.403  0.00  0.00    +0.000 C 
ATOM      8  C   UNL     1       0.817  10.675  19.275  0.00  0.00    +0.000 C 
ENDROOT
BRANCH   6   9
ATOM      9  S   UNL     1      -0.891  11.273  22.135  0.00  0.00    +0.000 S 
ATOM     10  O   UNL     1      -1.611  11.332  20.876  0.00  0.00    +0.000 OA
ATOM     11  O   UNL     1      -1.206  10.240  23.096  0.00  0.00    +0.000 OA
BRANCH   9  12
ATOM     12  C   UNL     1      -1.033  12.801  22.937  0.00  0.00    +0.000 C 
ATOM     13  C   UNL     1      -2.201  13.141  23.503  0.00  0.00    +0.000 C 
BRANCH  13  14
ATOM     14  C   UNL     1      -2.458  14.444  24.128  0.00  0.00    +0.000 A 
ATOM     15  C   UNL     1      -1.381  15.145  24.686  0.00  0.00    +0.000 A 
ATOM     16  C   UNL     1      -1.580  16.380  25.309  0.00  0.00    +0.000 A 
ATOM     17  C   UNL     1      -2.855  16.935  25.365  0.00  0.00    +0.000 A 
ATOM     18  C   UNL     1      -3.932  16.260  24.794  0.00  0.00    +0.000 A 
ATOM     19  C   UNL     1      -3.734  15.025  24.174  0.00  0.00    +0.000 A 
ENDBRANCH  13  14
ENDBRANCH   9  12
ENDBRANCH   6   9
BRANCH   2  20
ATOM     20  C   UNL     1       2.171   7.172  18.758  0.00  0.00    +0.000 C 
ATOM     21  C   UNL     1       3.019   6.503  17.963  0.00  0.00    +0.000 C 
BRANCH  21  22
ATOM     22  C   UNL     1       3.199   5.057  18.104  0.00  0.00    +0.000 A 
ATOM     23  C   UNL     1       2.287   4.192  17.485  0.00  0.00    +0.000 A 
ATOM     24  C   UNL     1       2.414   2.810  17.643  0.00  0.00    +0.000 A 
ATOM     25  C   UNL     1       3.446   2.301  18.417  0.00  0.00    +0.000 A 
ATOM     26  F   UNL     1       3.555   0.976  18.584  0.00  0.00    +0.000 F 
ATOM     27  C   UNL     1       4.367   3.146  19.027  0.00  0.00    +0.000 A 
ATOM     28  C   UNL     1       4.245   4.529  18.872  0.00  0.00    +0.000 A 
ENDBRANCH  21  22
ENDBRANCH   2  20
TORSDOF 5
ENDMDL
MODEL 7
REMARK VINA RESULT:      -7.9      5.532      7.744
REMARK  Name = 
REMARK  5 active torsions:
REMARK  status: ('A' for Active; 'I' for Inactive)
REMARK    1  A    between atoms: C_2  and  C_3
REMARK    2  A    between atoms: C_4  and  C_5
REMARK    3  A    between atoms: N_15  and  S_16
REMARK    4  A    between atoms: S_16  and  C_19
REMARK    5  A    between atoms: C_20  and  C_21
REMARK                            x       y       z     vdW  Elec       q    Type
REMARK                         _______ _______ _______ _____ _____    ______ ____
ROOT
ATOM      1  O   UNL     1       2.711  10.071  17.411  0.00  0.00    +0.000 OA
ATOM      2  C   UNL     1       2.036   9.501  18.261  0.00  0.00    +0.000 C 
ATOM      3  N   UNL     1       1.341  10.157  19.258  0.00  0.00    +0.000 N 
ATOM      4  C   UNL     1       0.597   9.502  20.341  0.00  0.00    +0.000 C 
ATOM      5  C   UNL     1       0.838  10.197  21.690  0.00  0.00    +0.000 C 
ATOM      6  N   UNL     1       0.584  11.669  21.623  0.00  0.00    +0.000 NA
ATOM      7  C   UNL     1       1.428  12.290  20.551  0.00  0.00    +0.000 C 
ATOM      8  C   UNL     1       1.203  11.622  19.187  0.00  0.00    +0.000 C 
ENDROOT
BRANCH   6   9
ATOM      9  S   UNL     1      -1.057  12.155  21.649  0.00  0.00    +0.000 S 
ATOM     10  O   UNL     1      -1.633  11.622  22.869  0.00  0.00    +0.000 OA
ATOM     11  O   UNL     1      -1.093  13.579  21.398  0.00  0.00    +0.000 OA
BRANCH   9  12
ATOM     12  C   UNL     1      -1.782  11.362  20.290  0.00  0.00    +0.000 C 
ATOM     13  C   UNL     1      -2.006  12.058  19.165  0.00  0.00    +0.000 C 
BRANCH  13  14
ATOM     14  C   UNL     1      -2.695  11.512  17.990  0.00  0.00    +0.000 A 
ATOM     15  C   UNL     1      -4.046  11.832  17.795  0.00  0.00    +0.000 A 
ATOM     16  C   UNL     1      -4.749  11.320  16.702  0.00  0.00    +0.000 A 
ATOM     17  C   UNL     1      -4.106  10.496  15.783  0.00  0.00    +0.000 A 
ATOM     18  C   UNL     1      -2.757  10.188  15.951  0.00  0.00    +0.000 A 
ATOM     19  C   UNL     1      -2.055  10.698  17.045  0.00  0.00    +0.000 A 
ENDBRANCH  13  14
ENDBRANCH   9  12
ENDBRANCH   6   9
BRANCH   2  20
ATOM     20  C   UNL     1       1.929   8.022  18.241  0.00  0.00    +0.000 C 
ATOM     21  C   UNL     1       3.021   7.280  18.011  0.00  0.00    +0.000 C 
BRANCH  21  22
ATOM     22  C   UNL     1       2.926   5.828  17.863  0.00  0.00    +0.000 A 
ATOM     23  C   UNL     1       4.027   5.119  17.363  0.00  0.00    +0.000 A 
ATOM     24  C   UNL     1       3.943   3.738  17.170  0.00  0.00    +0.000 A 
ATOM     25  C   UNL     1       2.764   3.074  17.475  0.00  0.00    +0.000 A 
ATOM     26  F   UNL     1       2.677   1.752  17.272  0.00  0.00    +0.000 F 
ATOM     27  C   UNL     1       1.667   3.762  17.984  0.00  0.00    +0.000 A 
ATOM     28  C   UNL     1       1.746   5.143  18.179  0.00  0.00    +0.000 A 
ENDBRANCH  21  22
ENDBRANCH   2  20
TORSDOF 5
ENDMDL
MODEL 8
REMARK VINA RESULT:      -7.9      5.155      6.987
REMARK  Name = 
REMARK  5 active torsions:
REMARK  status: ('A' for Active; 'I' for Inactive)
REMARK    1  A    between atoms: C_2  and  C_3
REMARK    2  A    between atoms: C_4  and  C_5
REMARK    3  A    between atoms: N_15  and  S_16
REMARK    4  A    between atoms: S_16  and  C_19
REMARK    5  A    between atoms: C_20  and  C_21
REMARK                            x       y       z     vdW  Elec       q    Type
REMARK                         _______ _______ _______ _____ _____    ______ ____
ROOT
ATOM      1  O   UNL     1       2.012   5.749  20.835  0.00  0.00    +0.000 OA
ATOM      2  C   UNL     1       2.194   6.572  19.943  0.00  0.00    +0.000 C 
ATOM      3  N   UNL     1       1.695   7.859  19.971  0.00  0.00    +0.000 N 
ATOM      4  C   UNL     1       1.820   8.838  18.884  0.00  0.00    +0.000 C 
ATOM      5  C   UNL     1       0.506   9.602  18.661  0.00  0.00    +0.000 C 
ATOM      6  N   UNL     1      -0.020  10.206  19.924  0.00  0.00    +0.000 NA
ATOM      7  C   UNL     1      -0.197   9.145  20.969  0.00  0.00    +0.000 C 
ATOM      8  C   UNL     1       1.103   8.368  21.220  0.00  0.00    +0.000 C 
ENDROOT
BRANCH   6   9
ATOM      9  S   UNL     1       0.746  11.644  20.450  0.00  0.00    +0.000 S 
ATOM     10  O   UNL     1       1.689  11.262  21.484  0.00  0.00    +0.000 OA
ATOM     11  O   UNL     1       1.213  12.343  19.272  0.00  0.00    +0.000 OA
BRANCH   9  12
ATOM     12  C   UNL     1      -0.517  12.592  21.160  0.00  0.00    +0.000 C 
ATOM     13  C   UNL     1      -0.945  12.297  22.397  0.00  0.00    +0.000 C 
BRANCH  13  14
ATOM     14  C   UNL     1      -2.068  12.975  23.057  0.00  0.00    +0.000 A 
ATOM     15  C   UNL     1      -3.108  12.195  23.581  0.00  0.00    +0.000 A 
ATOM     16  C   UNL     1      -4.207  12.796  24.200  0.00  0.00    +0.000 A 
ATOM     17  C   UNL     1      -4.270  14.182  24.316  0.00  0.00    +0.000 A 
ATOM     18  C   UNL     1      -3.233  14.969  23.820  0.00  0.00    +0.000 A 
ATOM     19  C   UNL     1      -2.135  14.368  23.199  0.00  0.00    +0.000 A 
ENDBRANCH  13  14
ENDBRANCH   9  12
ENDBRANCH   6   9
BRANCH   2  20
ATOM     20  C   UNL     1       3.001   6.199  18.756  0.00  0.00    +0.000 C 
ATOM     21  C   UNL     1       4.230   5.691  18.922  0.00  0.00    +0.000 C 
BRANCH  21  22
ATOM     22  C   UNL     1       5.097   5.429  17.772  0.00  0.00    +0.000 A 
ATOM     23  C   UNL     1       6.316   4.765  17.972  0.00  0.00    +0.000 A 
ATOM     24  C   UNL     1       7.178   4.545  16.897  0.00  0.00    +0.000 A 
ATOM     25  C   UNL     1       6.822   4.987  15.631  0.00  0.00    +0.000 A 
ATOM     26  F   UNL     1       7.660   4.793  14.603  0.00  0.00    +0.000 F 
ATOM     27  C   UNL     1       5.611   5.636  15.414  0.00  0.00    +0.000 A 
ATOM     28  C   UNL     1       4.744   5.859  16.487  0.00  0.00    +0.000 A 
ENDBRANCH  21  22
ENDBRANCH   2  20
TORSDOF 5
ENDMDL
MODEL 9
REMARK VINA RESULT:      -7.9      5.549      7.741
REMARK  Name = 
REMARK  5 active torsions:
REMARK  status: ('A' for Active; 'I' for Inactive)
REMARK    1  A    between atoms: C_2  and  C_3
REMARK    2  A    between atoms: C_4  and  C_5
REMARK    3  A    between atoms: N_15  and  S_16
REMARK    4  A    between atoms: S_16  and  C_19
REMARK    5  A    between atoms: C_20  and  C_21
REMARK                            x       y       z     vdW  Elec       q    Type
REMARK                         _______ _______ _______ _____ _____    ______ ____
ROOT
ATOM      1  O   UNL     1       2.256   9.731  17.220  0.00  0.00    +0.000 OA
ATOM      2  C   UNL     1       1.833   9.131  18.202  0.00  0.00    +0.000 C 
ATOM      3  N   UNL     1       1.295   9.755  19.311  0.00  0.00    +0.000 N 
ATOM      4  C   UNL     1       0.860   9.073  20.536  0.00  0.00    +0.000 C 
ATOM      5  C   UNL     1       1.302   9.840  21.793  0.00  0.00    +0.000 C 
ATOM      6  N   UNL     1       0.889  11.276  21.754  0.00  0.00    +0.000 NA
ATOM      7  C   UNL     1       1.425  11.934  20.518  0.00  0.00    +0.000 C 
ATOM      8  C   UNL     1       0.994  11.195  19.244  0.00  0.00    +0.000 C 
ENDROOT
BRANCH   6   9
ATOM      9  S   UNL     1      -0.754  11.600  22.113  0.00  0.00    +0.000 S 
ATOM     10  O   UNL     1      -1.178  10.600  23.074  0.00  0.00    +0.000 OA
ATOM     11  O   UNL     1      -0.857  13.005  22.444  0.00  0.00    +0.000 OA
BRANCH   9  12
ATOM     12  C   UNL     1      -1.598  11.347  20.623  0.00  0.00    +0.000 C 
ATOM     13  C   UNL     1      -2.621  12.154  20.301  0.00  0.00    +0.000 C 
BRANCH  13  14
ATOM     14  C   UNL     1      -3.461  11.973  19.111  0.00  0.00    +0.000 A 
ATOM     15  C   UNL     1      -2.917  11.318  17.998  0.00  0.00    +0.000 A 
ATOM     16  C   UNL     1      -3.671  11.139  16.836  0.00  0.00    +0.000 A 
ATOM     17  C   UNL     1      -4.983  11.601  16.779  0.00  0.00    +0.000 A 
ATOM     18  C   UNL     1      -5.546  12.234  17.886  0.00  0.00    +0.000 A 
ATOM     19  C   UNL     1      -4.791  12.413  19.047  0.00  0.00    +0.000 A 
ENDBRANCH  13  14
ENDBRANCH   9  12
ENDBRANCH   6   9
BRANCH   2  20
ATOM     20  C   UNL     1       1.877   7.649  18.231  0.00  0.00    +0.000 C 
ATOM     21  C   UNL     1       3.058   7.018  18.156  0.00  0.00    +0.000 C 
BRANCH  21  22
ATOM     22  C   UNL     1       3.126   5.560  18.058  0.00  0.00    +0.000 A 
ATOM     23  C   UNL     1       1.945   4.833  17.848  0.00  0.00    +0.000 A 
ATOM     24  C   UNL     1       1.981   3.438  17.797  0.00  0.00    +0.000 A 
ATOM     25  C   UNL     1       3.190   2.777  17.956  0.00  0.00    +0.000 A 
ATOM     26  F   UNL     1       3.220   1.438  17.926  0.00  0.00    +0.000 F 
ATOM     27  C   UNL     1       4.371   3.484  18.153  0.00  0.00    +0.000 A 
ATOM     28  C   UNL     1       4.342   4.880  18.205  0.00  0.00    +0.000 A 
ENDBRANCH  21  22
ENDBRANCH   2  20
TORSDOF 5
ENDMDL
