MODEL 1
REMARK VINA RESULT:      -9.0      0.000      0.000
REMARK  Name = 
REMARK  6 active torsions:
REMARK  status: ('A' for Active; 'I' for Inactive)
REMARK    1  A    between atoms: C_1  and  C_2
REMARK    2  A    between atoms: N_9  and  N_10
REMARK    3  A    between atoms: C_11  and  C_13
REMARK    4  A    between atoms: C_16  and  S_17
REMARK    5  A    between atoms: S_17  and  N_20
REMARK    6  A    between atoms: C_25  and  C_26
REMARK                            x       y       z     vdW  Elec       q    Type
REMARK                         _______ _______ _______ _____ _____    ______ ____
ROOT
ATOM      1  N   UNL     1       7.680   7.915  16.942  0.00  0.00    +0.000 N 
ATOM      2  C   UNL     1       8.286   8.208  18.155  0.00  0.00    +0.000 C 
ATOM      3  O   UNL     1       8.573   7.339  18.977  0.00  0.00    +0.000 OA
ATOM      4  H   UNL     1       7.615   8.550  16.154  0.00  0.00    +0.000 HD
ENDROOT
BRANCH   1  13
ATOM      5  C   UNL     1       2.499   7.493  18.560  0.00  0.00    +0.000 C 
ATOM      6  C   UNL     1       2.795   6.112  18.054  0.00  0.00    +0.000 A 
ATOM      7  C   UNL     1       1.792   5.121  18.088  0.00  0.00    +0.000 A 
ATOM      8  C   UNL     1       2.033   3.834  17.617  0.00  0.00    +0.000 A 
ATOM      9  C   UNL     1       3.277   3.492  17.085  0.00  0.00    +0.000 A 
ATOM     10  C   UNL     1       4.278   4.478  17.042  0.00  0.00    +0.000 A 
ATOM     11  S   UNL     1       5.880   4.374  16.420  0.00  0.00    +0.000 S 
ATOM     12  C   UNL     1       6.186   6.007  16.882  0.00  0.00    +0.000 A 
ATOM     13  N   UNL     1       7.404   6.564  16.668  0.00  0.00    +0.000 N 
ATOM     14  N   UNL     1       5.170   6.619  17.452  0.00  0.00    +0.000 NA
ATOM     15  C   UNL     1       4.069   5.772  17.531  0.00  0.00    +0.000 A 
ATOM     16  H   UNL     1       8.014   6.155  15.956  0.00  0.00    +0.000 HD
ENDBRANCH   1  13
BRANCH   2  17
ATOM     17  C   UNL     1       8.586   9.643  18.445  0.00  0.00    +0.000 A 
ATOM     18  C   UNL     1       9.365  10.052  19.534  0.00  0.00    +0.000 A 
ATOM     19  C   UNL     1       9.692  11.416  19.699  0.00  0.00    +0.000 A 
ATOM     20  C   UNL     1       9.261  12.372  18.765  0.00  0.00    +0.000 A 
ATOM     21  C   UNL     1       8.433  11.971  17.714  0.00  0.00    +0.000 A 
ATOM     22  C   UNL     1       8.121  10.611  17.543  0.00  0.00    +0.000 A 
BRANCH  20  23
ATOM     23  S   UNL     1       9.580  14.122  19.040  0.00  0.00    +0.000 S 
ATOM     24  O   UNL     1      10.389  14.209  20.238  0.00  0.00    +0.000 OA
ATOM     25  O   UNL     1      10.068  14.647  17.784  0.00  0.00    +0.000 OA
BRANCH  23  26
ATOM     26  N   UNL     1       8.081  14.874  19.367  0.00  0.00    +0.000 NA
ATOM     27  C   UNL     1       7.778  15.282  20.750  0.00  0.00    +0.000 C 
ATOM     28  C   UNL     1       8.155  16.739  20.980  0.00  0.00    +0.000 C 
ATOM     29  C   UNL     1       7.711  17.698  19.872  0.00  0.00    +0.000 C 
ATOM     30  C   UNL     1       7.858  17.146  18.453  0.00  0.00    +0.000 C 
ATOM     31  C   UNL     1       7.404  15.695  18.327  0.00  0.00    +0.000 C 
ATOM     32  C   UNL     1       5.872  15.596  18.445  0.00  0.00    +0.000 C 
ENDBRANCH  23  26
ENDBRANCH  20  23
ENDBRANCH   2  17
TORSDOF 4
ENDMDL
MODEL 2
REMARK VINA RESULT:      -9.0      3.151     10.243
REMARK  Name = 
REMARK  6 active torsions:
REMARK  status: ('A' for Active; 'I' for Inactive)
REMARK    1  A    between atoms: C_1  and  C_2
REMARK    2  A    between atoms: N_9  and  N_10
REMARK    3  A    between atoms: C_11  and  C_13
REMARK    4  A    between atoms: C_16  and  S_17
REMARK    5  A    between atoms: S_17  and  N_20
REMARK    6  A    between atoms: C_25  and  C_26
REMARK                            x       y       z     vdW  Elec       q    Type
REMARK                         _______ _______ _______ _____ _____    ______ ____
ROOT
ATOM      1  N   UNL     1       8.940   8.944  19.087  0.00  0.00    +0.000 N 
ATOM      2  C   UNL     1       8.204   8.534  17.985  0.00  0.00    +0.000 C 
ATOM      3  O   UNL     1       8.222   9.141  16.915  0.00  0.00    +0.000 OA
ATOM      4  H   UNL     1       9.126   8.379  19.909  0.00  0.00    +0.000 HD
ENDROOT
BRANCH   1  13
ATOM      5  C   UNL     1       7.277  11.963  23.303  0.00  0.00    +0.000 C 
ATOM      6  C   UNL     1       8.331  12.828  22.679  0.00  0.00    +0.000 A 
ATOM      7  C   UNL     1       8.641  14.080  23.249  0.00  0.00    +0.000 A 
ATOM      8  C   UNL     1       9.621  14.902  22.699  0.00  0.00    +0.000 A 
ATOM      9  C   UNL     1      10.335  14.500  21.569  0.00  0.00    +0.000 A 
ATOM     10  C   UNL     1      10.035  13.249  21.001  0.00  0.00    +0.000 A 
ATOM     11  S   UNL     1      10.757  12.471  19.646  0.00  0.00    +0.000 S 
ATOM     12  C   UNL     1       9.681  11.135  19.816  0.00  0.00    +0.000 A 
ATOM     13  N   UNL     1       9.731  10.098  18.943  0.00  0.00    +0.000 N 
ATOM     14  N   UNL     1       8.837  11.231  20.821  0.00  0.00    +0.000 NA
ATOM     15  C   UNL     1       9.038  12.417  21.520  0.00  0.00    +0.000 A 
ATOM     16  H   UNL     1      10.590   9.944  18.409  0.00  0.00    +0.000 HD
ENDBRANCH   1  13
BRANCH   2  17
ATOM     17  C   UNL     1       7.369   7.304  18.135  0.00  0.00    +0.000 A 
ATOM     18  C   UNL     1       7.712   6.252  18.995  0.00  0.00    +0.000 A 
ATOM     19  C   UNL     1       6.833   5.161  19.163  0.00  0.00    +0.000 A 
ATOM     20  C   UNL     1       5.599   5.126  18.493  0.00  0.00    +0.000 A 
ATOM     21  C   UNL     1       5.286   6.146  17.591  0.00  0.00    +0.000 A 
ATOM     22  C   UNL     1       6.156   7.239  17.435  0.00  0.00    +0.000 A 
BRANCH  20  23
ATOM     23  S   UNL     1       4.534   3.681  18.620  0.00  0.00    +0.000 S 
ATOM     24  O   UNL     1       4.429   3.129  17.286  0.00  0.00    +0.000 OA
ATOM     25  O   UNL     1       5.061   2.883  19.706  0.00  0.00    +0.000 OA
BRANCH  23  26
ATOM     26  N   UNL     1       2.981   4.224  19.084  0.00  0.00    +0.000 NA
ATOM     27  C   UNL     1       1.799   3.636  18.429  0.00  0.00    +0.000 C 
ATOM     28  C   UNL     1       1.247   2.477  19.246  0.00  0.00    +0.000 C 
ATOM     29  C   UNL     1       1.132   2.749  20.747  0.00  0.00    +0.000 C 
ATOM     30  C   UNL     1       2.295   3.542  21.345  0.00  0.00    +0.000 C 
ATOM     31  C   UNL     1       2.733   4.711  20.468  0.00  0.00    +0.000 C 
ATOM     32  C   UNL     1       1.673   5.827  20.487  0.00  0.00    +0.000 C 
ENDBRANCH  23  26
ENDBRANCH  20  23
ENDBRANCH   2  17
TORSDOF 4
ENDMDL
MODEL 3
REMARK VINA RESULT:      -8.8      1.001      1.342
REMARK  Name = 
REMARK  6 active torsions:
REMARK  status: ('A' for Active; 'I' for Inactive)
REMARK    1  A    between atoms: C_1  and  C_2
REMARK    2  A    between atoms: N_9  and  N_10
REMARK    3  A    between atoms: C_11  and  C_13
REMARK    4  A    between atoms: C_16  and  S_17
REMARK    5  A    between atoms: S_17  and  N_20
REMARK    6  A    between atoms: C_25  and  C_26
REMARK                            x       y       z     vdW  Elec       q    Type
REMARK                         _______ _______ _______ _____ _____    ______ ____
ROOT
ATOM      1  N   UNL     1       7.681   7.882  16.911  0.00  0.00    +0.000 N 
ATOM      2  C   UNL     1       8.275   8.167  18.132  0.00  0.00    +0.000 C 
ATOM      3  O   UNL     1       8.538   7.294  18.959  0.00  0.00    +0.000 OA
ATOM      4  H   UNL     1       7.636   8.517  16.122  0.00  0.00    +0.000 HD
ENDROOT
BRANCH   1  13
ATOM      5  C   UNL     1       2.517   7.501  18.593  0.00  0.00    +0.000 C 
ATOM      6  C   UNL     1       2.793   6.120  18.077  0.00  0.00    +0.000 A 
ATOM      7  C   UNL     1       1.782   5.138  18.119  0.00  0.00    +0.000 A 
ATOM      8  C   UNL     1       2.004   3.851  17.638  0.00  0.00    +0.000 A 
ATOM      9  C   UNL     1       3.238   3.500  17.089  0.00  0.00    +0.000 A 
ATOM     10  C   UNL     1       4.248   4.477  17.038  0.00  0.00    +0.000 A 
ATOM     11  S   UNL     1       5.840   4.361  16.395  0.00  0.00    +0.000 S 
ATOM     12  C   UNL     1       6.168   5.988  16.861  0.00  0.00    +0.000 A 
ATOM     13  N   UNL     1       7.388   6.535  16.634  0.00  0.00    +0.000 N 
ATOM     14  N   UNL     1       5.165   6.607  17.446  0.00  0.00    +0.000 NA
ATOM     15  C   UNL     1       4.057   5.770  17.536  0.00  0.00    +0.000 A 
ATOM     16  H   UNL     1       7.986   6.124  15.912  0.00  0.00    +0.000 HD
ENDBRANCH   1  13
BRANCH   2  17
ATOM     17  C   UNL     1       8.592   9.597  18.425  0.00  0.00    +0.000 A 
ATOM     18  C   UNL     1       9.386   9.993  19.509  0.00  0.00    +0.000 A 
ATOM     19  C   UNL     1       9.728  11.353  19.677  0.00  0.00    +0.000 A 
ATOM     20  C   UNL     1       9.298  12.317  18.751  0.00  0.00    +0.000 A 
ATOM     21  C   UNL     1       8.457  11.929  17.705  0.00  0.00    +0.000 A 
ATOM     22  C   UNL     1       8.129  10.574  17.532  0.00  0.00    +0.000 A 
BRANCH  20  23
ATOM     23  S   UNL     1       9.638  14.062  19.031  0.00  0.00    +0.000 S 
ATOM     24  O   UNL     1      11.079  14.203  19.053  0.00  0.00    +0.000 OA
ATOM     25  O   UNL     1       8.844  14.790  18.065  0.00  0.00    +0.000 OA
BRANCH  23  26
ATOM     26  N   UNL     1       9.051  14.459  20.586  0.00  0.00    +0.000 NA
ATOM     27  C   UNL     1       9.998  14.492  21.715  0.00  0.00    +0.000 C 
ATOM     28  C   UNL     1      10.522  15.902  21.942  0.00  0.00    +0.000 C 
ATOM     29  C   UNL     1       9.451  16.995  21.917  0.00  0.00    +0.000 C 
ATOM     30  C   UNL     1       8.370  16.807  20.851  0.00  0.00    +0.000 C 
ATOM     31  C   UNL     1       7.882  15.366  20.744  0.00  0.00    +0.000 C 
ATOM     32  C   UNL     1       7.042  14.987  21.978  0.00  0.00    +0.000 C 
ENDBRANCH  23  26
ENDBRANCH  20  23
ENDBRANCH   2  17
TORSDOF 4
ENDMDL
MODEL 4
REMARK VINA RESULT:      -8.7      0.614      1.010
REMARK  Name = 
REMARK  6 active torsions:
REMARK  status: ('A' for Active; 'I' for Inactive)
REMARK    1  A    between atoms: C_1  and  C_2
REMARK    2  A    between atoms: N_9  and  N_10
REMARK    3  A    between atoms: C_11  and  C_13
REMARK    4  A    between atoms: C_16  and  S_17
REMARK    5  A    between atoms: S_17  and  N_20
REMARK    6  A    between atoms: C_25  and  C_26
REMARK                            x       y       z     vdW  Elec       q    Type
REMARK                         _______ _______ _______ _____ _____    ______ ____
ROOT
ATOM      1  N   UNL     1       7.771   8.106  16.996  0.00  0.00    +0.000 N 
ATOM      2  C   UNL     1       8.381   8.406  18.206  0.00  0.00    +0.000 C 
ATOM      3  O   UNL     1       8.665   7.542  19.034  0.00  0.00    +0.000 OA
ATOM      4  H   UNL     1       7.708   8.735  16.203  0.00  0.00    +0.000 HD
ENDROOT
BRANCH   1  13
ATOM      5  C   UNL     1       2.559   7.754  18.529  0.00  0.00    +0.000 C 
ATOM      6  C   UNL     1       2.850   6.365  18.045  0.00  0.00    +0.000 A 
ATOM      7  C   UNL     1       1.837   5.384  18.074  0.00  0.00    +0.000 A 
ATOM      8  C   UNL     1       2.073   4.088  17.623  0.00  0.00    +0.000 A 
ATOM      9  C   UNL     1       3.323   3.728  17.117  0.00  0.00    +0.000 A 
ATOM     10  C   UNL     1       4.334   4.704  17.079  0.00  0.00    +0.000 A 
ATOM     11  S   UNL     1       5.945   4.577  16.486  0.00  0.00    +0.000 S 
ATOM     12  C   UNL     1       6.259   6.212  16.934  0.00  0.00    +0.000 A 
ATOM     13  N   UNL     1       7.486   6.755  16.734  0.00  0.00    +0.000 N 
ATOM     14  N   UNL     1       5.239   6.841  17.478  0.00  0.00    +0.000 NA
ATOM     15  C   UNL     1       4.129   6.005  17.549  0.00  0.00    +0.000 A 
ATOM     16  H   UNL     1       8.105   6.331  16.037  0.00  0.00    +0.000 HD
ENDBRANCH   1  13
BRANCH   2  17
ATOM     17  C   UNL     1       8.690   9.841  18.483  0.00  0.00    +0.000 A 
ATOM     18  C   UNL     1       9.412  10.260  19.608  0.00  0.00    +0.000 A 
ATOM     19  C   UNL     1       9.753  11.621  19.764  0.00  0.00    +0.000 A 
ATOM     20  C   UNL     1       9.396  12.564  18.787  0.00  0.00    +0.000 A 
ATOM     21  C   UNL     1       8.624  12.155  17.696  0.00  0.00    +0.000 A 
ATOM     22  C   UNL     1       8.297  10.797  17.536  0.00  0.00    +0.000 A 
BRANCH  20  23
ATOM     23  S   UNL     1       9.730  14.314  19.044  0.00  0.00    +0.000 S 
ATOM     24  O   UNL     1      10.985  14.391  19.762  0.00  0.00    +0.000 OA
ATOM     25  O   UNL     1       9.582  14.949  17.753  0.00  0.00    +0.000 OA
BRANCH  23  26
ATOM     26  N   UNL     1       8.506  14.928  20.066  0.00  0.00    +0.000 NA
ATOM     27  C   UNL     1       8.602  16.324  20.529  0.00  0.00    +0.000 C 
ATOM     28  C   UNL     1       7.813  17.252  19.617  0.00  0.00    +0.000 C 
ATOM     29  C   UNL     1       6.415  16.750  19.247  0.00  0.00    +0.000 C 
ATOM     30  C   UNL     1       6.328  15.249  18.970  0.00  0.00    +0.000 C 
ATOM     31  C   UNL     1       7.114  14.410  19.973  0.00  0.00    +0.000 C 
ATOM     32  C   UNL     1       6.420  14.422  21.348  0.00  0.00    +0.000 C 
ENDBRANCH  23  26
ENDBRANCH  20  23
ENDBRANCH   2  17
TORSDOF 4
ENDMDL
MODEL 5
REMARK VINA RESULT:      -8.7      0.555      1.190
REMARK  Name = 
REMARK  6 active torsions:
REMARK  status: ('A' for Active; 'I' for Inactive)
REMARK    1  A    between atoms: C_1  and  C_2
REMARK    2  A    between atoms: N_9  and  N_10
REMARK    3  A    between atoms: C_11  and  C_13
REMARK    4  A    between atoms: C_16  and  S_17
REMARK    5  A    between atoms: S_17  and  N_20
REMARK    6  A    between atoms: C_25  and  C_26
REMARK                            x       y       z     vdW  Elec       q    Type
REMARK                         _______ _______ _______ _____ _____    ______ ____
ROOT
ATOM      1  N   UNL     1       7.734   7.965  16.929  0.00  0.00    +0.000 N 
ATOM      2  C   UNL     1       8.337   8.304  18.132  0.00  0.00    +0.000 C 
ATOM      3  O   UNL     1       8.604   7.470  18.996  0.00  0.00    +0.000 OA
ATOM      4  H   UNL     1       7.685   8.563  16.111  0.00  0.00    +0.000 HD
ENDROOT
BRANCH   1  13
ATOM      5  C   UNL     1       2.510   7.731  18.445  0.00  0.00    +0.000 C 
ATOM      6  C   UNL     1       2.787   6.320  18.016  0.00  0.00    +0.000 A 
ATOM      7  C   UNL     1       1.764   5.353  18.077  0.00  0.00    +0.000 A 
ATOM      8  C   UNL     1       1.987   4.038  17.676  0.00  0.00    +0.000 A 
ATOM      9  C   UNL     1       3.235   3.645  17.191  0.00  0.00    +0.000 A 
ATOM     10  C   UNL     1       4.258   4.607  17.122  0.00  0.00    +0.000 A 
ATOM     11  S   UNL     1       5.870   4.439  16.544  0.00  0.00    +0.000 S 
ATOM     12  C   UNL     1       6.201   6.086  16.931  0.00  0.00    +0.000 A 
ATOM     13  N   UNL     1       7.435   6.607  16.717  0.00  0.00    +0.000 N 
ATOM     14  N   UNL     1       5.186   6.747  17.445  0.00  0.00    +0.000 NA
ATOM     15  C   UNL     1       4.065   5.928  17.541  0.00  0.00    +0.000 A 
ATOM     16  H   UNL     1       8.052   6.150  16.041  0.00  0.00    +0.000 HD
ENDBRANCH   1  13
BRANCH   2  17
ATOM     17  C   UNL     1       8.662   9.745  18.356  0.00  0.00    +0.000 A 
ATOM     18  C   UNL     1       8.236  10.763  17.492  0.00  0.00    +0.000 A 
ATOM     19  C   UNL     1       8.494  12.114  17.810  0.00  0.00    +0.000 A 
ATOM     20  C   UNL     1       9.157  12.455  19.000  0.00  0.00    +0.000 A 
ATOM     21  C   UNL     1       9.633  11.437  19.829  0.00  0.00    +0.000 A 
ATOM     22  C   UNL     1       9.363  10.092  19.519  0.00  0.00    +0.000 A 
BRANCH  20  23
ATOM     23  S   UNL     1       9.586  14.168  19.345  0.00  0.00    +0.000 S 
ATOM     24  O   UNL     1      10.332  14.164  20.586  0.00  0.00    +0.000 OA
ATOM     25  O   UNL     1      10.180  14.689  18.133  0.00  0.00    +0.000 OA
BRANCH  23  26
ATOM     26  N   UNL     1       8.130  15.021  19.614  0.00  0.00    +0.000 NA
ATOM     27  C   UNL     1       7.223  14.558  20.679  0.00  0.00    +0.000 C 
ATOM     28  C   UNL     1       7.486  15.306  21.978  0.00  0.00    +0.000 C 
ATOM     29  C   UNL     1       7.641  16.821  21.824  0.00  0.00    +0.000 C 
ATOM     30  C   UNL     1       8.424  17.261  20.586  0.00  0.00    +0.000 C 
ATOM     31  C   UNL     1       8.044  16.480  19.332  0.00  0.00    +0.000 C 
ATOM     32  C   UNL     1       6.636  16.875  18.854  0.00  0.00    +0.000 C 
ENDBRANCH  23  26
ENDBRANCH  20  23
ENDBRANCH   2  17
TORSDOF 4
ENDMDL
MODEL 6
REMARK VINA RESULT:      -8.6      1.420      1.946
REMARK  Name = 
REMARK  6 active torsions:
REMARK  status: ('A' for Active; 'I' for Inactive)
REMARK    1  A    between atoms: C_1  and  C_2
REMARK    2  A    between atoms: N_9  and  N_10
REMARK    3  A    between atoms: C_11  and  C_13
REMARK    4  A    between atoms: C_16  and  S_17
REMARK    5  A    between atoms: S_17  and  N_20
REMARK    6  A    between atoms: C_25  and  C_26
REMARK                            x       y       z     vdW  Elec       q    Type
REMARK                         _______ _______ _______ _____ _____    ______ ____
ROOT
ATOM      1  N   UNL     1       7.698   7.880  16.907  0.00  0.00    +0.000 N 
ATOM      2  C   UNL     1       8.296   8.209  18.115  0.00  0.00    +0.000 C 
ATOM      3  O   UNL     1       8.555   7.368  18.975  0.00  0.00    +0.000 OA
ATOM      4  H   UNL     1       7.656   8.484  16.093  0.00  0.00    +0.000 HD
ENDROOT
BRANCH   1  13
ATOM      5  C   UNL     1       2.491   7.633  18.477  0.00  0.00    +0.000 C 
ATOM      6  C   UNL     1       2.763   6.227  18.031  0.00  0.00    +0.000 A 
ATOM      7  C   UNL     1       1.739   5.259  18.092  0.00  0.00    +0.000 A 
ATOM      8  C   UNL     1       1.957   3.949  17.676  0.00  0.00    +0.000 A 
ATOM      9  C   UNL     1       3.200   3.560  17.173  0.00  0.00    +0.000 A 
ATOM     10  C   UNL     1       4.223   4.522  17.103  0.00  0.00    +0.000 A 
ATOM     11  S   UNL     1       5.828   4.359  16.506  0.00  0.00    +0.000 S 
ATOM     12  C   UNL     1       6.164   6.002  16.906  0.00  0.00    +0.000 A 
ATOM     13  N   UNL     1       7.396   6.525  16.684  0.00  0.00    +0.000 N 
ATOM     14  N   UNL     1       5.155   6.658  17.437  0.00  0.00    +0.000 NA
ATOM     15  C   UNL     1       4.035   5.838  17.538  0.00  0.00    +0.000 A 
ATOM     16  H   UNL     1       8.006   6.075  15.996  0.00  0.00    +0.000 HD
ENDBRANCH   1  13
BRANCH   2  17
ATOM     17  C   UNL     1       8.623   9.648  18.351  0.00  0.00    +0.000 A 
ATOM     18  C   UNL     1       8.214  10.672  17.487  0.00  0.00    +0.000 A 
ATOM     19  C   UNL     1       8.473  12.021  17.815  0.00  0.00    +0.000 A 
ATOM     20  C   UNL     1       9.122  12.352  19.015  0.00  0.00    +0.000 A 
ATOM     21  C   UNL     1       9.583  11.328  19.845  0.00  0.00    +0.000 A 
ATOM     22  C   UNL     1       9.311   9.986  19.524  0.00  0.00    +0.000 A 
BRANCH  20  23
ATOM     23  S   UNL     1       9.554  14.062  19.374  0.00  0.00    +0.000 S 
ATOM     24  O   UNL     1      10.945  14.222  19.003  0.00  0.00    +0.000 OA
ATOM     25  O   UNL     1       8.531  14.877  18.756  0.00  0.00    +0.000 OA
BRANCH  23  26
ATOM     26  N   UNL     1       9.437  14.280  21.065  0.00  0.00    +0.000 NA
ATOM     27  C   UNL     1      10.406  15.164  21.736  0.00  0.00    +0.000 C 
ATOM     28  C   UNL     1       9.848  16.573  21.874  0.00  0.00    +0.000 C 
ATOM     29  C   UNL     1       8.402  16.643  22.371  0.00  0.00    +0.000 C 
ATOM     30  C   UNL     1       7.476  15.571  21.794  0.00  0.00    +0.000 C 
ATOM     31  C   UNL     1       8.119  14.189  21.750  0.00  0.00    +0.000 C 
ATOM     32  C   UNL     1       8.264  13.614  23.170  0.00  0.00    +0.000 C 
ENDBRANCH  23  26
ENDBRANCH  20  23
ENDBRANCH   2  17
TORSDOF 4
ENDMDL
MODEL 7
REMARK VINA RESULT:      -8.5      5.328     10.814
REMARK  Name = 
REMARK  6 active torsions:
REMARK  status: ('A' for Active; 'I' for Inactive)
REMARK    1  A    between atoms: C_1  and  C_2
REMARK    2  A    between atoms: N_9  and  N_10
REMARK    3  A    between atoms: C_11  and  C_13
REMARK    4  A    between atoms: C_16  and  S_17
REMARK    5  A    between atoms: S_17  and  N_20
REMARK    6  A    between atoms: C_25  and  C_26
REMARK                            x       y       z     vdW  Elec       q    Type
REMARK                         _______ _______ _______ _____ _____    ______ ____
ROOT
ATOM      1  N   UNL     1       0.959  10.673  19.932  0.00  0.00    +0.000 N 
ATOM      2  C   UNL     1       0.748   9.792  18.882  0.00  0.00    +0.000 C 
ATOM      3  O   UNL     1      -0.166   9.937  18.072  0.00  0.00    +0.000 OA
ATOM      4  H   UNL     1       1.804  10.722  20.493  0.00  0.00    +0.000 HD
ENDROOT
BRANCH   1  13
ATOM      5  C   UNL     1       3.994  14.734  17.948  0.00  0.00    +0.000 C 
ATOM      6  C   UNL     1       2.701  15.422  18.269  0.00  0.00    +0.000 A 
ATOM      7  C   UNL     1       2.555  16.801  18.012  0.00  0.00    +0.000 A 
ATOM      8  C   UNL     1       1.363  17.466  18.290  0.00  0.00    +0.000 A 
ATOM      9  C   UNL     1       0.272  16.778  18.822  0.00  0.00    +0.000 A 
ATOM     10  C   UNL     1       0.410  15.401  19.074  0.00  0.00    +0.000 A 
ATOM     11  S   UNL     1      -0.751  14.288  19.686  0.00  0.00    +0.000 S 
ATOM     12  C   UNL     1       0.409  13.015  19.624  0.00  0.00    +0.000 A 
ATOM     13  N   UNL     1       0.082  11.767  20.044  0.00  0.00    +0.000 N 
ATOM     14  N   UNL     1       1.591  13.367  19.165  0.00  0.00    +0.000 NA
ATOM     15  C   UNL     1       1.604  14.716  18.827  0.00  0.00    +0.000 A 
ATOM     16  H   UNL     1      -0.905  11.501  20.078  0.00  0.00    +0.000 HD
ENDBRANCH   1  13
BRANCH   2  17
ATOM     17  C   UNL     1       1.683   8.634  18.758  0.00  0.00    +0.000 A 
ATOM     18  C   UNL     1       2.404   8.359  17.588  0.00  0.00    +0.000 A 
ATOM     19  C   UNL     1       3.343   7.305  17.566  0.00  0.00    +0.000 A 
ATOM     20  C   UNL     1       3.583   6.537  18.717  0.00  0.00    +0.000 A 
ATOM     21  C   UNL     1       2.821   6.773  19.864  0.00  0.00    +0.000 A 
ATOM     22  C   UNL     1       1.896   7.831  19.888  0.00  0.00    +0.000 A 
BRANCH  20  23
ATOM     23  S   UNL     1       4.694   5.123  18.653  0.00  0.00    +0.000 S 
ATOM     24  O   UNL     1       5.269   5.111  17.324  0.00  0.00    +0.000 OA
ATOM     25  O   UNL     1       5.544   5.221  19.820  0.00  0.00    +0.000 OA
BRANCH  23  26
ATOM     26  N   UNL     1       3.744   3.712  18.822  0.00  0.00    +0.000 NA
ATOM     27  C   UNL     1       3.580   3.123  20.162  0.00  0.00    +0.000 C 
ATOM     28  C   UNL     1       2.308   3.630  20.825  0.00  0.00    +0.000 C 
ATOM     29  C   UNL     1       1.071   3.629  19.922  0.00  0.00    +0.000 C 
ATOM     30  C   UNL     1       1.334   4.058  18.478  0.00  0.00    +0.000 C 
ATOM     31  C   UNL     1       2.608   3.451  17.897  0.00  0.00    +0.000 C 
ATOM     32  C   UNL     1       2.423   1.943  17.649  0.00  0.00    +0.000 C 
ENDBRANCH  23  26
ENDBRANCH  20  23
ENDBRANCH   2  17
TORSDOF 4
ENDMDL
MODEL 8
REMARK VINA RESULT:      -8.4      5.716     11.370
REMARK  Name = 
REMARK  6 active torsions:
REMARK  status: ('A' for Active; 'I' for Inactive)
REMARK    1  A    between atoms: C_1  and  C_2
REMARK    2  A    between atoms: N_9  and  N_10
REMARK    3  A    between atoms: C_11  and  C_13
REMARK    4  A    between atoms: C_16  and  S_17
REMARK    5  A    between atoms: S_17  and  N_20
REMARK    6  A    between atoms: C_25  and  C_26
REMARK                            x       y       z     vdW  Elec       q    Type
REMARK                         _______ _______ _______ _____ _____    ______ ____
ROOT
ATOM      1  N   UNL     1       0.698  11.665  20.403  0.00  0.00    +0.000 N 
ATOM      2  C   UNL     1       0.256  10.702  19.508  0.00  0.00    +0.000 C 
ATOM      3  O   UNL     1      -0.791  10.821  18.872  0.00  0.00    +0.000 OA
ATOM      4  H   UNL     1       1.636  11.718  20.787  0.00  0.00    +0.000 HD
ENDROOT
BRANCH   1  13
ATOM      5  C   UNL     1       3.462  15.346  17.497  0.00  0.00    +0.000 C 
ATOM      6  C   UNL     1       2.280  16.134  17.979  0.00  0.00    +0.000 A 
ATOM      7  C   UNL     1       2.143  17.489  17.615  0.00  0.00    +0.000 A 
ATOM      8  C   UNL     1       1.052  18.244  18.038  0.00  0.00    +0.000 A 
ATOM      9  C   UNL     1       0.055  17.671  18.829  0.00  0.00    +0.000 A 
ATOM     10  C   UNL     1       0.183  16.318  19.189  0.00  0.00    +0.000 A 
ATOM     11  S   UNL     1      -0.885  15.334  20.112  0.00  0.00    +0.000 S 
ATOM     12  C   UNL     1       0.192  13.996  19.966  0.00  0.00    +0.000 A 
ATOM     13  N   UNL     1      -0.098  12.812  20.563  0.00  0.00    +0.000 N 
ATOM     14  N   UNL     1       1.279  14.236  19.265  0.00  0.00    +0.000 NA
ATOM     15  C   UNL     1       1.281  15.546  18.797  0.00  0.00    +0.000 A 
ATOM     16  H   UNL     1      -1.072  12.608  20.804  0.00  0.00    +0.000 HD
ENDBRANCH   1  13
BRANCH   2  17
ATOM     17  C   UNL     1       1.105   9.485  19.332  0.00  0.00    +0.000 A 
ATOM     18  C   UNL     1       1.314   8.549  20.354  0.00  0.00    +0.000 A 
ATOM     19  C   UNL     1       2.049   7.372  20.096  0.00  0.00    +0.000 A 
ATOM     20  C   UNL     1       2.558   7.114  18.813  0.00  0.00    +0.000 A 
ATOM     21  C   UNL     1       2.401   8.075  17.812  0.00  0.00    +0.000 A 
ATOM     22  C   UNL     1       1.657   9.240  18.066  0.00  0.00    +0.000 A 
BRANCH  20  23
ATOM     23  S   UNL     1       3.592   5.670  18.517  0.00  0.00    +0.000 S 
ATOM     24  O   UNL     1       3.997   5.732  17.128  0.00  0.00    +0.000 OA
ATOM     25  O   UNL     1       4.583   5.658  19.571  0.00  0.00    +0.000 OA
BRANCH  23  26
ATOM     26  N   UNL     1       2.612   4.285  18.714  0.00  0.00    +0.000 NA
ATOM     27  C   UNL     1       2.414   3.386  17.563  0.00  0.00    +0.000 C 
ATOM     28  C   UNL     1       3.418   2.242  17.590  0.00  0.00    +0.000 C 
ATOM     29  C   UNL     1       3.591   1.574  18.957  0.00  0.00    +0.000 C 
ATOM     30  C   UNL     1       3.588   2.538  20.144  0.00  0.00    +0.000 C 
ATOM     31  C   UNL     1       2.509   3.612  20.038  0.00  0.00    +0.000 C 
ATOM     32  C   UNL     1       1.113   2.999  20.248  0.00  0.00    +0.000 C 
ENDBRANCH  23  26
ENDBRANCH  20  23
ENDBRANCH   2  17
TORSDOF 4
ENDMDL
MODEL 9
REMARK VINA RESULT:      -8.4      1.240      1.958
REMARK  Name = 
REMARK  6 active torsions:
REMARK  status: ('A' for Active; 'I' for Inactive)
REMARK    1  A    between atoms: C_1  and  C_2
REMARK    2  A    between atoms: N_9  and  N_10
REMARK    3  A    between atoms: C_11  and  C_13
REMARK    4  A    between atoms: C_16  and  S_17
REMARK    5  A    between atoms: S_17  and  N_20
REMARK    6  A    between atoms: C_25  and  C_26
REMARK                            x       y       z     vdW  Elec       q    Type
REMARK                         _______ _______ _______ _____ _____    ______ ____
ROOT
ATOM      1  N   UNL     1       7.839   8.187  16.963  0.00  0.00    +0.000 N 
ATOM      2  C   UNL     1       8.417   8.617  18.149  0.00  0.00    +0.000 C 
ATOM      3  O   UNL     1       8.714   7.843  19.058  0.00  0.00    +0.000 OA
ATOM      4  H   UNL     1       7.769   8.738  16.114  0.00  0.00    +0.000 HD
ENDROOT
BRANCH   1  13
ATOM      5  C   UNL     1       2.563   7.833  18.262  0.00  0.00    +0.000 C 
ATOM      6  C   UNL     1       2.913   6.412  17.935  0.00  0.00    +0.000 A 
ATOM      7  C   UNL     1       1.925   5.409  18.011  0.00  0.00    +0.000 A 
ATOM      8  C   UNL     1       2.216   4.083  17.703  0.00  0.00    +0.000 A 
ATOM      9  C   UNL     1       3.499   3.712  17.298  0.00  0.00    +0.000 A 
ATOM     10  C   UNL     1       4.487   4.709  17.214  0.00  0.00    +0.000 A 
ATOM     11  S   UNL     1       6.129   4.572  16.718  0.00  0.00    +0.000 S 
ATOM     12  C   UNL     1       6.379   6.252  17.015  0.00  0.00    +0.000 A 
ATOM     13  N   UNL     1       7.601   6.808  16.823  0.00  0.00    +0.000 N 
ATOM     14  N   UNL     1       5.317   6.900  17.442  0.00  0.00    +0.000 NA
ATOM     15  C   UNL     1       4.226   6.043  17.541  0.00  0.00    +0.000 A 
ATOM     16  H   UNL     1       8.266   6.337  16.204  0.00  0.00    +0.000 HD
ENDBRANCH   1  13
BRANCH   2  17
ATOM     17  C   UNL     1       8.676  10.081  18.296  0.00  0.00    +0.000 A 
ATOM     18  C   UNL     1       9.694  10.595  19.110  0.00  0.00    +0.000 A 
ATOM     19  C   UNL     1       9.948  11.984  19.132  0.00  0.00    +0.000 A 
ATOM     20  C   UNL     1       9.204  12.860  18.326  0.00  0.00    +0.000 A 
ATOM     21  C   UNL     1       8.151  12.353  17.562  0.00  0.00    +0.000 A 
ATOM     22  C   UNL     1       7.907  10.969  17.529  0.00  0.00    +0.000 A 
BRANCH  20  23
ATOM     23  S   UNL     1       9.453  14.639  18.444  0.00  0.00    +0.000 S 
ATOM     24  O   UNL     1      10.884  14.858  18.400  0.00  0.00    +0.000 OA
ATOM     25  O   UNL     1       8.588  15.236  17.450  0.00  0.00    +0.000 OA
BRANCH  23  26
ATOM     26  N   UNL     1       8.896  15.137  19.980  0.00  0.00    +0.000 NA
ATOM     27  C   UNL     1       7.569  14.686  20.435  0.00  0.00    +0.000 C 
ATOM     28  C   UNL     1       7.685  13.426  21.280  0.00  0.00    +0.000 C 
ATOM     29  C   UNL     1       8.792  13.462  22.336  0.00  0.00    +0.000 C 
ATOM     30  C   UNL     1      10.092  14.126  21.876  0.00  0.00    +0.000 C 
ATOM     31  C   UNL     1       9.859  15.407  21.083  0.00  0.00    +0.000 C 
ATOM     32  C   UNL     1       9.352  16.530  22.006  0.00  0.00    +0.000 C 
ENDBRANCH  23  26
ENDBRANCH  20  23
ENDBRANCH   2  17
TORSDOF 4
ENDMDL
