MODEL 1
REMARK VINA RESULT:      -8.3      0.000      0.000
REMARK  Name = 
REMARK  8 active torsions:
REMARK  status: ('A' for Active; 'I' for Inactive)
REMARK    1  A    between atoms: C_1  and  C_2
REMARK    2  A    between atoms: C_3  and  N_4
REMARK    3  A    between atoms: N_4  and  C_5
REMARK    4  A    between atoms: C_5  and  N_7
REMARK    5  A    between atoms: C_8  and  C_10
REMARK    6  A    between atoms: C_13  and  C_14
REMARK    7  A    between atoms: C_25  and  C_26
REMARK    8  A    between atoms: C_26  and  O_28
REMARK                            x       y       z     vdW  Elec       q    Type
REMARK                         _______ _______ _______ _____ _____    ______ ____
ROOT
ATOM      1  N   UNL     1       6.010   5.057  16.684  0.00  0.00    +0.000 N 
ATOM      2  C   UNL     1       6.180   6.424  16.526  0.00  0.00    +0.000 C 
ATOM      3  O   UNL     1       5.551   7.067  15.680  0.00  0.00    +0.000 OA
ATOM      4  H   UNL     1       6.438   4.650  17.507  0.00  0.00    +0.000 HD
ENDROOT
BRANCH   2   5
ATOM      5  C   UNL     1       7.138   7.060  17.402  0.00  0.00    +0.000 A 
ATOM      6  C   UNL     1       7.842   6.504  18.455  0.00  0.00    +0.000 A 
ATOM      7  C   UNL     1       8.597   7.539  19.038  0.00  0.00    +0.000 A 
ATOM      8  C   UNL     1       8.328   8.687  18.320  0.00  0.00    +0.000 A 
ATOM      9  O   UNL     1       7.442   8.397  17.305  0.00  0.00    +0.000 OA
BRANCH   8  10
ATOM     10  C   UNL     1       8.773  10.073  18.474  0.00  0.00    +0.000 A 
ATOM     11  C   UNL     1       9.577  10.434  19.573  0.00  0.00    +0.000 A 
ATOM     12  C   UNL     1       9.966  11.759  19.788  0.00  0.00    +0.000 A 
ATOM     13  C   UNL     1       9.552  12.748  18.897  0.00  0.00    +0.000 A 
ATOM     14 CL   UNL     1       9.992  14.385  19.179  0.00  0.00    +0.000 Cl
ATOM     15  C   UNL     1       8.778  12.412  17.791  0.00  0.00    +0.000 A 
ATOM     16  C   UNL     1       8.393  11.082  17.579  0.00  0.00    +0.000 A 
ENDBRANCH   8  10
ENDBRANCH   2   5
BRANCH   1  17
ATOM     17  C   UNL     1       5.154   4.223  15.983  0.00  0.00    +0.000 C 
ATOM     18  S   UNL     1       5.631   3.743  14.453  0.00  0.00    +0.000 S 
BRANCH  17  19
ATOM     19  N   UNL     1       3.948   3.943  16.597  0.00  0.00    +0.000 N 
ATOM     20  H   UNL     1       3.300   3.402  16.032  0.00  0.00    +0.000 HD
BRANCH  19  23
ATOM     21  C   UNL     1       3.637   2.000  18.763  0.00  0.00    +0.000 C 
ATOM     22  C   UNL     1       3.124   3.416  18.862  0.00  0.00    +0.000 A 
ATOM     23  C   UNL     1       3.439   4.369  17.853  0.00  0.00    +0.000 A 
ATOM     24  C   UNL     1       3.128   5.718  18.060  0.00  0.00    +0.000 A 
ATOM     25  C   UNL     1       2.501   6.142  19.229  0.00  0.00    +0.000 A 
ATOM     26  C   UNL     1       2.133   5.211  20.192  0.00  0.00    +0.000 A 
ATOM     27  C   UNL     1       2.420   3.848  20.018  0.00  0.00    +0.000 A 
BRANCH  27  28
ATOM     28  C   UNL     1       2.000   2.976  21.158  0.00  0.00    +0.000 C 
ATOM     29  O   UNL     1       0.845   2.617  21.314  0.00  0.00    +0.000 OA
BRANCH  28  30
ATOM     30  O   UNL     1       2.998   2.546  21.956  0.00  0.00    +0.000 OA
ATOM     31  H   UNL     1       3.428   1.720  21.673  0.00  0.00    +0.000 HD
ENDBRANCH  28  30
ENDBRANCH  27  28
ENDBRANCH  19  23
ENDBRANCH  17  19
ENDBRANCH   1  17
TORSDOF 7
ENDMDL
MODEL 2
REMARK VINA RESULT:      -8.3      6.880      9.030
REMARK  Name = 
REMARK  8 active torsions:
REMARK  status: ('A' for Active; 'I' for Inactive)
REMARK    1  A    between atoms: C_1  and  C_2
REMARK    2  A    between atoms: C_3  and  N_4
REMARK    3  A    between atoms: N_4  and  C_5
REMARK    4  A    between atoms: C_5  and  N_7
REMARK    5  A    between atoms: C_8  and  C_10
REMARK    6  A    between atoms: C_13  and  C_14
REMARK    7  A    between atoms: C_25  and  C_26
REMARK    8  A    between atoms: C_26  and  O_28
REMARK                            x       y       z     vdW  Elec       q    Type
REMARK                         _______ _______ _______ _____ _____    ______ ____
ROOT
ATOM      1  N   UNL     1       0.821   9.527  19.349  0.00  0.00    +0.000 N 
ATOM      2  C   UNL     1       1.291   8.726  20.380  0.00  0.00    +0.000 C 
ATOM      3  O   UNL     1       1.218   9.073  21.562  0.00  0.00    +0.000 OA
ATOM      4  H   UNL     1       0.769   9.091  18.437  0.00  0.00    +0.000 HD
ENDROOT
BRANCH   2   5
ATOM      5  C   UNL     1       1.876   7.461  19.996  0.00  0.00    +0.000 A 
ATOM      6  C   UNL     1       1.836   6.254  20.672  0.00  0.00    +0.000 A 
ATOM      7  C   UNL     1       2.605   5.340  19.928  0.00  0.00    +0.000 A 
ATOM      8  C   UNL     1       3.085   6.019  18.826  0.00  0.00    +0.000 A 
ATOM      9  O   UNL     1       2.629   7.320  18.855  0.00  0.00    +0.000 OA
BRANCH   8  10
ATOM     10  C   UNL     1       3.965   5.619  17.727  0.00  0.00    +0.000 A 
ATOM     11  C   UNL     1       4.548   6.601  16.902  0.00  0.00    +0.000 A 
ATOM     12  C   UNL     1       5.340   6.253  15.804  0.00  0.00    +0.000 A 
ATOM     13  C   UNL     1       5.561   4.908  15.517  0.00  0.00    +0.000 A 
ATOM     14 CL   UNL     1       6.500   4.474  14.144  0.00  0.00    +0.000 Cl
ATOM     15  C   UNL     1       5.015   3.920  16.332  0.00  0.00    +0.000 A 
ATOM     16  C   UNL     1       4.224   4.274  17.432  0.00  0.00    +0.000 A 
ENDBRANCH   8  10
ENDBRANCH   2   5
BRANCH   1  17
ATOM     17  C   UNL     1       0.214  10.768  19.451  0.00  0.00    +0.000 C 
ATOM     18  S   UNL     1       1.208  12.093  19.686  0.00  0.00    +0.000 S 
BRANCH  17  19
ATOM     19  N   UNL     1      -1.168  10.767  19.431  0.00  0.00    +0.000 N 
ATOM     20  H   UNL     1      -1.606  10.624  20.336  0.00  0.00    +0.000 HD
BRANCH  19  23
ATOM     21  C   UNL     1      -3.619  12.345  19.679  0.00  0.00    +0.000 C 
ATOM     22  C   UNL     1      -3.339  11.462  18.488  0.00  0.00    +0.000 A 
ATOM     23  C   UNL     1      -2.068  10.841  18.334  0.00  0.00    +0.000 A 
ATOM     24  C   UNL     1      -1.758  10.195  17.131  0.00  0.00    +0.000 A 
ATOM     25  C   UNL     1      -2.680  10.135  16.088  0.00  0.00    +0.000 A 
ATOM     26  C   UNL     1      -3.945  10.683  16.252  0.00  0.00    +0.000 A 
ATOM     27  C   UNL     1      -4.296  11.333  17.446  0.00  0.00    +0.000 A 
BRANCH  27  28
ATOM     28  C   UNL     1      -5.677  11.907  17.456  0.00  0.00    +0.000 C 
ATOM     29  O   UNL     1      -6.625  11.317  17.945  0.00  0.00    +0.000 OA
BRANCH  28  30
ATOM     30  O   UNL     1      -5.787  13.156  16.960  0.00  0.00    +0.000 OA
ATOM     31  H   UNL     1      -6.593  13.326  16.443  0.00  0.00    +0.000 HD
ENDBRANCH  28  30
ENDBRANCH  27  28
ENDBRANCH  19  23
ENDBRANCH  17  19
ENDBRANCH   1  17
TORSDOF 7
ENDMDL
MODEL 3
REMARK VINA RESULT:      -8.2      6.879      9.025
REMARK  Name = 
REMARK  8 active torsions:
REMARK  status: ('A' for Active; 'I' for Inactive)
REMARK    1  A    between atoms: C_1  and  C_2
REMARK    2  A    between atoms: C_3  and  N_4
REMARK    3  A    between atoms: N_4  and  C_5
REMARK    4  A    between atoms: C_5  and  N_7
REMARK    5  A    between atoms: C_8  and  C_10
REMARK    6  A    between atoms: C_13  and  C_14
REMARK    7  A    between atoms: C_25  and  C_26
REMARK    8  A    between atoms: C_26  and  O_28
REMARK                            x       y       z     vdW  Elec       q    Type
REMARK                         _______ _______ _______ _____ _____    ______ ____
ROOT
ATOM      1  N   UNL     1       0.839   9.566  19.304  0.00  0.00    +0.000 N 
ATOM      2  C   UNL     1       1.150   8.696  20.338  0.00  0.00    +0.000 C 
ATOM      3  O   UNL     1       0.881   8.958  21.514  0.00  0.00    +0.000 OA
ATOM      4  H   UNL     1       0.943   9.196  18.367  0.00  0.00    +0.000 HD
ENDROOT
BRANCH   2   5
ATOM      5  C   UNL     1       1.811   7.465  19.968  0.00  0.00    +0.000 A 
ATOM      6  C   UNL     1       1.923   6.295  20.698  0.00  0.00    +0.000 A 
ATOM      7  C   UNL     1       2.710   5.409  19.939  0.00  0.00    +0.000 A 
ATOM      8  C   UNL     1       3.048   6.069  18.773  0.00  0.00    +0.000 A 
ATOM      9  O   UNL     1       2.488   7.327  18.779  0.00  0.00    +0.000 OA
BRANCH   8  10
ATOM     10  C   UNL     1       3.877   5.686  17.629  0.00  0.00    +0.000 A 
ATOM     11  C   UNL     1       4.064   4.324  17.323  0.00  0.00    +0.000 A 
ATOM     12  C   UNL     1       4.901   3.920  16.279  0.00  0.00    +0.000 A 
ATOM     13  C   UNL     1       5.566   4.883  15.521  0.00  0.00    +0.000 A 
ATOM     14 CL   UNL     1       6.629   4.391  14.263  0.00  0.00    +0.000 Cl
ATOM     15  C   UNL     1       5.377   6.236  15.790  0.00  0.00    +0.000 A 
ATOM     16  C   UNL     1       4.535   6.635  16.836  0.00  0.00    +0.000 A 
ENDBRANCH   8  10
ENDBRANCH   2   5
BRANCH   1  17
ATOM     17  C   UNL     1       0.203  10.793  19.391  0.00  0.00    +0.000 C 
ATOM     18  S   UNL     1       1.165  12.144  19.611  0.00  0.00    +0.000 S 
BRANCH  17  19
ATOM     19  N   UNL     1      -1.179  10.759  19.371  0.00  0.00    +0.000 N 
ATOM     20  H   UNL     1      -1.612  10.592  20.275  0.00  0.00    +0.000 HD
BRANCH  19  23
ATOM     21  C   UNL     1      -3.620  12.354  19.611  0.00  0.00    +0.000 C 
ATOM     22  C   UNL     1      -3.347  11.458  18.427  0.00  0.00    +0.000 A 
ATOM     23  C   UNL     1      -2.081  10.829  18.276  0.00  0.00    +0.000 A 
ATOM     24  C   UNL     1      -1.778  10.170  17.078  0.00  0.00    +0.000 A 
ATOM     25  C   UNL     1      -2.702  10.106  16.038  0.00  0.00    +0.000 A 
ATOM     26  C   UNL     1      -3.964  10.663  16.199  0.00  0.00    +0.000 A 
ATOM     27  C   UNL     1      -4.308  11.326  17.388  0.00  0.00    +0.000 A 
BRANCH  27  28
ATOM     28  C   UNL     1      -5.685  11.908  17.396  0.00  0.00    +0.000 C 
ATOM     29  O   UNL     1      -5.925  13.023  16.965  0.00  0.00    +0.000 OA
BRANCH  28  30
ATOM     30  O   UNL     1      -6.658  11.085  17.838  0.00  0.00    +0.000 OA
ATOM     31  H   UNL     1      -6.956  11.248  18.749  0.00  0.00    +0.000 HD
ENDBRANCH  28  30
ENDBRANCH  27  28
ENDBRANCH  19  23
ENDBRANCH  17  19
ENDBRANCH   1  17
TORSDOF 7
ENDMDL
MODEL 4
REMARK VINA RESULT:      -8.2      4.141      7.183
REMARK  Name = 
REMARK  8 active torsions:
REMARK  status: ('A' for Active; 'I' for Inactive)
REMARK    1  A    between atoms: C_1  and  C_2
REMARK    2  A    between atoms: C_3  and  N_4
REMARK    3  A    between atoms: N_4  and  C_5
REMARK    4  A    between atoms: C_5  and  N_7
REMARK    5  A    between atoms: C_8  and  C_10
REMARK    6  A    between atoms: C_13  and  C_14
REMARK    7  A    between atoms: C_25  and  C_26
REMARK    8  A    between atoms: C_26  and  O_28
REMARK                            x       y       z     vdW  Elec       q    Type
REMARK                         _______ _______ _______ _____ _____    ______ ____
ROOT
ATOM      1  N   UNL     1       2.846   4.727  18.274  0.00  0.00    +0.000 N 
ATOM      2  C   UNL     1       2.670   5.466  19.434  0.00  0.00    +0.000 C 
ATOM      3  O   UNL     1       2.873   4.983  20.552  0.00  0.00    +0.000 OA
ATOM      4  H   UNL     1       2.822   5.251  17.407  0.00  0.00    +0.000 HD
ENDROOT
BRANCH   2   5
ATOM      5  C   UNL     1       2.233   6.834  19.267  0.00  0.00    +0.000 A 
ATOM      6  C   UNL     1       2.494   7.699  18.219  0.00  0.00    +0.000 A 
ATOM      7  C   UNL     1       1.905   8.934  18.549  0.00  0.00    +0.000 A 
ATOM      8  C   UNL     1       1.305   8.778  19.782  0.00  0.00    +0.000 A 
ATOM      9  O   UNL     1       1.492   7.486  20.223  0.00  0.00    +0.000 OA
BRANCH   8  10
ATOM     10  C   UNL     1       0.584   9.708  20.652  0.00  0.00    +0.000 A 
ATOM     11  C   UNL     1       0.317   9.356  21.989  0.00  0.00    +0.000 A 
ATOM     12  C   UNL     1      -0.426  10.190  22.829  0.00  0.00    +0.000 A 
ATOM     13  C   UNL     1      -0.916  11.398  22.337  0.00  0.00    +0.000 A 
ATOM     14 CL   UNL     1      -1.865  12.409  23.352  0.00  0.00    +0.000 Cl
ATOM     15  C   UNL     1      -0.644  11.779  21.026  0.00  0.00    +0.000 A 
ATOM     16  C   UNL     1       0.103  10.940  20.189  0.00  0.00    +0.000 A 
ENDBRANCH   8  10
ENDBRANCH   2   5
BRANCH   1  17
ATOM     17  C   UNL     1       3.265   3.412  18.162  0.00  0.00    +0.000 C 
ATOM     18  S   UNL     1       2.125   2.217  18.429  0.00  0.00    +0.000 S 
BRANCH  17  19
ATOM     19  N   UNL     1       4.613   3.226  17.922  0.00  0.00    +0.000 N 
ATOM     20  H   UNL     1       5.011   2.396  18.352  0.00  0.00    +0.000 HD
BRANCH  19  23
ATOM     21  C   UNL     1       6.183   5.166  19.450  0.00  0.00    +0.000 C 
ATOM     22  C   UNL     1       6.196   5.118  17.942  0.00  0.00    +0.000 A 
ATOM     23  C   UNL     1       5.547   4.059  17.249  0.00  0.00    +0.000 A 
ATOM     24  C   UNL     1       5.741   3.919  15.869  0.00  0.00    +0.000 A 
ATOM     25  C   UNL     1       6.544   4.809  15.161  0.00  0.00    +0.000 A 
ATOM     26  C   UNL     1       7.131   5.882  15.817  0.00  0.00    +0.000 A 
ATOM     27  C   UNL     1       6.956   6.061  17.199  0.00  0.00    +0.000 A 
BRANCH  27  28
ATOM     28  C   UNL     1       7.683   7.237  17.768  0.00  0.00    +0.000 C 
ATOM     29  O   UNL     1       8.431   7.140  18.727  0.00  0.00    +0.000 OA
BRANCH  28  30
ATOM     30  O   UNL     1       7.519   8.397  17.100  0.00  0.00    +0.000 OA
ATOM     31  H   UNL     1       6.597   8.690  17.000  0.00  0.00    +0.000 HD
ENDBRANCH  28  30
ENDBRANCH  27  28
ENDBRANCH  19  23
ENDBRANCH  17  19
ENDBRANCH   1  17
TORSDOF 7
ENDMDL
MODEL 5
REMARK VINA RESULT:      -8.2      7.152      9.245
REMARK  Name = 
REMARK  8 active torsions:
REMARK  status: ('A' for Active; 'I' for Inactive)
REMARK    1  A    between atoms: C_1  and  C_2
REMARK    2  A    between atoms: C_3  and  N_4
REMARK    3  A    between atoms: N_4  and  C_5
REMARK    4  A    between atoms: C_5  and  N_7
REMARK    5  A    between atoms: C_8  and  C_10
REMARK    6  A    between atoms: C_13  and  C_14
REMARK    7  A    between atoms: C_25  and  C_26
REMARK    8  A    between atoms: C_26  and  O_28
REMARK                            x       y       z     vdW  Elec       q    Type
REMARK                         _______ _______ _______ _____ _____    ______ ____
ROOT
ATOM      1  N   UNL     1      -0.122   9.932  20.577  0.00  0.00    +0.000 N 
ATOM      2  C   UNL     1       0.992   9.781  19.765  0.00  0.00    +0.000 C 
ATOM      3  O   UNL     1       1.478  10.728  19.141  0.00  0.00    +0.000 OA
ATOM      4  H   UNL     1      -0.345   9.146  21.176  0.00  0.00    +0.000 HD
ENDROOT
BRANCH   2   5
ATOM      5  C   UNL     1       1.554   8.451  19.685  0.00  0.00    +0.000 A 
ATOM      6  C   UNL     1       1.550   7.456  20.646  0.00  0.00    +0.000 A 
ATOM      7  C   UNL     1       2.277   6.372  20.120  0.00  0.00    +0.000 A 
ATOM      8  C   UNL     1       2.697   6.744  18.858  0.00  0.00    +0.000 A 
ATOM      9  O   UNL     1       2.245   8.015  18.580  0.00  0.00    +0.000 OA
BRANCH   8  10
ATOM     10  C   UNL     1       3.517   6.066  17.853  0.00  0.00    +0.000 A 
ATOM     11  C   UNL     1       3.457   4.665  17.726  0.00  0.00    +0.000 A 
ATOM     12  C   UNL     1       4.274   3.978  16.823  0.00  0.00    +0.000 A 
ATOM     13  C   UNL     1       5.168   4.692  16.028  0.00  0.00    +0.000 A 
ATOM     14 CL   UNL     1       6.205   3.850  14.946  0.00  0.00    +0.000 Cl
ATOM     15  C   UNL     1       5.229   6.080  16.118  0.00  0.00    +0.000 A 
ATOM     16  C   UNL     1       4.406   6.763  17.023  0.00  0.00    +0.000 A 
ENDBRANCH   8  10
ENDBRANCH   2   5
BRANCH   1  17
ATOM     17  C   UNL     1      -0.835  11.093  20.829  0.00  0.00    +0.000 C 
ATOM     18  S   UNL     1      -1.174  11.454  22.427  0.00  0.00    +0.000 S 
BRANCH  17  19
ATOM     19  N   UNL     1      -1.264  11.791  19.717  0.00  0.00    +0.000 N 
ATOM     20  H   UNL     1      -0.948  12.756  19.673  0.00  0.00    +0.000 HD
BRANCH  19  23
ATOM     21  C   UNL     1      -4.067  12.624  19.821  0.00  0.00    +0.000 C 
ATOM     22  C   UNL     1      -3.546  11.653  18.790  0.00  0.00    +0.000 A 
ATOM     23  C   UNL     1      -2.150  11.402  18.677  0.00  0.00    +0.000 A 
ATOM     24  C   UNL     1      -1.670  10.661  17.591  0.00  0.00    +0.000 A 
ATOM     25  C   UNL     1      -2.537  10.149  16.629  0.00  0.00    +0.000 A 
ATOM     26  C   UNL     1      -3.907  10.334  16.764  0.00  0.00    +0.000 A 
ATOM     27  C   UNL     1      -4.428  11.066  17.843  0.00  0.00    +0.000 A 
BRANCH  27  28
ATOM     28  C   UNL     1      -5.915  11.215  17.830  0.00  0.00    +0.000 C 
ATOM     29  O   UNL     1      -6.643  10.562  18.558  0.00  0.00    +0.000 OA
BRANCH  28  30
ATOM     30  O   UNL     1      -6.393  12.178  17.016  0.00  0.00    +0.000 OA
ATOM     31  H   UNL     1      -6.412  13.072  17.399  0.00  0.00    +0.000 HD
ENDBRANCH  28  30
ENDBRANCH  27  28
ENDBRANCH  19  23
ENDBRANCH  17  19
ENDBRANCH   1  17
TORSDOF 7
ENDMDL
MODEL 6
REMARK VINA RESULT:      -8.2      5.304      7.354
REMARK  Name = 
REMARK  8 active torsions:
REMARK  status: ('A' for Active; 'I' for Inactive)
REMARK    1  A    between atoms: C_1  and  C_2
REMARK    2  A    between atoms: C_3  and  N_4
REMARK    3  A    between atoms: N_4  and  C_5
REMARK    4  A    between atoms: C_5  and  N_7
REMARK    5  A    between atoms: C_8  and  C_10
REMARK    6  A    between atoms: C_13  and  C_14
REMARK    7  A    between atoms: C_25  and  C_26
REMARK    8  A    between atoms: C_26  and  O_28
REMARK                            x       y       z     vdW  Elec       q    Type
REMARK                         _______ _______ _______ _____ _____    ______ ____
ROOT
ATOM      1  N   UNL     1       1.745   6.385  20.893  0.00  0.00    +0.000 N 
ATOM      2  C   UNL     1       1.827   7.564  20.167  0.00  0.00    +0.000 C 
ATOM      3  O   UNL     1       2.477   7.643  19.121  0.00  0.00    +0.000 OA
ATOM      4  H   UNL     1       1.059   6.370  21.637  0.00  0.00    +0.000 HD
ENDROOT
BRANCH   2   5
ATOM      5  C   UNL     1       1.111   8.701  20.702  0.00  0.00    +0.000 A 
ATOM      6  C   UNL     1       0.329   8.767  21.842  0.00  0.00    +0.000 A 
ATOM      7  C   UNL     1      -0.203  10.068  21.902  0.00  0.00    +0.000 A 
ATOM      8  C   UNL     1       0.274  10.749  20.799  0.00  0.00    +0.000 A 
ATOM      9  O   UNL     1       1.092   9.919  20.065  0.00  0.00    +0.000 OA
BRANCH   8  10
ATOM     10  C   UNL     1       0.038  12.105  20.300  0.00  0.00    +0.000 A 
ATOM     11  C   UNL     1      -0.255  12.311  18.938  0.00  0.00    +0.000 A 
ATOM     12  C   UNL     1      -0.420  13.596  18.414  0.00  0.00    +0.000 A 
ATOM     13  C   UNL     1      -0.293  14.701  19.255  0.00  0.00    +0.000 A 
ATOM     14 CL   UNL     1      -0.454  16.285  18.608  0.00  0.00    +0.000 Cl
ATOM     15  C   UNL     1      -0.028  14.521  20.609  0.00  0.00    +0.000 A 
ATOM     16  C   UNL     1       0.134  13.231  21.129  0.00  0.00    +0.000 A 
ENDBRANCH   8  10
ENDBRANCH   2   5
BRANCH   1  17
ATOM     17  C   UNL     1       2.325   5.164  20.592  0.00  0.00    +0.000 C 
ATOM     18  S   UNL     1       1.461   3.786  20.984  0.00  0.00    +0.000 S 
BRANCH  17  19
ATOM     19  N   UNL     1       3.604   5.215  20.071  0.00  0.00    +0.000 N 
ATOM     20  H   UNL     1       4.270   5.739  20.631  0.00  0.00    +0.000 HD
BRANCH  19  23
ATOM     21  C   UNL     1       6.460   5.455  19.485  0.00  0.00    +0.000 C 
ATOM     22  C   UNL     1       5.457   4.985  18.460  0.00  0.00    +0.000 A 
ATOM     23  C   UNL     1       4.109   4.730  18.835  0.00  0.00    +0.000 A 
ATOM     24  C   UNL     1       3.248   4.105  17.924  0.00  0.00    +0.000 A 
ATOM     25  C   UNL     1       3.684   3.745  16.652  0.00  0.00    +0.000 A 
ATOM     26  C   UNL     1       4.980   4.046  16.254  0.00  0.00    +0.000 A 
ATOM     27  C   UNL     1       5.871   4.678  17.136  0.00  0.00    +0.000 A 
BRANCH  27  28
ATOM     28  C   UNL     1       7.241   4.898  16.578  0.00  0.00    +0.000 C 
ATOM     29  O   UNL     1       8.185   4.179  16.861  0.00  0.00    +0.000 OA
BRANCH  28  30
ATOM     30  O   UNL     1       7.345   5.897  15.678  0.00  0.00    +0.000 OA
ATOM     31  H   UNL     1       6.653   6.579  15.734  0.00  0.00    +0.000 HD
ENDBRANCH  28  30
ENDBRANCH  27  28
ENDBRANCH  19  23
ENDBRANCH  17  19
ENDBRANCH   1  17
TORSDOF 7
ENDMDL
MODEL 7
REMARK VINA RESULT:      -8.1      7.000      9.097
REMARK  Name = 
REMARK  8 active torsions:
REMARK  status: ('A' for Active; 'I' for Inactive)
REMARK    1  A    between atoms: C_1  and  C_2
REMARK    2  A    between atoms: C_3  and  N_4
REMARK    3  A    between atoms: N_4  and  C_5
REMARK    4  A    between atoms: C_5  and  N_7
REMARK    5  A    between atoms: C_8  and  C_10
REMARK    6  A    between atoms: C_13  and  C_14
REMARK    7  A    between atoms: C_25  and  C_26
REMARK    8  A    between atoms: C_26  and  O_28
REMARK                            x       y       z     vdW  Elec       q    Type
REMARK                         _______ _______ _______ _____ _____    ______ ____
ROOT
ATOM      1  N   UNL     1       0.134   9.693  20.326  0.00  0.00    +0.000 N 
ATOM      2  C   UNL     1       1.191   9.532  19.443  0.00  0.00    +0.000 C 
ATOM      3  O   UNL     1       1.600  10.460  18.739  0.00  0.00    +0.000 OA
ATOM      4  H   UNL     1      -0.019   8.932  20.978  0.00  0.00    +0.000 HD
ENDROOT
BRANCH   2   5
ATOM      5  C   UNL     1       1.789   8.217  19.386  0.00  0.00    +0.000 A 
ATOM      6  C   UNL     1       1.795   7.232  20.357  0.00  0.00    +0.000 A 
ATOM      7  C   UNL     1       2.559   6.162  19.854  0.00  0.00    +0.000 A 
ATOM      8  C   UNL     1       2.989   6.532  18.595  0.00  0.00    +0.000 A 
ATOM      9  O   UNL     1       2.508   7.788  18.296  0.00  0.00    +0.000 OA
BRANCH   8  10
ATOM     10  C   UNL     1       3.842   5.865  17.610  0.00  0.00    +0.000 A 
ATOM     11  C   UNL     1       4.612   6.633  16.715  0.00  0.00    +0.000 A 
ATOM     12  C   UNL     1       5.386   6.031  15.719  0.00  0.00    +0.000 A 
ATOM     13  C   UNL     1       5.400   4.642  15.606  0.00  0.00    +0.000 A 
ATOM     14 CL   UNL     1       6.318   3.899  14.357  0.00  0.00    +0.000 Cl
ATOM     15  C   UNL     1       4.667   3.862  16.495  0.00  0.00    +0.000 A 
ATOM     16  C   UNL     1       3.895   4.470  17.493  0.00  0.00    +0.000 A 
ENDBRANCH   8  10
ENDBRANCH   2   5
BRANCH   1  17
ATOM     17  C   UNL     1      -0.595  10.844  20.574  0.00  0.00    +0.000 C 
ATOM     18  S   UNL     1      -0.973  11.186  22.168  0.00  0.00    +0.000 S 
BRANCH  17  19
ATOM     19  N   UNL     1      -1.008  11.549  19.459  0.00  0.00    +0.000 N 
ATOM     20  H   UNL     1      -0.583  12.466  19.357  0.00  0.00    +0.000 HD
BRANCH  19  23
ATOM     21  C   UNL     1      -3.722  12.596  19.768  0.00  0.00    +0.000 C 
ATOM     22  C   UNL     1      -3.356  11.589  18.705  0.00  0.00    +0.000 A 
ATOM     23  C   UNL     1      -1.996  11.232  18.489  0.00  0.00    +0.000 A 
ATOM     24  C   UNL     1      -1.656  10.457  17.373  0.00  0.00    +0.000 A 
ATOM     25  C   UNL     1      -2.629  10.016  16.480  0.00  0.00    +0.000 A 
ATOM     26  C   UNL     1      -3.967  10.307  16.716  0.00  0.00    +0.000 A 
ATOM     27  C   UNL     1      -4.348  11.075  17.827  0.00  0.00    +0.000 A 
BRANCH  27  28
ATOM     28  C   UNL     1      -5.817  11.339  17.924  0.00  0.00    +0.000 C 
ATOM     29  O   UNL     1      -6.353  12.270  17.347  0.00  0.00    +0.000 OA
BRANCH  28  30
ATOM     30  O   UNL     1      -6.522  10.429  18.626  0.00  0.00    +0.000 OA
ATOM     31  H   UNL     1      -7.380  10.740  18.962  0.00  0.00    +0.000 HD
ENDBRANCH  28  30
ENDBRANCH  27  28
ENDBRANCH  19  23
ENDBRANCH  17  19
ENDBRANCH   1  17
TORSDOF 7
ENDMDL
MODEL 8
REMARK VINA RESULT:      -8.1      4.239      6.998
REMARK  Name = 
REMARK  8 active torsions:
REMARK  status: ('A' for Active; 'I' for Inactive)
REMARK    1  A    between atoms: C_1  and  C_2
REMARK    2  A    between atoms: C_3  and  N_4
REMARK    3  A    between atoms: N_4  and  C_5
REMARK    4  A    between atoms: C_5  and  N_7
REMARK    5  A    between atoms: C_8  and  C_10
REMARK    6  A    between atoms: C_13  and  C_14
REMARK    7  A    between atoms: C_25  and  C_26
REMARK    8  A    between atoms: C_26  and  O_28
REMARK                            x       y       z     vdW  Elec       q    Type
REMARK                         _______ _______ _______ _____ _____    ______ ____
ROOT
ATOM      1  N   UNL     1       2.535   5.098  18.165  0.00  0.00    +0.000 N 
ATOM      2  C   UNL     1       2.452   5.911  19.286  0.00  0.00    +0.000 C 
ATOM      3  O   UNL     1       2.679   5.484  20.421  0.00  0.00    +0.000 OA
ATOM      4  H   UNL     1       2.499   5.571  17.270  0.00  0.00    +0.000 HD
ENDROOT
BRANCH   2   5
ATOM      5  C   UNL     1       2.081   7.289  19.055  0.00  0.00    +0.000 A 
ATOM      6  C   UNL     1       2.330   8.073  17.942  0.00  0.00    +0.000 A 
ATOM      7  C   UNL     1       1.829   9.358  18.223  0.00  0.00    +0.000 A 
ATOM      8  C   UNL     1       1.291   9.312  19.494  0.00  0.00    +0.000 A 
ATOM      9  O   UNL     1       1.431   8.040  20.005  0.00  0.00    +0.000 OA
BRANCH   8  10
ATOM     10  C   UNL     1       0.670  10.333  20.339  0.00  0.00    +0.000 A 
ATOM     11  C   UNL     1       1.017  11.688  20.172  0.00  0.00    +0.000 A 
ATOM     12  C   UNL     1       0.495  12.682  21.005  0.00  0.00    +0.000 A 
ATOM     13  C   UNL     1      -0.388  12.329  22.023  0.00  0.00    +0.000 A 
ATOM     14 CL   UNL     1      -1.001  13.541  23.076  0.00  0.00    +0.000 Cl
ATOM     15  C   UNL     1      -0.765  10.999  22.192  0.00  0.00    +0.000 A 
ATOM     16  C   UNL     1      -0.240  10.008  21.353  0.00  0.00    +0.000 A 
ENDBRANCH   8  10
ENDBRANCH   2   5
BRANCH   1  17
ATOM     17  C   UNL     1       2.878   3.757  18.116  0.00  0.00    +0.000 C 
ATOM     18  S   UNL     1       1.652   2.642  18.345  0.00  0.00    +0.000 S 
BRANCH  17  19
ATOM     19  N   UNL     1       4.224   3.483  17.963  0.00  0.00    +0.000 N 
ATOM     20  H   UNL     1       4.553   2.672  18.479  0.00  0.00    +0.000 HD
BRANCH  19  23
ATOM     21  C   UNL     1       5.978   5.288  19.456  0.00  0.00    +0.000 C 
ATOM     22  C   UNL     1       5.984   5.211  17.948  0.00  0.00    +0.000 A 
ATOM     23  C   UNL     1       5.233   4.208  17.275  0.00  0.00    +0.000 A 
ATOM     24  C   UNL     1       5.410   4.024  15.898  0.00  0.00    +0.000 A 
ATOM     25  C   UNL     1       6.296   4.818  15.173  0.00  0.00    +0.000 A 
ATOM     26  C   UNL     1       6.987   5.841  15.810  0.00  0.00    +0.000 A 
ATOM     27  C   UNL     1       6.831   6.061  17.188  0.00  0.00    +0.000 A 
BRANCH  27  28
ATOM     28  C   UNL     1       7.671   7.170  17.736  0.00  0.00    +0.000 C 
ATOM     29  O   UNL     1       7.679   8.287  17.246  0.00  0.00    +0.000 OA
BRANCH  28  30
ATOM     30  O   UNL     1       8.357   6.875  18.859  0.00  0.00    +0.000 OA
ATOM     31  H   UNL     1       8.190   7.465  19.614  0.00  0.00    +0.000 HD
ENDBRANCH  28  30
ENDBRANCH  27  28
ENDBRANCH  19  23
ENDBRANCH  17  19
ENDBRANCH   1  17
TORSDOF 7
ENDMDL
MODEL 9
REMARK VINA RESULT:      -8.0      4.596      7.091
REMARK  Name = 
REMARK  8 active torsions:
REMARK  status: ('A' for Active; 'I' for Inactive)
REMARK    1  A    between atoms: C_1  and  C_2
REMARK    2  A    between atoms: C_3  and  N_4
REMARK    3  A    between atoms: N_4  and  C_5
REMARK    4  A    between atoms: C_5  and  N_7
REMARK    5  A    between atoms: C_8  and  C_10
REMARK    6  A    between atoms: C_13  and  C_14
REMARK    7  A    between atoms: C_25  and  C_26
REMARK    8  A    between atoms: C_26  and  O_28
REMARK                            x       y       z     vdW  Elec       q    Type
REMARK                         _______ _______ _______ _____ _____    ______ ____
ROOT
ATOM      1  N   UNL     1       2.999   5.584  19.877  0.00  0.00    +0.000 N 
ATOM      2  C   UNL     1       2.365   6.070  18.744  0.00  0.00    +0.000 C 
ATOM      3  O   UNL     1       2.060   5.335  17.800  0.00  0.00    +0.000 OA
ATOM      4  H   UNL     1       3.055   6.222  20.662  0.00  0.00    +0.000 HD
ENDROOT
BRANCH   2   5
ATOM      5  C   UNL     1       2.080   7.487  18.722  0.00  0.00    +0.000 A 
ATOM      6  C   UNL     1       2.467   8.428  17.784  0.00  0.00    +0.000 A 
ATOM      7  C   UNL     1       2.002   9.677  18.237  0.00  0.00    +0.000 A 
ATOM      8  C   UNL     1       1.346   9.453  19.432  0.00  0.00    +0.000 A 
ATOM      9  O   UNL     1       1.380   8.108  19.729  0.00  0.00    +0.000 OA
BRANCH   8  10
ATOM     10  C   UNL     1       0.698  10.355  20.385  0.00  0.00    +0.000 A 
ATOM     11  C   UNL     1       0.312   9.878  21.652  0.00  0.00    +0.000 A 
ATOM     12  C   UNL     1      -0.368  10.693  22.562  0.00  0.00    +0.000 A 
ATOM     13  C   UNL     1      -0.673  12.006  22.211  0.00  0.00    +0.000 A 
ATOM     14 CL   UNL     1      -1.546  13.000  23.309  0.00  0.00    +0.000 Cl
ATOM     15  C   UNL     1      -0.280  12.508  20.973  0.00  0.00    +0.000 A 
ATOM     16  C   UNL     1       0.403  11.688  20.067  0.00  0.00    +0.000 A 
ENDBRANCH   8  10
ENDBRANCH   2   5
BRANCH   1  17
ATOM     17  C   UNL     1       3.368   4.276  20.146  0.00  0.00    +0.000 C 
ATOM     18  S   UNL     1       2.446   3.431  21.258  0.00  0.00    +0.000 S 
BRANCH  17  19
ATOM     19  N   UNL     1       4.519   3.834  19.523  0.00  0.00    +0.000 N 
ATOM     20  H   UNL     1       4.761   2.866  19.716  0.00  0.00    +0.000 HD
BRANCH  19  23
ATOM     21  C   UNL     1       4.477   3.541  16.613  0.00  0.00    +0.000 C 
ATOM     22  C   UNL     1       5.569   4.288  17.338  0.00  0.00    +0.000 A 
ATOM     23  C   UNL     1       5.463   4.543  18.734  0.00  0.00    +0.000 A 
ATOM     24  C   UNL     1       6.379   5.406  19.347  0.00  0.00    +0.000 A 
ATOM     25  C   UNL     1       7.402   6.007  18.617  0.00  0.00    +0.000 A 
ATOM     26  C   UNL     1       7.552   5.716  17.267  0.00  0.00    +0.000 A 
ATOM     27  C   UNL     1       6.658   4.849  16.618  0.00  0.00    +0.000 A 
BRANCH  27  28
ATOM     28  C   UNL     1       6.923   4.666  15.158  0.00  0.00    +0.000 C 
ATOM     29  O   UNL     1       6.428   3.757  14.513  0.00  0.00    +0.000 OA
BRANCH  28  30
ATOM     30  O   UNL     1       7.682   5.622  14.584  0.00  0.00    +0.000 OA
ATOM     31  H   UNL     1       7.995   5.418  13.686  0.00  0.00    +0.000 HD
ENDBRANCH  28  30
ENDBRANCH  27  28
ENDBRANCH  19  23
ENDBRANCH  17  19
ENDBRANCH   1  17
TORSDOF 7
ENDMDL
