MODEL 1
REMARK VINA RESULT:      -7.2      0.000      0.000
REMARK  Name = 
REMARK  8 active torsions:
REMARK  status: ('A' for Active; 'I' for Inactive)
REMARK    1  A    between atoms: C_1  and  C_2
REMARK    2  A    between atoms: C_2  and  C_3
REMARK    3  A    between atoms: C_3  and  C_4
REMARK    4  A    between atoms: C_3  and  O_14
REMARK    5  A    between atoms: C_4  and  N_5
REMARK    6  A    between atoms: N_5  and  S_6
REMARK    7  A    between atoms: S_6  and  C_9
REMARK    8  A    between atoms: O_14  and  C_15
REMARK                            x       y       z     vdW  Elec       q    Type
REMARK                         _______ _______ _______ _____ _____    ______ ____
ROOT
ATOM      1  C   UNL     1       2.238   6.382  19.668  0.00  0.00    +0.000 C 
ENDROOT
BRANCH   1   2
ATOM      2  N   UNL     1       2.732   5.510  20.762  0.00  0.00    +0.000 NA
ATOM      3  H   UNL     1       2.705   5.941  21.685  0.00  0.00    +0.000 HD
BRANCH   2   4
ATOM      4  S   UNL     1       1.984   3.991  20.836  0.00  0.00    +0.000 S 
ATOM      5  O   UNL     1       2.168   3.495  22.183  0.00  0.00    +0.000 OA
ATOM      6  O   UNL     1       0.672   4.113  20.244  0.00  0.00    +0.000 OA
BRANCH   4   7
ATOM      7  C   UNL     1       2.879   2.895  19.810  0.00  0.00    +0.000 A 
ATOM      8  C   UNL     1       4.121   2.353  20.083  0.00  0.00    +0.000 A 
ATOM      9  N   UNL     1       4.445   1.620  18.977  0.00  0.00    +0.000 N 
ATOM     10  C   UNL     1       3.427   1.754  18.075  0.00  0.00    +0.000 A 
ATOM     11  N   UNL     1       2.471   2.530  18.534  0.00  0.00    +0.000 NA
ATOM     12  H   UNL     1       5.291   1.084  18.837  0.00  0.00    +0.000 HD
ENDBRANCH   4   7
ENDBRANCH   2   4
ENDBRANCH   1   2
BRANCH   1  13
ATOM     13  C   UNL     1       3.352   6.709  18.656  0.00  0.00    +0.000 C 
BRANCH  13  15
ATOM     14  C   UNL     1       1.704   8.631  18.245  0.00  0.00    +0.000 C 
ATOM     15  C   UNL     1       2.961   7.912  17.775  0.00  0.00    +0.000 C 
ENDBRANCH  13  15
BRANCH  13  16
ATOM     16  O   UNL     1       3.540   5.603  17.754  0.00  0.00    +0.000 OA
BRANCH  16  17
ATOM     17  C   UNL     1       4.803   5.208  17.411  0.00  0.00    +0.000 A 
ATOM     18  C   UNL     1       4.989   5.024  16.034  0.00  0.00    +0.000 A 
ATOM     19  C   UNL     1       6.234   4.648  15.519  0.00  0.00    +0.000 A 
ATOM     20  C   UNL     1       7.316   4.466  16.375  0.00  0.00    +0.000 A 
ATOM     21  C   UNL     1       7.147   4.654  17.744  0.00  0.00    +0.000 A 
ATOM     22  C   UNL     1       5.900   5.020  18.254  0.00  0.00    +0.000 A 
ATOM     23  F   UNL     1       5.826   5.204  19.578  0.00  0.00    +0.000 F 
ENDBRANCH  16  17
ENDBRANCH  13  16
ENDBRANCH   1  13
TORSDOF 7
ENDMDL
MODEL 2
REMARK VINA RESULT:      -7.2      3.069      5.112
REMARK  Name = 
REMARK  8 active torsions:
REMARK  status: ('A' for Active; 'I' for Inactive)
REMARK    1  A    between atoms: C_1  and  C_2
REMARK    2  A    between atoms: C_2  and  C_3
REMARK    3  A    between atoms: C_3  and  C_4
REMARK    4  A    between atoms: C_3  and  O_14
REMARK    5  A    between atoms: C_4  and  N_5
REMARK    6  A    between atoms: N_5  and  S_6
REMARK    7  A    between atoms: S_6  and  C_9
REMARK    8  A    between atoms: O_14  and  C_15
REMARK                            x       y       z     vdW  Elec       q    Type
REMARK                         _______ _______ _______ _____ _____    ______ ____
ROOT
ATOM      1  C   UNL     1       4.545   5.657  18.916  0.00  0.00    +0.000 C 
ENDROOT
BRANCH   1   2
ATOM      2  N   UNL     1       5.511   4.576  18.602  0.00  0.00    +0.000 NA
ATOM      3  H   UNL     1       5.112   3.794  18.084  0.00  0.00    +0.000 HD
BRANCH   2   4
ATOM      4  S   UNL     1       6.916   5.102  17.814  0.00  0.00    +0.000 S 
ATOM      5  O   UNL     1       6.926   6.548  17.888  0.00  0.00    +0.000 OA
ATOM      6  O   UNL     1       8.022   4.309  18.299  0.00  0.00    +0.000 OA
BRANCH   4   7
ATOM      7  C   UNL     1       6.758   4.727  16.113  0.00  0.00    +0.000 A 
ATOM      8  C   UNL     1       6.028   3.686  15.573  0.00  0.00    +0.000 A 
ATOM      9  N   UNL     1       6.254   3.748  14.227  0.00  0.00    +0.000 N 
ATOM     10  C   UNL     1       7.115   4.785  13.996  0.00  0.00    +0.000 A 
ATOM     11  N   UNL     1       7.456   5.389  15.112  0.00  0.00    +0.000 NA
ATOM     12  H   UNL     1       5.869   3.133  13.523  0.00  0.00    +0.000 HD
ENDBRANCH   4   7
ENDBRANCH   2   4
ENDBRANCH   1   2
BRANCH   1  13
ATOM     13  C   UNL     1       3.624   5.962  17.720  0.00  0.00    +0.000 C 
BRANCH  13  15
ATOM     14  C   UNL     1       2.566   8.291  17.884  0.00  0.00    +0.000 C 
ATOM     15  C   UNL     1       3.704   7.449  17.326  0.00  0.00    +0.000 C 
ENDBRANCH  13  15
BRANCH  13  16
ATOM     16  O   UNL     1       2.252   5.721  18.080  0.00  0.00    +0.000 OA
BRANCH  16  17
ATOM     17  C   UNL     1       1.938   4.700  18.934  0.00  0.00    +0.000 A 
ATOM     18  C   UNL     1       1.869   3.443  18.319  0.00  0.00    +0.000 A 
ATOM     19  C   UNL     1       1.587   2.291  19.062  0.00  0.00    +0.000 A 
ATOM     20  C   UNL     1       1.385   2.381  20.436  0.00  0.00    +0.000 A 
ATOM     21  C   UNL     1       1.460   3.623  21.061  0.00  0.00    +0.000 A 
ATOM     22  C   UNL     1       1.733   4.769  20.313  0.00  0.00    +0.000 A 
ATOM     23  F   UNL     1       1.810   5.922  20.992  0.00  0.00    +0.000 F 
ENDBRANCH  16  17
ENDBRANCH  13  16
ENDBRANCH   1  13
TORSDOF 7
ENDMDL
MODEL 3
REMARK VINA RESULT:      -7.0      3.300      5.447
REMARK  Name = 
REMARK  8 active torsions:
REMARK  status: ('A' for Active; 'I' for Inactive)
REMARK    1  A    between atoms: C_1  and  C_2
REMARK    2  A    between atoms: C_2  and  C_3
REMARK    3  A    between atoms: C_3  and  C_4
REMARK    4  A    between atoms: C_3  and  O_14
REMARK    5  A    between atoms: C_4  and  N_5
REMARK    6  A    between atoms: N_5  and  S_6
REMARK    7  A    between atoms: S_6  and  C_9
REMARK    8  A    between atoms: O_14  and  C_15
REMARK                            x       y       z     vdW  Elec       q    Type
REMARK                         _______ _______ _______ _____ _____    ______ ____
ROOT
ATOM      1  C   UNL     1       4.451   6.789  17.407  0.00  0.00    +0.000 C 
ENDROOT
BRANCH   1   2
ATOM      2  N   UNL     1       5.463   5.793  17.837  0.00  0.00    +0.000 NA
ATOM      3  H   UNL     1       5.140   4.826  17.805  0.00  0.00    +0.000 HD
BRANCH   2   4
ATOM      4  S   UNL     1       6.946   5.910  17.027  0.00  0.00    +0.000 S 
ATOM      5  O   UNL     1       7.140   7.307  16.700  0.00  0.00    +0.000 OA
ATOM      6  O   UNL     1       7.926   5.163  17.782  0.00  0.00    +0.000 OA
BRANCH   4   7
ATOM      7  C   UNL     1       6.791   5.091  15.489  0.00  0.00    +0.000 A 
ATOM      8  C   UNL     1       6.025   3.969  15.237  0.00  0.00    +0.000 A 
ATOM      9  N   UNL     1       6.268   3.655  13.930  0.00  0.00    +0.000 N 
ATOM     10  C   UNL     1       7.172   4.558  13.444  0.00  0.00    +0.000 A 
ATOM     11  N   UNL     1       7.526   5.431  14.361  0.00  0.00    +0.000 NA
ATOM     12  H   UNL     1       5.866   2.885  13.411  0.00  0.00    +0.000 HD
ENDBRANCH   4   7
ENDBRANCH   2   4
ENDBRANCH   1   2
BRANCH   1  13
ATOM     13  C   UNL     1       3.076   6.514  18.043  0.00  0.00    +0.000 C 
BRANCH  13  15
ATOM     14  C   UNL     1       2.107   8.852  17.633  0.00  0.00    +0.000 C 
ATOM     15  C   UNL     1       2.488   7.796  18.661  0.00  0.00    +0.000 C 
ENDBRANCH  13  15
BRANCH  13  16
ATOM     16  O   UNL     1       3.213   5.578  19.128  0.00  0.00    +0.000 OA
BRANCH  16  17
ATOM     17  C   UNL     1       2.438   4.452  19.163  0.00  0.00    +0.000 A 
ATOM     18  C   UNL     1       1.638   4.346  20.308  0.00  0.00    +0.000 A 
ATOM     19  C   UNL     1       0.766   3.266  20.480  0.00  0.00    +0.000 A 
ATOM     20  C   UNL     1       0.672   2.284  19.499  0.00  0.00    +0.000 A 
ATOM     21  C   UNL     1       1.456   2.381  18.353  0.00  0.00    +0.000 A 
ATOM     22  C   UNL     1       2.330   3.457  18.190  0.00  0.00    +0.000 A 
ATOM     23  F   UNL     1       3.033   3.490  17.050  0.00  0.00    +0.000 F 
ENDBRANCH  16  17
ENDBRANCH  13  16
ENDBRANCH   1  13
TORSDOF 7
ENDMDL
MODEL 4
REMARK VINA RESULT:      -7.0      2.909      4.207
REMARK  Name = 
REMARK  8 active torsions:
REMARK  status: ('A' for Active; 'I' for Inactive)
REMARK    1  A    between atoms: C_1  and  C_2
REMARK    2  A    between atoms: C_2  and  C_3
REMARK    3  A    between atoms: C_3  and  C_4
REMARK    4  A    between atoms: C_3  and  O_14
REMARK    5  A    between atoms: C_4  and  N_5
REMARK    6  A    between atoms: N_5  and  S_6
REMARK    7  A    between atoms: S_6  and  C_9
REMARK    8  A    between atoms: O_14  and  C_15
REMARK                            x       y       z     vdW  Elec       q    Type
REMARK                         _______ _______ _______ _____ _____    ______ ____
ROOT
ATOM      1  C   UNL     1       5.705   6.220  17.273  0.00  0.00    +0.000 C 
ENDROOT
BRANCH   1   2
ATOM      2  N   UNL     1       4.266   5.913  17.082  0.00  0.00    +0.000 NA
ATOM      3  H   UNL     1       4.083   5.151  16.430  0.00  0.00    +0.000 HD
BRANCH   2   4
ATOM      4  S   UNL     1       3.416   5.628  18.520  0.00  0.00    +0.000 S 
ATOM      5  O   UNL     1       4.395   5.575  19.586  0.00  0.00    +0.000 OA
ATOM      6  O   UNL     1       2.295   6.539  18.561  0.00  0.00    +0.000 OA
BRANCH   4   7
ATOM      7  C   UNL     1       2.732   4.021  18.437  0.00  0.00    +0.000 A 
ATOM      8  C   UNL     1       3.095   3.025  17.550  0.00  0.00    +0.000 A 
ATOM      9  N   UNL     1       2.252   1.983  17.815  0.00  0.00    +0.000 N 
ATOM     10  C   UNL     1       1.405   2.375  18.815  0.00  0.00    +0.000 A 
ATOM     11  N   UNL     1       1.652   3.605  19.205  0.00  0.00    +0.000 NA
ATOM     12  H   UNL     1       2.241   1.086  17.350  0.00  0.00    +0.000 HD
ENDBRANCH   4   7
ENDBRANCH   2   4
ENDBRANCH   1   2
BRANCH   1  13
ATOM     13  C   UNL     1       6.603   5.081  16.757  0.00  0.00    +0.000 C 
BRANCH  13  15
ATOM     14  C   UNL     1       7.810   5.717  18.928  0.00  0.00    +0.000 C 
ATOM     15  C   UNL     1       7.671   4.703  17.801  0.00  0.00    +0.000 C 
ENDBRANCH  13  15
BRANCH  13  16
ATOM     16  O   UNL     1       7.325   5.513  15.589  0.00  0.00    +0.000 OA
BRANCH  16  17
ATOM     17  C   UNL     1       7.079   4.930  14.377  0.00  0.00    +0.000 A 
ATOM     18  C   UNL     1       5.952   4.098  14.363  0.00  0.00    +0.000 A 
ATOM     19  C   UNL     1       5.548   3.451  13.191  0.00  0.00    +0.000 A 
ATOM     20  C   UNL     1       6.260   3.640  12.010  0.00  0.00    +0.000 A 
ATOM     21  C   UNL     1       7.377   4.471  12.008  0.00  0.00    +0.000 A 
ATOM     22  C   UNL     1       7.780   5.107  13.183  0.00  0.00    +0.000 A 
ATOM     23  F   UNL     1       8.850   5.908  13.093  0.00  0.00    +0.000 F 
ENDBRANCH  16  17
ENDBRANCH  13  16
ENDBRANCH   1  13
TORSDOF 7
ENDMDL
MODEL 5
REMARK VINA RESULT:      -7.0      3.389      5.926
REMARK  Name = 
REMARK  8 active torsions:
REMARK  status: ('A' for Active; 'I' for Inactive)
REMARK    1  A    between atoms: C_1  and  C_2
REMARK    2  A    between atoms: C_2  and  C_3
REMARK    3  A    between atoms: C_3  and  C_4
REMARK    4  A    between atoms: C_3  and  O_14
REMARK    5  A    between atoms: C_4  and  N_5
REMARK    6  A    between atoms: N_5  and  S_6
REMARK    7  A    between atoms: S_6  and  C_9
REMARK    8  A    between atoms: O_14  and  C_15
REMARK                            x       y       z     vdW  Elec       q    Type
REMARK                         _______ _______ _______ _____ _____    ______ ____
ROOT
ATOM      1  C   UNL     1       4.538   3.816  16.075  0.00  0.00    +0.000 C 
ENDROOT
BRANCH   1   2
ATOM      2  N   UNL     1       5.939   4.039  16.512  0.00  0.00    +0.000 NA
ATOM      3  H   UNL     1       6.545   3.227  16.405  0.00  0.00    +0.000 HD
BRANCH   2   4
ATOM      4  S   UNL     1       6.684   5.386  15.806  0.00  0.00    +0.000 S 
ATOM      5  O   UNL     1       7.795   4.891  15.020  0.00  0.00    +0.000 OA
ATOM      6  O   UNL     1       5.651   6.213  15.226  0.00  0.00    +0.000 OA
BRANCH   4   7
ATOM      7  C   UNL     1       7.407   6.338  17.082  0.00  0.00    +0.000 A 
ATOM      8  C   UNL     1       7.735   5.890  18.348  0.00  0.00    +0.000 A 
ATOM      9  N   UNL     1       8.204   6.989  19.009  0.00  0.00    +0.000 N 
ATOM     10  C   UNL     1       8.125   8.054  18.155  0.00  0.00    +0.000 A 
ATOM     11  N   UNL     1       7.633   7.705  16.988  0.00  0.00    +0.000 NA
ATOM     12  H   UNL     1       8.537   7.021  19.963  0.00  0.00    +0.000 HD
ENDBRANCH   4   7
ENDBRANCH   2   4
ENDBRANCH   1   2
BRANCH   1  13
ATOM     13  C   UNL     1       3.543   4.019  17.233  0.00  0.00    +0.000 C 
BRANCH  13  15
ATOM     14  C   UNL     1       3.509   6.482  17.944  0.00  0.00    +0.000 C 
ATOM     15  C   UNL     1       4.053   5.087  18.219  0.00  0.00    +0.000 C 
ENDBRANCH  13  15
BRANCH  13  16
ATOM     16  O   UNL     1       3.419   2.804  17.995  0.00  0.00    +0.000 OA
BRANCH  16  17
ATOM     17  C   UNL     1       2.819   2.825  19.224  0.00  0.00    +0.000 A 
ATOM     18  C   UNL     1       1.456   3.149  19.188  0.00  0.00    +0.000 A 
ATOM     19  C   UNL     1       0.693   3.184  20.359  0.00  0.00    +0.000 A 
ATOM     20  C   UNL     1       1.281   2.880  21.583  0.00  0.00    +0.000 A 
ATOM     21  C   UNL     1       2.632   2.548  21.632  0.00  0.00    +0.000 A 
ATOM     22  C   UNL     1       3.391   2.524  20.461  0.00  0.00    +0.000 A 
ATOM     23  F   UNL     1       4.678   2.173  20.590  0.00  0.00    +0.000 F 
ENDBRANCH  16  17
ENDBRANCH  13  16
ENDBRANCH   1  13
TORSDOF 7
ENDMDL
MODEL 6
REMARK VINA RESULT:      -6.9      3.540      6.095
REMARK  Name = 
REMARK  8 active torsions:
REMARK  status: ('A' for Active; 'I' for Inactive)
REMARK    1  A    between atoms: C_1  and  C_2
REMARK    2  A    between atoms: C_2  and  C_3
REMARK    3  A    between atoms: C_3  and  C_4
REMARK    4  A    between atoms: C_3  and  O_14
REMARK    5  A    between atoms: C_4  and  N_5
REMARK    6  A    between atoms: N_5  and  S_6
REMARK    7  A    between atoms: S_6  and  C_9
REMARK    8  A    between atoms: O_14  and  C_15
REMARK                            x       y       z     vdW  Elec       q    Type
REMARK                         _______ _______ _______ _____ _____    ______ ____
ROOT
ATOM      1  C   UNL     1       4.671   3.856  16.110  0.00  0.00    +0.000 C 
ENDROOT
BRANCH   1   2
ATOM      2  N   UNL     1       6.051   4.179  16.547  0.00  0.00    +0.000 NA
ATOM      3  H   UNL     1       6.720   3.421  16.419  0.00  0.00    +0.000 HD
BRANCH   2   4
ATOM      4  S   UNL     1       6.684   5.597  15.868  0.00  0.00    +0.000 S 
ATOM      5  O   UNL     1       7.760   5.199  14.985  0.00  0.00    +0.000 OA
ATOM      6  O   UNL     1       5.577   6.400  15.403  0.00  0.00    +0.000 OA
BRANCH   4   7
ATOM      7  C   UNL     1       7.447   6.516  17.145  0.00  0.00    +0.000 A 
ATOM      8  C   UNL     1       7.788   6.044  18.398  0.00  0.00    +0.000 A 
ATOM      9  N   UNL     1       8.290   7.124  19.066  0.00  0.00    +0.000 N 
ATOM     10  C   UNL     1       8.217   8.203  18.228  0.00  0.00    +0.000 A 
ATOM     11  N   UNL     1       7.698   7.880  17.065  0.00  0.00    +0.000 NA
ATOM     12  H   UNL     1       8.640   7.137  20.014  0.00  0.00    +0.000 HD
ENDBRANCH   4   7
ENDBRANCH   2   4
ENDBRANCH   1   2
BRANCH   1  13
ATOM     13  C   UNL     1       3.652   4.060  17.247  0.00  0.00    +0.000 C 
BRANCH  13  15
ATOM     14  C   UNL     1       3.122   6.444  18.028  0.00  0.00    +0.000 C 
ATOM     15  C   UNL     1       4.055   5.247  18.142  0.00  0.00    +0.000 C 
ENDBRANCH  13  15
BRANCH  13  16
ATOM     16  O   UNL     1       3.634   2.905  18.105  0.00  0.00    +0.000 OA
BRANCH  16  17
ATOM     17  C   UNL     1       2.799   2.870  19.188  0.00  0.00    +0.000 A 
ATOM     18  C   UNL     1       3.445   2.584  20.398  0.00  0.00    +0.000 A 
ATOM     19  C   UNL     1       2.734   2.541  21.602  0.00  0.00    +0.000 A 
ATOM     20  C   UNL     1       1.367   2.800  21.613  0.00  0.00    +0.000 A 
ATOM     21  C   UNL     1       0.714   3.094  20.419  0.00  0.00    +0.000 A 
ATOM     22  C   UNL     1       1.427   3.126  19.219  0.00  0.00    +0.000 A 
ATOM     23  F   UNL     1       0.731   3.439  18.118  0.00  0.00    +0.000 F 
ENDBRANCH  16  17
ENDBRANCH  13  16
ENDBRANCH   1  13
TORSDOF 7
ENDMDL
MODEL 7
REMARK VINA RESULT:      -6.9      3.236      5.255
REMARK  Name = 
REMARK  8 active torsions:
REMARK  status: ('A' for Active; 'I' for Inactive)
REMARK    1  A    between atoms: C_1  and  C_2
REMARK    2  A    between atoms: C_2  and  C_3
REMARK    3  A    between atoms: C_3  and  C_4
REMARK    4  A    between atoms: C_3  and  O_14
REMARK    5  A    between atoms: C_4  and  N_5
REMARK    6  A    between atoms: N_5  and  S_6
REMARK    7  A    between atoms: S_6  and  C_9
REMARK    8  A    between atoms: O_14  and  C_15
REMARK                            x       y       z     vdW  Elec       q    Type
REMARK                         _______ _______ _______ _____ _____    ______ ____
ROOT
ATOM      1  C   UNL     1       4.589   6.751  17.002  0.00  0.00    +0.000 C 
ENDROOT
BRANCH   1   2
ATOM      2  N   UNL     1       5.739   6.822  17.936  0.00  0.00    +0.000 NA
ATOM      3  H   UNL     1       5.567   6.397  18.846  0.00  0.00    +0.000 HD
BRANCH   2   4
ATOM      4  S   UNL     1       7.189   6.214  17.304  0.00  0.00    +0.000 S 
ATOM      5  O   UNL     1       7.914   7.339  16.751  0.00  0.00    +0.000 OA
ATOM      6  O   UNL     1       7.777   5.345  18.297  0.00  0.00    +0.000 OA
BRANCH   4   7
ATOM      7  C   UNL     1       6.801   5.195  15.937  0.00  0.00    +0.000 A 
ATOM      8  C   UNL     1       6.149   3.978  15.986  0.00  0.00    +0.000 A 
ATOM      9  N   UNL     1       6.131   3.526  14.698  0.00  0.00    +0.000 N 
ATOM     10  C   UNL     1       6.780   4.449  13.923  0.00  0.00    +0.000 A 
ATOM     11  N   UNL     1       7.214   5.462  14.638  0.00  0.00    +0.000 NA
ATOM     12  H   UNL     1       5.727   2.661  14.368  0.00  0.00    +0.000 HD
ENDBRANCH   4   7
ENDBRANCH   2   4
ENDBRANCH   1   2
BRANCH   1  13
ATOM     13  C   UNL     1       3.305   6.290  17.716  0.00  0.00    +0.000 C 
BRANCH  13  15
ATOM     14  C   UNL     1       2.245   8.625  17.680  0.00  0.00    +0.000 C 
ATOM     15  C   UNL     1       2.683   7.440  18.530  0.00  0.00    +0.000 C 
ENDBRANCH  13  15
BRANCH  13  16
ATOM     16  O   UNL     1       3.614   5.254  18.666  0.00  0.00    +0.000 OA
BRANCH  16  17
ATOM     17  C   UNL     1       2.635   4.397  19.087  0.00  0.00    +0.000 A 
ATOM     18  C   UNL     1       2.289   3.420  18.144  0.00  0.00    +0.000 A 
ATOM     19  C   UNL     1       1.324   2.449  18.433  0.00  0.00    +0.000 A 
ATOM     20  C   UNL     1       0.703   2.434  19.677  0.00  0.00    +0.000 A 
ATOM     21  C   UNL     1       1.043   3.393  20.626  0.00  0.00    +0.000 A 
ATOM     22  C   UNL     1       2.000   4.365  20.330  0.00  0.00    +0.000 A 
ATOM     23  F   UNL     1       2.288   5.238  21.304  0.00  0.00    +0.000 F 
ENDBRANCH  16  17
ENDBRANCH  13  16
ENDBRANCH   1  13
TORSDOF 7
ENDMDL
MODEL 8
REMARK VINA RESULT:      -6.9      1.214      1.724
REMARK  Name = 
REMARK  8 active torsions:
REMARK  status: ('A' for Active; 'I' for Inactive)
REMARK    1  A    between atoms: C_1  and  C_2
REMARK    2  A    between atoms: C_2  and  C_3
REMARK    3  A    between atoms: C_3  and  C_4
REMARK    4  A    between atoms: C_3  and  O_14
REMARK    5  A    between atoms: C_4  and  N_5
REMARK    6  A    between atoms: N_5  and  S_6
REMARK    7  A    between atoms: S_6  and  C_9
REMARK    8  A    between atoms: O_14  and  C_15
REMARK                            x       y       z     vdW  Elec       q    Type
REMARK                         _______ _______ _______ _____ _____    ______ ____
ROOT
ATOM      1  C   UNL     1       2.020   6.166  20.037  0.00  0.00    +0.000 C 
ENDROOT
BRANCH   1   2
ATOM      2  N   UNL     1       2.580   5.205  21.019  0.00  0.00    +0.000 NA
ATOM      3  H   UNL     1       2.572   5.537  21.982  0.00  0.00    +0.000 HD
BRANCH   2   4
ATOM      4  S   UNL     1       1.887   3.661  20.958  0.00  0.00    +0.000 S 
ATOM      5  O   UNL     1       1.984   3.101  22.289  0.00  0.00    +0.000 OA
ATOM      6  O   UNL     1       0.621   3.769  20.269  0.00  0.00    +0.000 OA
BRANCH   4   7
ATOM      7  C   UNL     1       2.900   2.649  19.954  0.00  0.00    +0.000 A 
ATOM      8  C   UNL     1       2.503   1.967  18.820  0.00  0.00    +0.000 A 
ATOM      9  N   UNL     1       3.604   1.267  18.417  0.00  0.00    +0.000 N 
ATOM     10  C   UNL     1       4.608   1.518  19.311  0.00  0.00    +0.000 A 
ATOM     11  N   UNL     1       4.217   2.334  20.263  0.00  0.00    +0.000 NA
ATOM     12  H   UNL     1       3.670   0.659  17.612  0.00  0.00    +0.000 HD
ENDBRANCH   4   7
ENDBRANCH   2   4
ENDBRANCH   1   2
BRANCH   1  13
ATOM     13  C   UNL     1       3.038   6.513  18.935  0.00  0.00    +0.000 C 
BRANCH  13  15
ATOM     14  C   UNL     1       2.263   8.851  18.224  0.00  0.00    +0.000 C 
ATOM     15  C   UNL     1       2.393   7.384  17.841  0.00  0.00    +0.000 C 
ENDBRANCH  13  15
BRANCH  13  16
ATOM     16  O   UNL     1       3.480   5.312  18.276  0.00  0.00    +0.000 OA
BRANCH  16  17
ATOM     17  C   UNL     1       4.807   5.130  18.000  0.00  0.00    +0.000 A 
ATOM     18  C   UNL     1       5.663   5.512  19.042  0.00  0.00    +0.000 A 
ATOM     19  C   UNL     1       7.049   5.361  18.926  0.00  0.00    +0.000 A 
ATOM     20  C   UNL     1       7.596   4.812  17.771  0.00  0.00    +0.000 A 
ATOM     21  C   UNL     1       6.756   4.421  16.733  0.00  0.00    +0.000 A 
ATOM     22  C   UNL     1       5.375   4.581  16.849  0.00  0.00    +0.000 A 
ATOM     23  F   UNL     1       4.634   4.159  15.816  0.00  0.00    +0.000 F 
ENDBRANCH  16  17
ENDBRANCH  13  16
ENDBRANCH   1  13
TORSDOF 7
ENDMDL
MODEL 9
REMARK VINA RESULT:      -6.8      3.037      4.999
REMARK  Name = 
REMARK  8 active torsions:
REMARK  status: ('A' for Active; 'I' for Inactive)
REMARK    1  A    between atoms: C_1  and  C_2
REMARK    2  A    between atoms: C_2  and  C_3
REMARK    3  A    between atoms: C_3  and  C_4
REMARK    4  A    between atoms: C_3  and  O_14
REMARK    5  A    between atoms: C_4  and  N_5
REMARK    6  A    between atoms: N_5  and  S_6
REMARK    7  A    between atoms: S_6  and  C_9
REMARK    8  A    between atoms: O_14  and  C_15
REMARK                            x       y       z     vdW  Elec       q    Type
REMARK                         _______ _______ _______ _____ _____    ______ ____
ROOT
ATOM      1  C   UNL     1       4.820   6.649  17.191  0.00  0.00    +0.000 C 
ENDROOT
BRANCH   1   2
ATOM      2  N   UNL     1       5.865   6.297  18.184  0.00  0.00    +0.000 NA
ATOM      3  H   UNL     1       5.553   6.337  19.153  0.00  0.00    +0.000 HD
BRANCH   2   4
ATOM      4  S   UNL     1       6.620   4.806  17.904  0.00  0.00    +0.000 S 
ATOM      5  O   UNL     1       8.008   4.956  18.288  0.00  0.00    +0.000 OA
ATOM      6  O   UNL     1       5.783   3.772  18.466  0.00  0.00    +0.000 OA
BRANCH   4   7
ATOM      7  C   UNL     1       6.644   4.525  16.178  0.00  0.00    +0.000 A 
ATOM      8  C   UNL     1       5.960   3.532  15.504  0.00  0.00    +0.000 A 
ATOM      9  N   UNL     1       6.334   3.660  14.197  0.00  0.00    +0.000 N 
ATOM     10  C   UNL     1       7.233   4.688  14.119  0.00  0.00    +0.000 A 
ATOM     11  N   UNL     1       7.459   5.224  15.297  0.00  0.00    +0.000 NA
ATOM     12  H   UNL     1       6.019   3.092  13.422  0.00  0.00    +0.000 HD
ENDBRANCH   4   7
ENDBRANCH   2   4
ENDBRANCH   1   2
BRANCH   1  13
ATOM     13  C   UNL     1       3.415   6.645  17.820  0.00  0.00    +0.000 C 
BRANCH  13  15
ATOM     14  C   UNL     1       1.708   8.550  17.631  0.00  0.00    +0.000 C 
ATOM     15  C   UNL     1       3.005   8.063  18.263  0.00  0.00    +0.000 C 
ENDBRANCH  13  15
BRANCH  13  16
ATOM     16  O   UNL     1       3.411   5.841  19.013  0.00  0.00    +0.000 OA
BRANCH  16  17
ATOM     17  C   UNL     1       2.595   4.747  19.098  0.00  0.00    +0.000 A 
ATOM     18  C   UNL     1       1.831   4.695  20.271  0.00  0.00    +0.000 A 
ATOM     19  C   UNL     1       0.925   3.653  20.496  0.00  0.00    +0.000 A 
ATOM     20  C   UNL     1       0.759   2.656  19.540  0.00  0.00    +0.000 A 
ATOM     21  C   UNL     1       1.506   2.700  18.366  0.00  0.00    +0.000 A 
ATOM     22  C   UNL     1       2.415   3.737  18.151  0.00  0.00    +0.000 A 
ATOM     23  F   UNL     1       3.078   3.721  16.987  0.00  0.00    +0.000 F 
ENDBRANCH  16  17
ENDBRANCH  13  16
ENDBRANCH   1  13
TORSDOF 7
ENDMDL
