MODEL 1
REMARK VINA RESULT:      -7.2      0.000      0.000
REMARK  Name = 
REMARK  18 active torsions:
REMARK  status: ('A' for Active; 'I' for Inactive)
REMARK    1  A    between atoms: C_1  and  C_2
REMARK    2  A    between atoms: C_2  and  C_3
REMARK    3  A    between atoms: C_3  and  C_4
REMARK    4  A    between atoms: C_4  and  C_5
REMARK    5  A    between atoms: C_5  and  C_6
REMARK    6  A    between atoms: C_6  and  C_7
REMARK    7  A    between atoms: C_7  and  C_8
REMARK    8  A    between atoms: C_8  and  C_9
REMARK    9  A    between atoms: C_9  and  C_10
REMARK   10  A    between atoms: C_10  and  O_11
REMARK   11  A    between atoms: O_11  and  C_12
REMARK   12  A    between atoms: C_15  and  C_16
REMARK   13  A    between atoms: C_16  and  C_17
REMARK   14  A    between atoms: C_17  and  C_18
REMARK   15  A    between atoms: C_18  and  C_20
REMARK   16  A    between atoms: C_21  and  C_22
REMARK   17  A    between atoms: C_22  and  O_24
REMARK   18  A    between atoms: N_25  and  C_26
REMARK                            x       y       z     vdW  Elec       q    Type
REMARK                         _______ _______ _______ _____ _____    ______ ____
ROOT
ATOM      1  C   UNL     1       1.733   8.636  18.766  0.00  0.00    +0.000 C 
ENDROOT
BRANCH   1   5
ATOM      2  C   UNL     1       4.292   5.445  17.230  0.00  0.00    +0.000 A 
ATOM      3  C   UNL     1       3.193   5.148  18.050  0.00  0.00    +0.000 A 
ATOM      4  C   UNL     1       2.327   6.161  18.498  0.00  0.00    +0.000 A 
ATOM      5  C   UNL     1       2.551   7.496  18.199  0.00  0.00    +0.000 A 
ATOM      6  C   UNL     1       3.619   7.782  17.316  0.00  0.00    +0.000 A 
ATOM      7  C   UNL     1       4.474   6.760  16.852  0.00  0.00    +0.000 A 
BRANCH   2   8
ATOM      8  O   UNL     1       5.200   4.490  16.788  0.00  0.00    +0.000 OA
BRANCH   8   9
ATOM      9  C   UNL     1       6.154   4.069  17.778  0.00  0.00    +0.000 C 
BRANCH   9  10
ATOM     10  C   UNL     1       7.539   4.705  17.603  0.00  0.00    +0.000 C 
BRANCH  10  11
ATOM     11  C   UNL     1       7.684   5.931  18.526  0.00  0.00    +0.000 C 
BRANCH  11  12
ATOM     12  C   UNL     1       7.653   7.253  17.754  0.00  0.00    +0.000 C 
BRANCH  12  13
ATOM     13  C   UNL     1       8.435   8.359  18.474  0.00  0.00    +0.000 C 
BRANCH  13  14
ATOM     14  C   UNL     1       8.216   9.719  17.804  0.00  0.00    +0.000 C 
BRANCH  14  15
ATOM     15  C   UNL     1       9.165  10.784  18.360  0.00  0.00    +0.000 C 
BRANCH  15  16
ATOM     16  C   UNL     1       9.621  10.428  19.777  0.00  0.00    +0.000 C 
BRANCH  16  18
ATOM     17  C   UNL     1       8.981  11.938  21.685  0.00  0.00    +0.000 C 
ATOM     18  C   UNL     1       9.989  11.676  20.579  0.00  0.00    +0.000 C 
ENDBRANCH  16  18
ENDBRANCH  15  16
ENDBRANCH  14  15
ENDBRANCH  13  14
ENDBRANCH  12  13
ENDBRANCH  11  12
ENDBRANCH  10  11
ENDBRANCH   9  10
ENDBRANCH   8   9
ENDBRANCH   2   8
ENDBRANCH   1   5
BRANCH   1  19
ATOM     19  C   UNL     1       1.509   9.910  17.955  0.00  0.00    +0.000 C 
BRANCH  19  20
ATOM     20  C   UNL     1       1.344  11.277  18.605  0.00  0.00    +0.000 C 
ATOM     21  O   UNL     1       2.292  12.041  18.326  0.00  0.00    +0.000 OA
BRANCH  20  22
ATOM     22  C   UNL     1       0.390  11.797  19.603  0.00  0.00    +0.000 A 
ATOM     23  C   UNL     1      -0.708  12.444  19.002  0.00  0.00    +0.000 A 
ATOM     24  N   UNL     1      -0.796  13.544  19.849  0.00  0.00    +0.000 N 
ATOM     25  C   UNL     1       0.141  14.667  19.964  0.00  0.00    +0.000 C 
ATOM     26  C   UNL     1      -1.082  12.887  21.026  0.00  0.00    +0.000 A 
ATOM     27  C   UNL     1      -1.938  13.276  22.049  0.00  0.00    +0.000 A 
ATOM     28  C   UNL     1      -2.112  12.332  23.042  0.00  0.00    +0.000 A 
ATOM     29  C   UNL     1      -1.383  11.150  23.018  0.00  0.00    +0.000 A 
ATOM     30  C   UNL     1      -0.416  10.837  22.019  0.00  0.00    +0.000 A 
ATOM     31  C   UNL     1      -0.254  11.726  20.929  0.00  0.00    +0.000 A 
BRANCH  23  32
ATOM     32  C   UNL     1      -1.759  11.545  18.478  0.00  0.00    +0.000 C 
ATOM     33  O   UNL     1      -1.836  10.358  18.744  0.00  0.00    +0.000 OA
BRANCH  32  34
ATOM     34  O   UNL     1      -2.733  12.151  17.782  0.00  0.00    +0.000 OA
ATOM     35  H   UNL     1      -3.394  12.583  18.367  0.00  0.00    +0.000 HD
ENDBRANCH  32  34
ENDBRANCH  23  32
ENDBRANCH  20  22
ENDBRANCH  19  20
ENDBRANCH   1  19
TORSDOF 16
ENDMDL
MODEL 2
REMARK VINA RESULT:      -7.0      4.122     10.487
REMARK  Name = 
REMARK  18 active torsions:
REMARK  status: ('A' for Active; 'I' for Inactive)
REMARK    1  A    between atoms: C_1  and  C_2
REMARK    2  A    between atoms: C_2  and  C_3
REMARK    3  A    between atoms: C_3  and  C_4
REMARK    4  A    between atoms: C_4  and  C_5
REMARK    5  A    between atoms: C_5  and  C_6
REMARK    6  A    between atoms: C_6  and  C_7
REMARK    7  A    between atoms: C_7  and  C_8
REMARK    8  A    between atoms: C_8  and  C_9
REMARK    9  A    between atoms: C_9  and  C_10
REMARK   10  A    between atoms: C_10  and  O_11
REMARK   11  A    between atoms: O_11  and  C_12
REMARK   12  A    between atoms: C_15  and  C_16
REMARK   13  A    between atoms: C_16  and  C_17
REMARK   14  A    between atoms: C_17  and  C_18
REMARK   15  A    between atoms: C_18  and  C_20
REMARK   16  A    between atoms: C_21  and  C_22
REMARK   17  A    between atoms: C_22  and  O_24
REMARK   18  A    between atoms: N_25  and  C_26
REMARK                            x       y       z     vdW  Elec       q    Type
REMARK                         _______ _______ _______ _____ _____    ______ ____
ROOT
ATOM      1  C   UNL     1       1.611   8.030  20.542  0.00  0.00    +0.000 C 
ENDROOT
BRANCH   1   5
ATOM      2  C   UNL     1      -0.602  11.291  22.427  0.00  0.00    +0.000 A 
ATOM      3  C   UNL     1      -0.531  10.029  23.036  0.00  0.00    +0.000 A 
ATOM      4  C   UNL     1       0.230   8.992  22.470  0.00  0.00    +0.000 A 
ATOM      5  C   UNL     1       0.893   9.151  21.263  0.00  0.00    +0.000 A 
ATOM      6  C   UNL     1       0.875  10.444  20.689  0.00  0.00    +0.000 A 
ATOM      7  C   UNL     1       0.126  11.488  21.272  0.00  0.00    +0.000 A 
BRANCH   2   8
ATOM      8  O   UNL     1      -1.367  12.340  22.924  0.00  0.00    +0.000 OA
BRANCH   8   9
ATOM      9  C   UNL     1      -2.785  12.191  22.730  0.00  0.00    +0.000 C 
BRANCH   9  10
ATOM     10  C   UNL     1      -3.279  12.729  21.381  0.00  0.00    +0.000 C 
BRANCH  10  11
ATOM     11  C   UNL     1      -4.815  12.637  21.299  0.00  0.00    +0.000 C 
BRANCH  11  12
ATOM     12  C   UNL     1      -5.342  12.895  19.885  0.00  0.00    +0.000 C 
BRANCH  12  13
ATOM     13  C   UNL     1      -6.337  11.817  19.436  0.00  0.00    +0.000 C 
BRANCH  13  14
ATOM     14  C   UNL     1      -5.997  11.296  18.037  0.00  0.00    +0.000 C 
BRANCH  14  15
ATOM     15  C   UNL     1      -4.599  10.674  17.988  0.00  0.00    +0.000 C 
BRANCH  15  16
ATOM     16  C   UNL     1      -3.767  11.280  16.855  0.00  0.00    +0.000 C 
BRANCH  16  18
ATOM     17  C   UNL     1      -1.923  10.242  18.217  0.00  0.00    +0.000 C 
ATOM     18  C   UNL     1      -2.281  11.323  17.210  0.00  0.00    +0.000 C 
ENDBRANCH  16  18
ENDBRANCH  15  16
ENDBRANCH  14  15
ENDBRANCH  13  14
ENDBRANCH  12  13
ENDBRANCH  11  12
ENDBRANCH  10  11
ENDBRANCH   9  10
ENDBRANCH   8   9
ENDBRANCH   2   8
ENDBRANCH   1   5
BRANCH   1  19
ATOM     19  C   UNL     1       1.182   6.578  20.742  0.00  0.00    +0.000 C 
BRANCH  19  20
ATOM     20  C   UNL     1       2.073   5.402  20.365  0.00  0.00    +0.000 C 
ATOM     21  O   UNL     1       2.040   4.499  21.228  0.00  0.00    +0.000 OA
BRANCH  20  22
ATOM     22  C   UNL     1       3.062   5.206  19.288  0.00  0.00    +0.000 A 
ATOM     23  C   UNL     1       3.023   3.900  18.761  0.00  0.00    +0.000 A 
ATOM     24  N   UNL     1       4.391   3.668  18.666  0.00  0.00    +0.000 N 
ATOM     25  C   UNL     1       5.349   3.481  19.761  0.00  0.00    +0.000 C 
ATOM     26  C   UNL     1       4.713   4.651  17.756  0.00  0.00    +0.000 A 
ATOM     27  C   UNL     1       5.633   4.601  16.717  0.00  0.00    +0.000 A 
ATOM     28  C   UNL     1       5.632   5.711  15.895  0.00  0.00    +0.000 A 
ATOM     29  C   UNL     1       4.825   6.802  16.195  0.00  0.00    +0.000 A 
ATOM     30  C   UNL     1       3.985   6.873  17.344  0.00  0.00    +0.000 A 
ATOM     31  C   UNL     1       3.879   5.733  18.178  0.00  0.00    +0.000 A 
BRANCH  23  32
ATOM     32  C   UNL     1       1.932   3.643  17.795  0.00  0.00    +0.000 C 
ATOM     33  O   UNL     1       1.132   4.487  17.430  0.00  0.00    +0.000 OA
BRANCH  32  34
ATOM     34  O   UNL     1       1.953   2.432  17.220  0.00  0.00    +0.000 OA
ATOM     35  H   UNL     1       1.718   2.468  16.267  0.00  0.00    +0.000 HD
ENDBRANCH  32  34
ENDBRANCH  23  32
ENDBRANCH  20  22
ENDBRANCH  19  20
ENDBRANCH   1  19
TORSDOF 16
ENDMDL
MODEL 3
REMARK VINA RESULT:      -7.0      5.478      9.177
REMARK  Name = 
REMARK  18 active torsions:
REMARK  status: ('A' for Active; 'I' for Inactive)
REMARK    1  A    between atoms: C_1  and  C_2
REMARK    2  A    between atoms: C_2  and  C_3
REMARK    3  A    between atoms: C_3  and  C_4
REMARK    4  A    between atoms: C_4  and  C_5
REMARK    5  A    between atoms: C_5  and  C_6
REMARK    6  A    between atoms: C_6  and  C_7
REMARK    7  A    between atoms: C_7  and  C_8
REMARK    8  A    between atoms: C_8  and  C_9
REMARK    9  A    between atoms: C_9  and  C_10
REMARK   10  A    between atoms: C_10  and  O_11
REMARK   11  A    between atoms: O_11  and  C_12
REMARK   12  A    between atoms: C_15  and  C_16
REMARK   13  A    between atoms: C_16  and  C_17
REMARK   14  A    between atoms: C_17  and  C_18
REMARK   15  A    between atoms: C_18  and  C_20
REMARK   16  A    between atoms: C_21  and  C_22
REMARK   17  A    between atoms: C_22  and  O_24
REMARK   18  A    between atoms: N_25  and  C_26
REMARK                            x       y       z     vdW  Elec       q    Type
REMARK                         _______ _______ _______ _____ _____    ______ ____
ROOT
ATOM      1  C   UNL     1       8.898   9.504  18.844  0.00  0.00    +0.000 C 
ENDROOT
BRANCH   1   5
ATOM      2  C   UNL     1       7.250   5.619  17.713  0.00  0.00    +0.000 A 
ATOM      3  C   UNL     1       7.941   5.778  18.924  0.00  0.00    +0.000 A 
ATOM      4  C   UNL     1       8.420   7.037  19.326  0.00  0.00    +0.000 A 
ATOM      5  C   UNL     1       8.283   8.159  18.524  0.00  0.00    +0.000 A 
ATOM      6  C   UNL     1       7.527   8.007  17.338  0.00  0.00    +0.000 A 
ATOM      7  C   UNL     1       7.030   6.746  16.948  0.00  0.00    +0.000 A 
BRANCH   2   8
ATOM      8  O   UNL     1       6.786   4.394  17.250  0.00  0.00    +0.000 OA
BRANCH   8   9
ATOM      9  C   UNL     1       5.356   4.247  17.272  0.00  0.00    +0.000 C 
BRANCH   9  10
ATOM     10  C   UNL     1       4.860   3.231  18.309  0.00  0.00    +0.000 C 
BRANCH  10  11
ATOM     11  C   UNL     1       3.409   2.814  17.999  0.00  0.00    +0.000 C 
BRANCH  11  12
ATOM     12  C   UNL     1       2.688   3.826  17.105  0.00  0.00    +0.000 C 
BRANCH  12  13
ATOM     13  C   UNL     1       1.696   4.689  17.897  0.00  0.00    +0.000 C 
BRANCH  13  14
ATOM     14  C   UNL     1       2.403   5.868  18.572  0.00  0.00    +0.000 C 
BRANCH  14  15
ATOM     15  C   UNL     1       2.077   5.944  20.066  0.00  0.00    +0.000 C 
BRANCH  15  16
ATOM     16  C   UNL     1       1.305   4.704  20.524  0.00  0.00    +0.000 C 
BRANCH  16  18
ATOM     17  C   UNL     1       1.451   2.494  21.720  0.00  0.00    +0.000 C 
ATOM     18  C   UNL     1       2.172   3.792  21.393  0.00  0.00    +0.000 C 
ENDBRANCH  16  18
ENDBRANCH  15  16
ENDBRANCH  14  15
ENDBRANCH  13  14
ENDBRANCH  12  13
ENDBRANCH  11  12
ENDBRANCH  10  11
ENDBRANCH   9  10
ENDBRANCH   8   9
ENDBRANCH   2   8
ENDBRANCH   1   5
BRANCH   1  19
ATOM     19  C   UNL     1       8.757  10.673  17.872  0.00  0.00    +0.000 C 
BRANCH  19  20
ATOM     20  C   UNL     1       9.791  11.787  17.775  0.00  0.00    +0.000 C 
ATOM     21  O   UNL     1      10.955  11.336  17.711  0.00  0.00    +0.000 OA
BRANCH  20  22
ATOM     22  C   UNL     1       9.691  13.253  17.904  0.00  0.00    +0.000 A 
ATOM     23  C   UNL     1       9.108  13.641  19.126  0.00  0.00    +0.000 A 
ATOM     24  N   UNL     1       8.274  14.650  18.653  0.00  0.00    +0.000 N 
ATOM     25  C   UNL     1       7.075  14.509  17.822  0.00  0.00    +0.000 C 
ATOM     26  C   UNL     1       9.234  15.512  18.169  0.00  0.00    +0.000 A 
ATOM     27  C   UNL     1       9.250  16.900  18.207  0.00  0.00    +0.000 A 
ATOM     28  C   UNL     1      10.421  17.474  17.752  0.00  0.00    +0.000 A 
ATOM     29  C   UNL     1      11.426  16.679  17.216  0.00  0.00    +0.000 A 
ATOM     30  C   UNL     1      11.325  15.265  17.073  0.00  0.00    +0.000 A 
ATOM     31  C   UNL     1      10.186  14.610  17.598  0.00  0.00    +0.000 A 
BRANCH  23  32
ATOM     32  C   UNL     1      10.014  13.608  20.295  0.00  0.00    +0.000 C 
ATOM     33  O   UNL     1      10.728  14.537  20.630  0.00  0.00    +0.000 OA
BRANCH  32  34
ATOM     34  O   UNL     1       9.903  12.521  21.072  0.00  0.00    +0.000 OA
ATOM     35  H   UNL     1       9.390  12.699  21.891  0.00  0.00    +0.000 HD
ENDBRANCH  32  34
ENDBRANCH  23  32
ENDBRANCH  20  22
ENDBRANCH  19  20
ENDBRANCH   1  19
TORSDOF 16
ENDMDL
MODEL 4
REMARK VINA RESULT:      -7.0      3.777      9.345
REMARK  Name = 
REMARK  18 active torsions:
REMARK  status: ('A' for Active; 'I' for Inactive)
REMARK    1  A    between atoms: C_1  and  C_2
REMARK    2  A    between atoms: C_2  and  C_3
REMARK    3  A    between atoms: C_3  and  C_4
REMARK    4  A    between atoms: C_4  and  C_5
REMARK    5  A    between atoms: C_5  and  C_6
REMARK    6  A    between atoms: C_6  and  C_7
REMARK    7  A    between atoms: C_7  and  C_8
REMARK    8  A    between atoms: C_8  and  C_9
REMARK    9  A    between atoms: C_9  and  C_10
REMARK   10  A    between atoms: C_10  and  O_11
REMARK   11  A    between atoms: O_11  and  C_12
REMARK   12  A    between atoms: C_15  and  C_16
REMARK   13  A    between atoms: C_16  and  C_17
REMARK   14  A    between atoms: C_17  and  C_18
REMARK   15  A    between atoms: C_18  and  C_20
REMARK   16  A    between atoms: C_21  and  C_22
REMARK   17  A    between atoms: C_22  and  O_24
REMARK   18  A    between atoms: N_25  and  C_26
REMARK                            x       y       z     vdW  Elec       q    Type
REMARK                         _______ _______ _______ _____ _____    ______ ____
ROOT
ATOM      1  C   UNL     1       1.364   8.625  17.989  0.00  0.00    +0.000 C 
ENDROOT
BRANCH   1   5
ATOM      2  C   UNL     1      -0.136  12.698  18.484  0.00  0.00    +0.000 A 
ATOM      3  C   UNL     1      -1.024  11.614  18.401  0.00  0.00    +0.000 A 
ATOM      4  C   UNL     1      -0.550  10.293  18.306  0.00  0.00    +0.000 A 
ATOM      5  C   UNL     1       0.805  10.010  18.231  0.00  0.00    +0.000 A 
ATOM      6  C   UNL     1       1.695  11.099  18.383  0.00  0.00    +0.000 A 
ATOM      7  C   UNL     1       1.215  12.420  18.500  0.00  0.00    +0.000 A 
BRANCH   2   8
ATOM      8  O   UNL     1      -0.549  14.023  18.544  0.00  0.00    +0.000 OA
BRANCH   8   9
ATOM      9  C   UNL     1       0.451  14.941  19.021  0.00  0.00    +0.000 C 
BRANCH   9  10
ATOM     10  C   UNL     1       0.137  15.524  20.404  0.00  0.00    +0.000 C 
BRANCH  10  11
ATOM     11  C   UNL     1      -1.371  15.409  20.705  0.00  0.00    +0.000 C 
BRANCH  11  12
ATOM     12  C   UNL     1      -1.686  14.289  21.699  0.00  0.00    +0.000 C 
BRANCH  12  13
ATOM     13  C   UNL     1      -0.422  13.763  22.392  0.00  0.00    +0.000 C 
BRANCH  13  14
ATOM     14  C   UNL     1      -0.111  12.326  21.963  0.00  0.00    +0.000 C 
BRANCH  14  15
ATOM     15  C   UNL     1      -1.308  11.397  22.183  0.00  0.00    +0.000 C 
BRANCH  15  16
ATOM     16  C   UNL     1      -0.978  10.305  23.204  0.00  0.00    +0.000 C 
BRANCH  16  18
ATOM     17  C   UNL     1      -0.061   8.613  21.581  0.00  0.00    +0.000 C 
ATOM     18  C   UNL     1       0.247   9.494  22.781  0.00  0.00    +0.000 C 
ENDBRANCH  16  18
ENDBRANCH  15  16
ENDBRANCH  14  15
ENDBRANCH  13  14
ENDBRANCH  12  13
ENDBRANCH  11  12
ENDBRANCH  10  11
ENDBRANCH   9  10
ENDBRANCH   8   9
ENDBRANCH   2   8
ENDBRANCH   1   5
BRANCH   1  19
ATOM     19  C   UNL     1       2.867   8.412  17.821  0.00  0.00    +0.000 C 
BRANCH  19  20
ATOM     20  C   UNL     1       3.486   7.029  17.672  0.00  0.00    +0.000 C 
ATOM     21  O   UNL     1       4.257   6.968  16.690  0.00  0.00    +0.000 OA
BRANCH  20  22
ATOM     22  C   UNL     1       3.230   5.744  18.350  0.00  0.00    +0.000 A 
ATOM     23  C   UNL     1       4.213   4.780  18.052  0.00  0.00    +0.000 A 
ATOM     24  N   UNL     1       3.381   3.679  17.867  0.00  0.00    +0.000 N 
ATOM     25  C   UNL     1       2.437   3.441  16.771  0.00  0.00    +0.000 C 
ATOM     26  C   UNL     1       2.852   3.595  19.136  0.00  0.00    +0.000 A 
ATOM     27  C   UNL     1       2.546   2.457  19.873  0.00  0.00    +0.000 A 
ATOM     28  C   UNL     1       2.148   2.704  21.172  0.00  0.00    +0.000 A 
ATOM     29  C   UNL     1       1.988   4.010  21.618  0.00  0.00    +0.000 A 
ATOM     30  C   UNL     1       2.187   5.157  20.795  0.00  0.00    +0.000 A 
ATOM     31  C   UNL     1       2.676   4.971  19.480  0.00  0.00    +0.000 A 
BRANCH  23  32
ATOM     32  C   UNL     1       5.478   4.916  18.806  0.00  0.00    +0.000 C 
ATOM     33  O   UNL     1       5.884   4.095  19.611  0.00  0.00    +0.000 OA
BRANCH  32  34
ATOM     34  O   UNL     1       6.248   5.953  18.446  0.00  0.00    +0.000 OA
ATOM     35  H   UNL     1       6.427   6.562  19.196  0.00  0.00    +0.000 HD
ENDBRANCH  32  34
ENDBRANCH  23  32
ENDBRANCH  20  22
ENDBRANCH  19  20
ENDBRANCH   1  19
TORSDOF 16
ENDMDL
MODEL 5
REMARK VINA RESULT:      -7.0      3.440      5.695
REMARK  Name = 
REMARK  18 active torsions:
REMARK  status: ('A' for Active; 'I' for Inactive)
REMARK    1  A    between atoms: C_1  and  C_2
REMARK    2  A    between atoms: C_2  and  C_3
REMARK    3  A    between atoms: C_3  and  C_4
REMARK    4  A    between atoms: C_4  and  C_5
REMARK    5  A    between atoms: C_5  and  C_6
REMARK    6  A    between atoms: C_6  and  C_7
REMARK    7  A    between atoms: C_7  and  C_8
REMARK    8  A    between atoms: C_8  and  C_9
REMARK    9  A    between atoms: C_9  and  C_10
REMARK   10  A    between atoms: C_10  and  O_11
REMARK   11  A    between atoms: O_11  and  C_12
REMARK   12  A    between atoms: C_15  and  C_16
REMARK   13  A    between atoms: C_16  and  C_17
REMARK   14  A    between atoms: C_17  and  C_18
REMARK   15  A    between atoms: C_18  and  C_20
REMARK   16  A    between atoms: C_21  and  C_22
REMARK   17  A    between atoms: C_22  and  O_24
REMARK   18  A    between atoms: N_25  and  C_26
REMARK                            x       y       z     vdW  Elec       q    Type
REMARK                         _______ _______ _______ _____ _____    ______ ____
ROOT
ATOM      1  C   UNL     1       1.293  10.216  18.230  0.00  0.00    +0.000 C 
ENDROOT
BRANCH   1   5
ATOM      2  C   UNL     1       2.422   6.277  19.746  0.00  0.00    +0.000 A 
ATOM      3  C   UNL     1       2.785   6.676  18.450  0.00  0.00    +0.000 A 
ATOM      4  C   UNL     1       2.481   7.964  17.976  0.00  0.00    +0.000 A 
ATOM      5  C   UNL     1       1.764   8.871  18.740  0.00  0.00    +0.000 A 
ATOM      6  C   UNL     1       1.462   8.489  20.068  0.00  0.00    +0.000 A 
ATOM      7  C   UNL     1       1.787   7.203  20.547  0.00  0.00    +0.000 A 
BRANCH   2   8
ATOM      8  O   UNL     1       2.665   5.006  20.253  0.00  0.00    +0.000 OA
BRANCH   8   9
ATOM      9  C   UNL     1       1.556   4.420  20.956  0.00  0.00    +0.000 C 
BRANCH   9  10
ATOM     10  C   UNL     1       1.080   3.093  20.352  0.00  0.00    +0.000 C 
BRANCH  10  11
ATOM     11  C   UNL     1       1.047   3.186  18.814  0.00  0.00    +0.000 C 
BRANCH  11  12
ATOM     12  C   UNL     1       2.083   2.275  18.150  0.00  0.00    +0.000 C 
BRANCH  12  13
ATOM     13  C   UNL     1       3.052   3.061  17.257  0.00  0.00    +0.000 C 
BRANCH  13  14
ATOM     14  C   UNL     1       4.360   3.367  17.993  0.00  0.00    +0.000 C 
BRANCH  14  15
ATOM     15  C   UNL     1       5.463   3.811  17.028  0.00  0.00    +0.000 C 
BRANCH  15  16
ATOM     16  C   UNL     1       4.869   4.465  15.778  0.00  0.00    +0.000 C 
BRANCH  16  18
ATOM     17  C   UNL     1       6.779   4.809  14.175  0.00  0.00    +0.000 C 
ATOM     18  C   UNL     1       5.835   5.477  15.161  0.00  0.00    +0.000 C 
ENDBRANCH  16  18
ENDBRANCH  15  16
ENDBRANCH  14  15
ENDBRANCH  13  14
ENDBRANCH  12  13
ENDBRANCH  11  12
ENDBRANCH  10  11
ENDBRANCH   9  10
ENDBRANCH   8   9
ENDBRANCH   2   8
ENDBRANCH   1   5
BRANCH   1  19
ATOM     19  C   UNL     1       0.038  10.869  18.807  0.00  0.00    +0.000 C 
BRANCH  19  20
ATOM     20  C   UNL     1      -0.218  12.367  18.721  0.00  0.00    +0.000 C 
ATOM     21  O   UNL     1      -1.392  12.618  18.372  0.00  0.00    +0.000 OA
BRANCH  20  22
ATOM     22  C   UNL     1       0.675  13.538  18.809  0.00  0.00    +0.000 A 
ATOM     23  C   UNL     1       0.497  14.253  20.010  0.00  0.00    +0.000 A 
ATOM     24  N   UNL     1       0.535  15.545  19.495  0.00  0.00    +0.000 N 
ATOM     25  C   UNL     1      -0.462  16.204  18.646  0.00  0.00    +0.000 C 
ATOM     26  C   UNL     1       1.823  15.544  19.006  0.00  0.00    +0.000 A 
ATOM     27  C   UNL     1       2.752  16.577  19.008  0.00  0.00    +0.000 A 
ATOM     28  C   UNL     1       4.009  16.221  18.560  0.00  0.00    +0.000 A 
ATOM     29  C   UNL     1       4.238  14.944  18.063  0.00  0.00    +0.000 A 
ATOM     30  C   UNL     1       3.228  13.944  17.955  0.00  0.00    +0.000 A 
ATOM     31  C   UNL     1       1.941  14.221  18.477  0.00  0.00    +0.000 A 
BRANCH  23  32
ATOM     32  C   UNL     1       1.160  13.668  21.196  0.00  0.00    +0.000 C 
ATOM     33  O   UNL     1       1.879  12.684  21.159  0.00  0.00    +0.000 OA
BRANCH  32  34
ATOM     34  O   UNL     1       1.037  14.378  22.327  0.00  0.00    +0.000 OA
ATOM     35  H   UNL     1       1.881  14.804  22.593  0.00  0.00    +0.000 HD
ENDBRANCH  32  34
ENDBRANCH  23  32
ENDBRANCH  20  22
ENDBRANCH  19  20
ENDBRANCH   1  19
TORSDOF 16
ENDMDL
MODEL 6
REMARK VINA RESULT:      -6.9      2.361      3.719
REMARK  Name = 
REMARK  18 active torsions:
REMARK  status: ('A' for Active; 'I' for Inactive)
REMARK    1  A    between atoms: C_1  and  C_2
REMARK    2  A    between atoms: C_2  and  C_3
REMARK    3  A    between atoms: C_3  and  C_4
REMARK    4  A    between atoms: C_4  and  C_5
REMARK    5  A    between atoms: C_5  and  C_6
REMARK    6  A    between atoms: C_6  and  C_7
REMARK    7  A    between atoms: C_7  and  C_8
REMARK    8  A    between atoms: C_8  and  C_9
REMARK    9  A    between atoms: C_9  and  C_10
REMARK   10  A    between atoms: C_10  and  O_11
REMARK   11  A    between atoms: O_11  and  C_12
REMARK   12  A    between atoms: C_15  and  C_16
REMARK   13  A    between atoms: C_16  and  C_17
REMARK   14  A    between atoms: C_17  and  C_18
REMARK   15  A    between atoms: C_18  and  C_20
REMARK   16  A    between atoms: C_21  and  C_22
REMARK   17  A    between atoms: C_22  and  O_24
REMARK   18  A    between atoms: N_25  and  C_26
REMARK                            x       y       z     vdW  Elec       q    Type
REMARK                         _______ _______ _______ _____ _____    ______ ____
ROOT
ATOM      1  C   UNL     1       1.653   9.629  17.777  0.00  0.00    +0.000 C 
ENDROOT
BRANCH   1   5
ATOM      2  C   UNL     1       2.713   5.942  19.867  0.00  0.00    +0.000 A 
ATOM      3  C   UNL     1       3.339   6.284  18.658  0.00  0.00    +0.000 A 
ATOM      4  C   UNL     1       3.051   7.499  18.011  0.00  0.00    +0.000 A 
ATOM      5  C   UNL     1       2.100   8.379  18.503  0.00  0.00    +0.000 A 
ATOM      6  C   UNL     1       1.523   8.061  19.755  0.00  0.00    +0.000 A 
ATOM      7  C   UNL     1       1.830   6.851  20.412  0.00  0.00    +0.000 A 
BRANCH   2   8
ATOM      8  O   UNL     1       2.933   4.741  20.531  0.00  0.00    +0.000 OA
BRANCH   8   9
ATOM      9  C   UNL     1       2.170   3.630  20.027  0.00  0.00    +0.000 C 
BRANCH   9  10
ATOM     10  C   UNL     1       3.007   2.628  19.222  0.00  0.00    +0.000 C 
BRANCH  10  11
ATOM     11  C   UNL     1       2.725   2.785  17.714  0.00  0.00    +0.000 C 
BRANCH  11  12
ATOM     12  C   UNL     1       3.994   2.665  16.866  0.00  0.00    +0.000 C 
BRANCH  12  13
ATOM     13  C   UNL     1       4.603   4.037  16.546  0.00  0.00    +0.000 C 
BRANCH  13  14
ATOM     14  C   UNL     1       5.824   3.902  15.631  0.00  0.00    +0.000 C 
BRANCH  14  15
ATOM     15  C   UNL     1       6.954   4.845  16.051  0.00  0.00    +0.000 C 
BRANCH  15  16
ATOM     16  C   UNL     1       7.217   4.753  17.556  0.00  0.00    +0.000 C 
BRANCH  16  18
ATOM     17  C   UNL     1       7.020   7.260  17.465  0.00  0.00    +0.000 C 
ATOM     18  C   UNL     1       7.721   6.081  18.121  0.00  0.00    +0.000 C 
ENDBRANCH  16  18
ENDBRANCH  15  16
ENDBRANCH  14  15
ENDBRANCH  13  14
ENDBRANCH  12  13
ENDBRANCH  11  12
ENDBRANCH  10  11
ENDBRANCH   9  10
ENDBRANCH   8   9
ENDBRANCH   2   8
ENDBRANCH   1   5
BRANCH   1  19
ATOM     19  C   UNL     1       2.409  10.944  17.957  0.00  0.00    +0.000 C 
BRANCH  19  20
ATOM     20  C   UNL     1       1.812  12.138  18.689  0.00  0.00    +0.000 C 
ATOM     21  O   UNL     1       2.273  13.220  18.265  0.00  0.00    +0.000 OA
BRANCH  20  22
ATOM     22  C   UNL     1       0.944  12.247  19.876  0.00  0.00    +0.000 A 
ATOM     23  C   UNL     1      -0.066  13.215  19.710  0.00  0.00    +0.000 A 
ATOM     24  N   UNL     1      -0.002  13.808  20.967  0.00  0.00    +0.000 N 
ATOM     25  C   UNL     1       1.074  14.641  21.514  0.00  0.00    +0.000 C 
ATOM     26  C   UNL     1      -0.360  12.721  21.735  0.00  0.00    +0.000 A 
ATOM     27  C   UNL     1      -1.148  12.691  22.878  0.00  0.00    +0.000 A 
ATOM     28  C   UNL     1      -1.434  11.423  23.346  0.00  0.00    +0.000 A 
ATOM     29  C   UNL     1      -0.866  10.310  22.739  0.00  0.00    +0.000 A 
ATOM     30  C   UNL     1       0.043  10.384  21.644  0.00  0.00    +0.000 A 
ATOM     31  C   UNL     1       0.308  11.648  21.067  0.00  0.00    +0.000 A 
BRANCH  23  32
ATOM     32  C   UNL     1      -1.230  12.779  18.908  0.00  0.00    +0.000 C 
ATOM     33  O   UNL     1      -2.378  12.775  19.319  0.00  0.00    +0.000 OA
BRANCH  32  34
ATOM     34  O   UNL     1      -0.968  12.512  17.620  0.00  0.00    +0.000 OA
ATOM     35  H   UNL     1      -1.420  13.136  17.011  0.00  0.00    +0.000 HD
ENDBRANCH  32  34
ENDBRANCH  23  32
ENDBRANCH  20  22
ENDBRANCH  19  20
ENDBRANCH   1  19
TORSDOF 16
ENDMDL
MODEL 7
REMARK VINA RESULT:      -6.9      3.253      5.225
REMARK  Name = 
REMARK  18 active torsions:
REMARK  status: ('A' for Active; 'I' for Inactive)
REMARK    1  A    between atoms: C_1  and  C_2
REMARK    2  A    between atoms: C_2  and  C_3
REMARK    3  A    between atoms: C_3  and  C_4
REMARK    4  A    between atoms: C_4  and  C_5
REMARK    5  A    between atoms: C_5  and  C_6
REMARK    6  A    between atoms: C_6  and  C_7
REMARK    7  A    between atoms: C_7  and  C_8
REMARK    8  A    between atoms: C_8  and  C_9
REMARK    9  A    between atoms: C_9  and  C_10
REMARK   10  A    between atoms: C_10  and  O_11
REMARK   11  A    between atoms: O_11  and  C_12
REMARK   12  A    between atoms: C_15  and  C_16
REMARK   13  A    between atoms: C_16  and  C_17
REMARK   14  A    between atoms: C_17  and  C_18
REMARK   15  A    between atoms: C_18  and  C_20
REMARK   16  A    between atoms: C_21  and  C_22
REMARK   17  A    between atoms: C_22  and  O_24
REMARK   18  A    between atoms: N_25  and  C_26
REMARK                            x       y       z     vdW  Elec       q    Type
REMARK                         _______ _______ _______ _____ _____    ______ ____
ROOT
ATOM      1  C   UNL     1       0.785   9.440  18.997  0.00  0.00    +0.000 C 
ENDROOT
BRANCH   1   5
ATOM      2  C   UNL     1       4.101   6.723  18.151  0.00  0.00    +0.000 A 
ATOM      3  C   UNL     1       3.312   6.553  19.299  0.00  0.00    +0.000 A 
ATOM      4  C   UNL     1       2.204   7.383  19.548  0.00  0.00    +0.000 A 
ATOM      5  C   UNL     1       1.879   8.435  18.706  0.00  0.00    +0.000 A 
ATOM      6  C   UNL     1       2.635   8.559  17.517  0.00  0.00    +0.000 A 
ATOM      7  C   UNL     1       3.733   7.711  17.261  0.00  0.00    +0.000 A 
BRANCH   2   8
ATOM      8  O   UNL     1       5.227   5.957  17.874  0.00  0.00    +0.000 OA
BRANCH   8   9
ATOM      9  C   UNL     1       5.310   5.484  16.519  0.00  0.00    +0.000 C 
BRANCH   9  10
ATOM     10  C   UNL     1       4.804   4.048  16.338  0.00  0.00    +0.000 C 
BRANCH  10  11
ATOM     11  C   UNL     1       4.729   3.331  17.701  0.00  0.00    +0.000 C 
BRANCH  11  12
ATOM     12  C   UNL     1       3.431   2.538  17.875  0.00  0.00    +0.000 C 
BRANCH  12  13
ATOM     13  C   UNL     1       2.263   3.172  17.109  0.00  0.00    +0.000 C 
BRANCH  13  14
ATOM     14  C   UNL     1       1.278   3.854  18.064  0.00  0.00    +0.000 C 
BRANCH  14  15
ATOM     15  C   UNL     1       1.107   3.061  19.362  0.00  0.00    +0.000 C 
BRANCH  15  16
ATOM     16  C   UNL     1       0.957   3.999  20.563  0.00  0.00    +0.000 C 
BRANCH  16  18
ATOM     17  C   UNL     1       2.720   2.438  21.450  0.00  0.00    +0.000 C 
ATOM     18  C   UNL     1       2.101   3.822  21.561  0.00  0.00    +0.000 C 
ENDBRANCH  16  18
ENDBRANCH  15  16
ENDBRANCH  14  15
ENDBRANCH  13  14
ENDBRANCH  12  13
ENDBRANCH  11  12
ENDBRANCH  10  11
ENDBRANCH   9  10
ENDBRANCH   8   9
ENDBRANCH   2   8
ENDBRANCH   1   5
BRANCH   1  19
ATOM     19  C   UNL     1       1.066  10.939  18.915  0.00  0.00    +0.000 C 
BRANCH  19  20
ATOM     20  C   UNL     1       0.056  11.986  19.363  0.00  0.00    +0.000 C 
ATOM     21  O   UNL     1       0.101  13.011  18.648  0.00  0.00    +0.000 OA
BRANCH  20  22
ATOM     22  C   UNL     1      -0.823  12.082  20.543  0.00  0.00    +0.000 A 
ATOM     23  C   UNL     1      -0.109  12.408  21.713  0.00  0.00    +0.000 A 
ATOM     24  N   UNL     1      -0.730  11.528  22.594  0.00  0.00    +0.000 N 
ATOM     25  C   UNL     1      -0.629  10.065  22.623  0.00  0.00    +0.000 C 
ATOM     26  C   UNL     1      -2.010  12.034  22.536  0.00  0.00    +0.000 A 
ATOM     27  C   UNL     1      -2.939  12.160  23.561  0.00  0.00    +0.000 A 
ATOM     28  C   UNL     1      -4.094  12.831  23.210  0.00  0.00    +0.000 A 
ATOM     29  C   UNL     1      -4.297  13.234  21.897  0.00  0.00    +0.000 A 
ATOM     30  C   UNL     1      -3.378  12.975  20.839  0.00  0.00    +0.000 A 
ATOM     31  C   UNL     1      -2.138  12.367  21.151  0.00  0.00    +0.000 A 
BRANCH  23  32
ATOM     32  C   UNL     1       0.235  13.839  21.863  0.00  0.00    +0.000 C 
ATOM     33  O   UNL     1      -0.045  14.509  22.842  0.00  0.00    +0.000 OA
BRANCH  32  34
ATOM     34  O   UNL     1       1.016  14.342  20.896  0.00  0.00    +0.000 OA
ATOM     35  H   UNL     1       0.499  14.630  20.111  0.00  0.00    +0.000 HD
ENDBRANCH  32  34
ENDBRANCH  23  32
ENDBRANCH  20  22
ENDBRANCH  19  20
ENDBRANCH   1  19
TORSDOF 16
ENDMDL
MODEL 8
REMARK VINA RESULT:      -6.9      2.634      4.939
REMARK  Name = 
REMARK  18 active torsions:
REMARK  status: ('A' for Active; 'I' for Inactive)
REMARK    1  A    between atoms: C_1  and  C_2
REMARK    2  A    between atoms: C_2  and  C_3
REMARK    3  A    between atoms: C_3  and  C_4
REMARK    4  A    between atoms: C_4  and  C_5
REMARK    5  A    between atoms: C_5  and  C_6
REMARK    6  A    between atoms: C_6  and  C_7
REMARK    7  A    between atoms: C_7  and  C_8
REMARK    8  A    between atoms: C_8  and  C_9
REMARK    9  A    between atoms: C_9  and  C_10
REMARK   10  A    between atoms: C_10  and  O_11
REMARK   11  A    between atoms: O_11  and  C_12
REMARK   12  A    between atoms: C_15  and  C_16
REMARK   13  A    between atoms: C_16  and  C_17
REMARK   14  A    between atoms: C_17  and  C_18
REMARK   15  A    between atoms: C_18  and  C_20
REMARK   16  A    between atoms: C_21  and  C_22
REMARK   17  A    between atoms: C_22  and  O_24
REMARK   18  A    between atoms: N_25  and  C_26
REMARK                            x       y       z     vdW  Elec       q    Type
REMARK                         _______ _______ _______ _____ _____    ______ ____
ROOT
ATOM      1  C   UNL     1       1.135  10.197  18.322  0.00  0.00    +0.000 C 
ENDROOT
BRANCH   1   5
ATOM      2  C   UNL     1       2.624   6.333  19.714  0.00  0.00    +0.000 A 
ATOM      3  C   UNL     1       2.925   6.793  18.422  0.00  0.00    +0.000 A 
ATOM      4  C   UNL     1       2.504   8.062  17.987  0.00  0.00    +0.000 A 
ATOM      5  C   UNL     1       1.729   8.886  18.789  0.00  0.00    +0.000 A 
ATOM      6  C   UNL     1       1.487   8.447  20.111  0.00  0.00    +0.000 A 
ATOM      7  C   UNL     1       1.929   7.182  20.551  0.00  0.00    +0.000 A 
BRANCH   2   8
ATOM      8  O   UNL     1       2.984   5.076  20.183  0.00  0.00    +0.000 OA
BRANCH   8   9
ATOM      9  C   UNL     1       1.902   4.315  20.748  0.00  0.00    +0.000 C 
BRANCH   9  10
ATOM     10  C   UNL     1       0.947   3.734  19.698  0.00  0.00    +0.000 C 
BRANCH  10  11
ATOM     11  C   UNL     1       1.393   2.313  19.298  0.00  0.00    +0.000 C 
BRANCH  11  12
ATOM     12  C   UNL     1       2.916   2.159  19.285  0.00  0.00    +0.000 C 
BRANCH  12  13
ATOM     13  C   UNL     1       3.475   2.103  17.857  0.00  0.00    +0.000 C 
BRANCH  13  14
ATOM     14  C   UNL     1       3.536   3.499  17.229  0.00  0.00    +0.000 C 
BRANCH  14  15
ATOM     15  C   UNL     1       4.910   3.787  16.620  0.00  0.00    +0.000 C 
BRANCH  15  16
ATOM     16  C   UNL     1       5.785   4.585  17.590  0.00  0.00    +0.000 C 
BRANCH  16  18
ATOM     17  C   UNL     1       7.247   6.633  17.614  0.00  0.00    +0.000 C 
ATOM     18  C   UNL     1       6.867   5.373  16.853  0.00  0.00    +0.000 C 
ENDBRANCH  16  18
ENDBRANCH  15  16
ENDBRANCH  14  15
ENDBRANCH  13  14
ENDBRANCH  12  13
ENDBRANCH  11  12
ENDBRANCH  10  11
ENDBRANCH   9  10
ENDBRANCH   8   9
ENDBRANCH   2   8
ENDBRANCH   1   5
BRANCH   1  19
ATOM     19  C   UNL     1       0.978  11.367  19.291  0.00  0.00    +0.000 C 
BRANCH  19  20
ATOM     20  C   UNL     1      -0.365  12.033  19.562  0.00  0.00    +0.000 C 
ATOM     21  O   UNL     1      -0.745  12.723  18.591  0.00  0.00    +0.000 OA
BRANCH  20  22
ATOM     22  C   UNL     1      -1.195  12.144  20.775  0.00  0.00    +0.000 A 
ATOM     23  C   UNL     1      -0.444  12.541  21.899  0.00  0.00    +0.000 A 
ATOM     24  N   UNL     1      -0.993  11.675  22.840  0.00  0.00    +0.000 N 
ATOM     25  C   UNL     1      -0.838  10.219  22.919  0.00  0.00    +0.000 C 
ATOM     26  C   UNL     1      -2.293  12.133  22.819  0.00  0.00    +0.000 A 
ATOM     27  C   UNL     1      -3.181  12.266  23.879  0.00  0.00    +0.000 A 
ATOM     28  C   UNL     1      -4.374  12.881  23.555  0.00  0.00    +0.000 A 
ATOM     29  C   UNL     1      -4.648  13.225  22.237  0.00  0.00    +0.000 A 
ATOM     30  C   UNL     1      -3.766  12.957  21.150  0.00  0.00    +0.000 A 
ATOM     31  C   UNL     1      -2.492  12.406  21.430  0.00  0.00    +0.000 A 
BRANCH  23  32
ATOM     32  C   UNL     1      -0.147  13.988  21.980  0.00  0.00    +0.000 C 
ATOM     33  O   UNL     1      -0.937  14.825  22.379  0.00  0.00    +0.000 OA
BRANCH  32  34
ATOM     34  O   UNL     1       1.124  14.325  21.711  0.00  0.00    +0.000 OA
ATOM     35  H   UNL     1       1.718  13.544  21.683  0.00  0.00    +0.000 HD
ENDBRANCH  32  34
ENDBRANCH  23  32
ENDBRANCH  20  22
ENDBRANCH  19  20
ENDBRANCH   1  19
TORSDOF 16
ENDMDL
MODEL 9
REMARK VINA RESULT:      -6.9      5.566      8.932
REMARK  Name = 
REMARK  18 active torsions:
REMARK  status: ('A' for Active; 'I' for Inactive)
REMARK    1  A    between atoms: C_1  and  C_2
REMARK    2  A    between atoms: C_2  and  C_3
REMARK    3  A    between atoms: C_3  and  C_4
REMARK    4  A    between atoms: C_4  and  C_5
REMARK    5  A    between atoms: C_5  and  C_6
REMARK    6  A    between atoms: C_6  and  C_7
REMARK    7  A    between atoms: C_7  and  C_8
REMARK    8  A    between atoms: C_8  and  C_9
REMARK    9  A    between atoms: C_9  and  C_10
REMARK   10  A    between atoms: C_10  and  O_11
REMARK   11  A    between atoms: O_11  and  C_12
REMARK   12  A    between atoms: C_15  and  C_16
REMARK   13  A    between atoms: C_16  and  C_17
REMARK   14  A    between atoms: C_17  and  C_18
REMARK   15  A    between atoms: C_18  and  C_20
REMARK   16  A    between atoms: C_21  and  C_22
REMARK   17  A    between atoms: C_22  and  O_24
REMARK   18  A    between atoms: N_25  and  C_26
REMARK                            x       y       z     vdW  Elec       q    Type
REMARK                         _______ _______ _______ _____ _____    ______ ____
ROOT
ATOM      1  C   UNL     1       8.013   8.130  17.898  0.00  0.00    +0.000 C 
ENDROOT
BRANCH   1   5
ATOM      2  C   UNL     1       9.232  12.195  18.935  0.00  0.00    +0.000 A 
ATOM      3  C   UNL     1       9.648  11.103  19.712  0.00  0.00    +0.000 A 
ATOM      4  C   UNL     1       9.314   9.786  19.351  0.00  0.00    +0.000 A 
ATOM      5  C   UNL     1       8.516   9.513  18.251  0.00  0.00    +0.000 A 
ATOM      6  C   UNL     1       8.157  10.610  17.434  0.00  0.00    +0.000 A 
ATOM      7  C   UNL     1       8.512  11.928  17.789  0.00  0.00    +0.000 A 
BRANCH   2   8
ATOM      8  O   UNL     1       9.503  13.518  19.264  0.00  0.00    +0.000 OA
BRANCH   8   9
ATOM      9  C   UNL     1      10.670  13.704  20.084  0.00  0.00    +0.000 C 
BRANCH   9  10
ATOM     10  C   UNL     1      10.376  14.399  21.419  0.00  0.00    +0.000 C 
BRANCH  10  11
ATOM     11  C   UNL     1       8.934  14.943  21.434  0.00  0.00    +0.000 C 
BRANCH  11  12
ATOM     12  C   UNL     1       7.953  13.982  22.111  0.00  0.00    +0.000 C 
BRANCH  12  13
ATOM     13  C   UNL     1       8.670  12.978  23.024  0.00  0.00    +0.000 C 
BRANCH  13  14
ATOM     14  C   UNL     1       7.950  11.626  23.034  0.00  0.00    +0.000 C 
BRANCH  14  15
ATOM     15  C   UNL     1       6.535  11.742  23.608  0.00  0.00    +0.000 C 
BRANCH  15  16
ATOM     16  C   UNL     1       6.547  11.601  25.133  0.00  0.00    +0.000 C 
BRANCH  16  18
ATOM     17  C   UNL     1       5.707  13.968  24.971  0.00  0.00    +0.000 C 
ATOM     18  C   UNL     1       5.718  12.696  25.804  0.00  0.00    +0.000 C 
ENDBRANCH  16  18
ENDBRANCH  15  16
ENDBRANCH  14  15
ENDBRANCH  13  14
ENDBRANCH  12  13
ENDBRANCH  11  12
ENDBRANCH  10  11
ENDBRANCH   9  10
ENDBRANCH   8   9
ENDBRANCH   2   8
ENDBRANCH   1   5
BRANCH   1  19
ATOM     19  C   UNL     1       7.931   7.037  18.962  0.00  0.00    +0.000 C 
BRANCH  19  20
ATOM     20  C   UNL     1       7.386   5.647  18.668  0.00  0.00    +0.000 C 
ATOM     21  O   UNL     1       8.298   4.794  18.602  0.00  0.00    +0.000 OA
BRANCH  20  22
ATOM     22  C   UNL     1       6.044   5.161  18.295  0.00  0.00    +0.000 A 
ATOM     23  C   UNL     1       5.760   5.376  16.933  0.00  0.00    +0.000 A 
ATOM     24  N   UNL     1       4.446   5.819  17.056  0.00  0.00    +0.000 N 
ATOM     25  C   UNL     1       3.975   7.085  17.627  0.00  0.00    +0.000 C 
ATOM     26  C   UNL     1       3.886   4.681  17.593  0.00  0.00    +0.000 A 
ATOM     27  C   UNL     1       2.634   4.132  17.345  0.00  0.00    +0.000 A 
ATOM     28  C   UNL     1       2.416   2.906  17.943  0.00  0.00    +0.000 A 
ATOM     29  C   UNL     1       3.369   2.365  18.796  0.00  0.00    +0.000 A 
ATOM     30  C   UNL     1       4.591   3.016  19.132  0.00  0.00    +0.000 A 
ATOM     31  C   UNL     1       4.910   4.235  18.485  0.00  0.00    +0.000 A 
BRANCH  23  32
ATOM     32  C   UNL     1       6.363   4.398  16.001  0.00  0.00    +0.000 C 
ATOM     33  O   UNL     1       5.745   3.492  15.470  0.00  0.00    +0.000 OA
BRANCH  32  34
ATOM     34  O   UNL     1       7.634   4.650  15.654  0.00  0.00    +0.000 OA
ATOM     35  H   UNL     1       7.780   4.559  14.687  0.00  0.00    +0.000 HD
ENDBRANCH  32  34
ENDBRANCH  23  32
ENDBRANCH  20  22
ENDBRANCH  19  20
ENDBRANCH   1  19
TORSDOF 16
ENDMDL
