MODEL 1
REMARK VINA RESULT:      -7.6      0.000      0.000
REMARK  Name = 
REMARK  5 active torsions:
REMARK  status: ('A' for Active; 'I' for Inactive)
REMARK    1  A    between atoms: O_1  and  C_2
REMARK    2  A    between atoms: C_5  and  C_6
REMARK    3  A    between atoms: C_6  and  C_7
REMARK    4  A    between atoms: C_13  and  O_14
REMARK    5  A    between atoms: C_15  and  O_16
REMARK                            x       y       z     vdW  Elec       q    Type
REMARK                         _______ _______ _______ _____ _____    ______ ____
ROOT
ATOM      1  C   UNL     1       3.138   5.122  18.927  0.00  0.00    +0.000 C 
ATOM      2  N   UNL     1       1.945   4.428  18.424  0.00  0.00    +0.000 NA
ATOM      3  C   UNL     1       2.194   3.139  17.806  0.00  0.00    +0.000 C 
ATOM      4  C   UNL     1       3.535   2.919  17.115  0.00  0.00    +0.000 C 
ATOM      5  C   UNL     1       4.411   4.135  16.977  0.00  0.00    +0.000 A 
ATOM      6  C   UNL     1       5.494   4.008  16.077  0.00  0.00    +0.000 A 
ATOM      7  C   UNL     1       6.448   4.995  16.016  0.00  0.00    +0.000 A 
ATOM      8  C   UNL     1       6.313   6.116  16.836  0.00  0.00    +0.000 A 
ATOM      9  C   UNL     1       5.227   6.263  17.735  0.00  0.00    +0.000 A 
ATOM     10  C   UNL     1       4.238   5.263  17.833  0.00  0.00    +0.000 A 
ATOM     11  H   UNL     1       1.451   5.035  17.779  0.00  0.00    +0.000 HD
ENDROOT
BRANCH   7  12
ATOM     12  O   UNL     1       7.549   4.879  15.212  0.00  0.00    +0.000 OA
ATOM     13  H   UNL     1       7.524   4.003  14.783  0.00  0.00    +0.000 HD
ENDBRANCH   7  12
BRANCH   8  14
ATOM     14  O   UNL     1       7.310   7.059  16.779  0.00  0.00    +0.000 OA
ATOM     15  H   UNL     1       6.977   7.740  16.161  0.00  0.00    +0.000 HD
ENDBRANCH   8  14
BRANCH   1  16
ATOM     16  C   UNL     1       2.668   6.246  19.947  0.00  0.00    +0.000 C 
BRANCH  16  20
ATOM     17  C   UNL     1       0.863  10.024  18.637  0.00  0.00    +0.000 A 
ATOM     18  C   UNL     1       0.742   9.652  19.977  0.00  0.00    +0.000 A 
ATOM     19  C   UNL     1       1.344   8.459  20.438  0.00  0.00    +0.000 A 
ATOM     20  C   UNL     1       2.091   7.636  19.582  0.00  0.00    +0.000 A 
ATOM     21  C   UNL     1       2.224   8.080  18.239  0.00  0.00    +0.000 A 
ATOM     22  C   UNL     1       1.615   9.255  17.774  0.00  0.00    +0.000 A 
BRANCH  17  23
ATOM     23  O   UNL     1       0.250  11.137  18.139  0.00  0.00    +0.000 OA
ATOM     24  H   UNL     1       0.738  11.453  17.363  0.00  0.00    +0.000 HD
ENDBRANCH  17  23
ENDBRANCH  16  20
ENDBRANCH   1  16
TORSDOF 5
ENDMDL
MODEL 2
REMARK VINA RESULT:      -7.6      0.286      1.110
REMARK  Name = 
REMARK  5 active torsions:
REMARK  status: ('A' for Active; 'I' for Inactive)
REMARK    1  A    between atoms: O_1  and  C_2
REMARK    2  A    between atoms: C_5  and  C_6
REMARK    3  A    between atoms: C_6  and  C_7
REMARK    4  A    between atoms: C_13  and  O_14
REMARK    5  A    between atoms: C_15  and  O_16
REMARK                            x       y       z     vdW  Elec       q    Type
REMARK                         _______ _______ _______ _____ _____    ______ ____
ROOT
ATOM      1  C   UNL     1       3.112   5.287  18.851  0.00  0.00    +0.000 C 
ATOM      2  N   UNL     1       1.942   4.551  18.358  0.00  0.00    +0.000 NA
ATOM      3  C   UNL     1       2.219   3.226  17.834  0.00  0.00    +0.000 C 
ATOM      4  C   UNL     1       3.583   2.973  17.203  0.00  0.00    +0.000 C 
ATOM      5  C   UNL     1       4.454   4.185  17.012  0.00  0.00    +0.000 A 
ATOM      6  C   UNL     1       5.566   4.010  16.157  0.00  0.00    +0.000 A 
ATOM      7  C   UNL     1       6.515   4.999  16.061  0.00  0.00    +0.000 A 
ATOM      8  C   UNL     1       6.346   6.170  16.801  0.00  0.00    +0.000 A 
ATOM      9  C   UNL     1       5.231   6.366  17.653  0.00  0.00    +0.000 A 
ATOM     10  C   UNL     1       4.246   5.366  17.786  0.00  0.00    +0.000 A 
ATOM     11  H   UNL     1       1.464   5.110  17.659  0.00  0.00    +0.000 HD
ENDROOT
BRANCH   7  12
ATOM     12  O   UNL     1       7.642   4.840  15.302  0.00  0.00    +0.000 OA
ATOM     13  H   UNL     1       8.327   4.419  15.855  0.00  0.00    +0.000 HD
ENDBRANCH   7  12
BRANCH   8  14
ATOM     14  O   UNL     1       7.338   7.116  16.713  0.00  0.00    +0.000 OA
ATOM     15  H   UNL     1       7.068   7.821  17.335  0.00  0.00    +0.000 HD
ENDBRANCH   8  14
BRANCH   1  16
ATOM     16  C   UNL     1       2.603   6.471  19.780  0.00  0.00    +0.000 C 
BRANCH  16  20
ATOM     17  C   UNL     1       1.057  10.438  18.719  0.00  0.00    +0.000 A 
ATOM     18  C   UNL     1       1.691   9.680  17.733  0.00  0.00    +0.000 A 
ATOM     19  C   UNL     1       2.167   8.383  18.033  0.00  0.00    +0.000 A 
ATOM     20  C   UNL     1       1.998   7.817  19.305  0.00  0.00    +0.000 A 
ATOM     21  C   UNL     1       1.306   8.607  20.261  0.00  0.00    +0.000 A 
ATOM     22  C   UNL     1       0.846   9.901  19.972  0.00  0.00    +0.000 A 
BRANCH  17  23
ATOM     23  O   UNL     1       0.633  11.715  18.486  0.00  0.00    +0.000 OA
ATOM     24  H   UNL     1      -0.069  11.703  17.818  0.00  0.00    +0.000 HD
ENDBRANCH  17  23
ENDBRANCH  16  20
ENDBRANCH   1  16
TORSDOF 5
ENDMDL
MODEL 3
REMARK VINA RESULT:      -7.5      1.578      6.039
REMARK  Name = 
REMARK  5 active torsions:
REMARK  status: ('A' for Active; 'I' for Inactive)
REMARK    1  A    between atoms: O_1  and  C_2
REMARK    2  A    between atoms: C_5  and  C_6
REMARK    3  A    between atoms: C_6  and  C_7
REMARK    4  A    between atoms: C_13  and  O_14
REMARK    5  A    between atoms: C_15  and  O_16
REMARK                            x       y       z     vdW  Elec       q    Type
REMARK                         _______ _______ _______ _____ _____    ______ ____
ROOT
ATOM      1  C   UNL     1       2.996   4.066  18.378  0.00  0.00    +0.000 C 
ATOM      2  N   UNL     1       3.531   3.286  19.500  0.00  0.00    +0.000 NA
ATOM      3  C   UNL     1       2.763   3.364  20.730  0.00  0.00    +0.000 C 
ATOM      4  C   UNL     1       1.983   4.644  21.011  0.00  0.00    +0.000 C 
ATOM      5  C   UNL     1       2.236   5.788  20.067  0.00  0.00    +0.000 A 
ATOM      6  C   UNL     1       1.767   7.050  20.499  0.00  0.00    +0.000 A 
ATOM      7  C   UNL     1       1.789   8.117  19.634  0.00  0.00    +0.000 A 
ATOM      8  C   UNL     1       2.298   7.933  18.348  0.00  0.00    +0.000 A 
ATOM      9  C   UNL     1       2.782   6.678  17.904  0.00  0.00    +0.000 A 
ATOM     10  C   UNL     1       2.760   5.558  18.760  0.00  0.00    +0.000 A 
ATOM     11  H   UNL     1       4.493   3.560  19.671  0.00  0.00    +0.000 HD
ENDROOT
BRANCH   7  12
ATOM     12  O   UNL     1       1.279   9.337  19.987  0.00  0.00    +0.000 OA
ATOM     13  H   UNL     1       0.326   9.231  20.161  0.00  0.00    +0.000 HD
ENDBRANCH   7  12
BRANCH   8  14
ATOM     14  O   UNL     1       2.262   9.012  17.498  0.00  0.00    +0.000 OA
ATOM     15  H   UNL     1       1.835   9.724  18.015  0.00  0.00    +0.000 HD
ENDBRANCH   8  14
BRANCH   1  16
ATOM     16  C   UNL     1       3.654   3.527  17.036  0.00  0.00    +0.000 C 
BRANCH  16  20
ATOM     17  C   UNL     1       7.144   5.127  14.912  0.00  0.00    +0.000 A 
ATOM     18  C   UNL     1       6.998   5.410  16.271  0.00  0.00    +0.000 A 
ATOM     19  C   UNL     1       5.905   4.879  16.993  0.00  0.00    +0.000 A 
ATOM     20  C   UNL     1       4.959   4.043  16.379  0.00  0.00    +0.000 A 
ATOM     21  C   UNL     1       5.175   3.747  15.007  0.00  0.00    +0.000 A 
ATOM     22  C   UNL     1       6.250   4.285  14.284  0.00  0.00    +0.000 A 
BRANCH  17  23
ATOM     23  O   UNL     1       8.153   5.666  14.167  0.00  0.00    +0.000 OA
ATOM     24  H   UNL     1       8.902   5.050  14.147  0.00  0.00    +0.000 HD
ENDBRANCH  17  23
ENDBRANCH  16  20
ENDBRANCH   1  16
TORSDOF 5
ENDMDL
MODEL 4
REMARK VINA RESULT:      -7.4      1.710      6.043
REMARK  Name = 
REMARK  5 active torsions:
REMARK  status: ('A' for Active; 'I' for Inactive)
REMARK    1  A    between atoms: O_1  and  C_2
REMARK    2  A    between atoms: C_5  and  C_6
REMARK    3  A    between atoms: C_6  and  C_7
REMARK    4  A    between atoms: C_13  and  O_14
REMARK    5  A    between atoms: C_15  and  O_16
REMARK                            x       y       z     vdW  Elec       q    Type
REMARK                         _______ _______ _______ _____ _____    ______ ____
ROOT
ATOM      1  C   UNL     1       3.188   3.732  18.674  0.00  0.00    +0.000 C 
ATOM      2  N   UNL     1       3.602   3.018  19.888  0.00  0.00    +0.000 NA
ATOM      3  C   UNL     1       2.710   3.160  21.024  0.00  0.00    +0.000 C 
ATOM      4  C   UNL     1       1.906   4.449  21.150  0.00  0.00    +0.000 C 
ATOM      5  C   UNL     1       2.256   5.541  20.175  0.00  0.00    +0.000 A 
ATOM      6  C   UNL     1       1.745   6.822  20.484  0.00  0.00    +0.000 A 
ATOM      7  C   UNL     1       1.859   7.840  19.567  0.00  0.00    +0.000 A 
ATOM      8  C   UNL     1       2.499   7.587  18.354  0.00  0.00    +0.000 A 
ATOM      9  C   UNL     1       3.027   6.311  18.035  0.00  0.00    +0.000 A 
ATOM     10  C   UNL     1       2.915   5.241  18.945  0.00  0.00    +0.000 A 
ATOM     11  H   UNL     1       4.541   3.306  20.143  0.00  0.00    +0.000 HD
ENDROOT
BRANCH   7  12
ATOM     12  O   UNL     1       1.315   9.074  19.797  0.00  0.00    +0.000 OA
ATOM     13  H   UNL     1       0.345   8.999  19.726  0.00  0.00    +0.000 HD
ENDBRANCH   7  12
BRANCH   8  14
ATOM     14  O   UNL     1       2.553   8.617  17.446  0.00  0.00    +0.000 OA
ATOM     15  H   UNL     1       1.640   8.700  17.107  0.00  0.00    +0.000 HD
ENDBRANCH   8  14
BRANCH   1  16
ATOM     16  C   UNL     1       3.984   3.122  17.441  0.00  0.00    +0.000 C 
BRANCH  16  20
ATOM     17  C   UNL     1       7.063   5.052  14.982  0.00  0.00    +0.000 A 
ATOM     18  C   UNL     1       5.909   4.575  14.359  0.00  0.00    +0.000 A 
ATOM     19  C   UNL     1       4.882   3.981  15.128  0.00  0.00    +0.000 A 
ATOM     20  C   UNL     1       4.979   3.877  16.523  0.00  0.00    +0.000 A 
ATOM     21  C   UNL     1       6.150   4.418  17.116  0.00  0.00    +0.000 A 
ATOM     22  C   UNL     1       7.178   4.993  16.355  0.00  0.00    +0.000 A 
BRANCH  17  23
ATOM     23  O   UNL     1       8.101   5.580  14.270  0.00  0.00    +0.000 OA
ATOM     24  H   UNL     1       8.437   4.914  13.650  0.00  0.00    +0.000 HD
ENDBRANCH  17  23
ENDBRANCH  16  20
ENDBRANCH   1  16
TORSDOF 5
ENDMDL
MODEL 5
REMARK VINA RESULT:      -7.4      1.502      2.008
REMARK  Name = 
REMARK  5 active torsions:
REMARK  status: ('A' for Active; 'I' for Inactive)
REMARK    1  A    between atoms: O_1  and  C_2
REMARK    2  A    between atoms: C_5  and  C_6
REMARK    3  A    between atoms: C_6  and  C_7
REMARK    4  A    between atoms: C_13  and  O_14
REMARK    5  A    between atoms: C_15  and  O_16
REMARK                            x       y       z     vdW  Elec       q    Type
REMARK                         _______ _______ _______ _____ _____    ______ ____
ROOT
ATOM      1  C   UNL     1       2.840   6.453  18.160  0.00  0.00    +0.000 C 
ATOM      2  N   UNL     1       1.730   5.552  17.827  0.00  0.00    +0.000 NA
ATOM      3  C   UNL     1       1.937   4.159  18.181  0.00  0.00    +0.000 C 
ATOM      4  C   UNL     1       3.363   3.622  18.184  0.00  0.00    +0.000 C 
ATOM      5  C   UNL     1       4.415   4.546  17.634  0.00  0.00    +0.000 A 
ATOM      6  C   UNL     1       5.664   3.948  17.347  0.00  0.00    +0.000 A 
ATOM      7  C   UNL     1       6.737   4.738  17.012  0.00  0.00    +0.000 A 
ATOM      8  C   UNL     1       6.561   6.121  16.942  0.00  0.00    +0.000 A 
ATOM      9  C   UNL     1       5.313   6.734  17.215  0.00  0.00    +0.000 A 
ATOM     10  C   UNL     1       4.195   5.955  17.576  0.00  0.00    +0.000 A 
ATOM     11  H   UNL     1       1.517   5.633  16.839  0.00  0.00    +0.000 HD
ENDROOT
BRANCH   7  12
ATOM     12  O   UNL     1       7.979   4.207  16.797  0.00  0.00    +0.000 OA
ATOM     13  H   UNL     1       8.642   4.817  17.170  0.00  0.00    +0.000 HD
ENDBRANCH   7  12
BRANCH   8  14
ATOM     14  O   UNL     1       7.668   6.880  16.648  0.00  0.00    +0.000 OA
ATOM     15  H   UNL     1       7.579   7.096  15.698  0.00  0.00    +0.000 HD
ENDBRANCH   8  14
BRANCH   1  16
ATOM     16  C   UNL     1       2.294   7.945  18.141  0.00  0.00    +0.000 C 
BRANCH  16  20
ATOM     17  C   UNL     1       0.614   9.990  21.641  0.00  0.00    +0.000 A 
ATOM     18  C   UNL     1       0.535  10.617  20.396  0.00  0.00    +0.000 A 
ATOM     19  C   UNL     1       1.034   9.968  19.243  0.00  0.00    +0.000 A 
ATOM     20  C   UNL     1       1.593   8.683  19.310  0.00  0.00    +0.000 A 
ATOM     21  C   UNL     1       1.610   8.068  20.589  0.00  0.00    +0.000 A 
ATOM     22  C   UNL     1       1.130   8.715  21.738  0.00  0.00    +0.000 A 
BRANCH  17  23
ATOM     23  O   UNL     1       0.196  10.605  22.786  0.00  0.00    +0.000 OA
ATOM     24  H   UNL     1       0.660  10.219  23.545  0.00  0.00    +0.000 HD
ENDBRANCH  17  23
ENDBRANCH  16  20
ENDBRANCH   1  16
TORSDOF 5
ENDMDL
MODEL 6
REMARK VINA RESULT:      -7.3      3.760      7.514
REMARK  Name = 
REMARK  5 active torsions:
REMARK  status: ('A' for Active; 'I' for Inactive)
REMARK    1  A    between atoms: O_1  and  C_2
REMARK    2  A    between atoms: C_5  and  C_6
REMARK    3  A    between atoms: C_6  and  C_7
REMARK    4  A    between atoms: C_13  and  O_14
REMARK    5  A    between atoms: C_15  and  O_16
REMARK                            x       y       z     vdW  Elec       q    Type
REMARK                         _______ _______ _______ _____ _____    ______ ____
ROOT
ATOM      1  C   UNL     1       1.997   8.306  19.521  0.00  0.00    +0.000 C 
ATOM      2  N   UNL     1       1.504   8.411  18.142  0.00  0.00    +0.000 NA
ATOM      3  C   UNL     1       1.206   9.759  17.693  0.00  0.00    +0.000 C 
ATOM      4  C   UNL     1       0.752  10.779  18.730  0.00  0.00    +0.000 C 
ATOM      5  C   UNL     1       0.474  10.238  20.107  0.00  0.00    +0.000 A 
ATOM      6  C   UNL     1      -0.236  11.104  20.971  0.00  0.00    +0.000 A 
ATOM      7  C   UNL     1      -0.380  10.773  22.297  0.00  0.00    +0.000 A 
ATOM      8  C   UNL     1       0.163   9.573  22.757  0.00  0.00    +0.000 A 
ATOM      9  C   UNL     1       0.867   8.690  21.901  0.00  0.00    +0.000 A 
ATOM     10  C   UNL     1       1.047   9.004  20.538  0.00  0.00    +0.000 A 
ATOM     11  H   UNL     1       0.689   7.818  18.031  0.00  0.00    +0.000 HD
ENDROOT
BRANCH   7  12
ATOM     12  O   UNL     1      -0.996  11.616  23.182  0.00  0.00    +0.000 OA
ATOM     13  H   UNL     1      -0.309  12.054  23.716  0.00  0.00    +0.000 HD
ENDBRANCH   7  12
BRANCH   8  14
ATOM     14  O   UNL     1       0.037   9.300  24.097  0.00  0.00    +0.000 OA
ATOM     15  H   UNL     1       0.107  10.170  24.538  0.00  0.00    +0.000 HD
ENDBRANCH   8  14
BRANCH   1  16
ATOM     16  C   UNL     1       2.692   6.888  19.696  0.00  0.00    +0.000 C 
BRANCH  16  20
ATOM     17  C   UNL     1       1.132   2.861  18.925  0.00  0.00    +0.000 A 
ATOM     18  C   UNL     1       0.964   3.413  20.196  0.00  0.00    +0.000 A 
ATOM     19  C   UNL     1       1.422   4.723  20.466  0.00  0.00    +0.000 A 
ATOM     20  C   UNL     1       2.030   5.505  19.472  0.00  0.00    +0.000 A 
ATOM     21  C   UNL     1       2.137   4.918  18.184  0.00  0.00    +0.000 A 
ATOM     22  C   UNL     1       1.697   3.612  17.916  0.00  0.00    +0.000 A 
BRANCH  17  23
ATOM     23  O   UNL     1       0.755   1.580  18.639  0.00  0.00    +0.000 OA
ATOM     24  H   UNL     1       1.326   0.962  19.120  0.00  0.00    +0.000 HD
ENDBRANCH  17  23
ENDBRANCH  16  20
ENDBRANCH   1  16
TORSDOF 5
ENDMDL
MODEL 7
REMARK VINA RESULT:      -7.2      3.727      7.515
REMARK  Name = 
REMARK  5 active torsions:
REMARK  status: ('A' for Active; 'I' for Inactive)
REMARK    1  A    between atoms: O_1  and  C_2
REMARK    2  A    between atoms: C_5  and  C_6
REMARK    3  A    between atoms: C_6  and  C_7
REMARK    4  A    between atoms: C_13  and  O_14
REMARK    5  A    between atoms: C_15  and  O_16
REMARK                            x       y       z     vdW  Elec       q    Type
REMARK                         _______ _______ _______ _____ _____    ______ ____
ROOT
ATOM      1  C   UNL     1       2.055   8.088  19.646  0.00  0.00    +0.000 C 
ATOM      2  N   UNL     1       1.572   8.110  18.260  0.00  0.00    +0.000 NA
ATOM      3  C   UNL     1       1.278   9.429  17.728  0.00  0.00    +0.000 C 
ATOM      4  C   UNL     1       0.818  10.510  18.698  0.00  0.00    +0.000 C 
ATOM      5  C   UNL     1       0.530  10.053  20.103  0.00  0.00    +0.000 A 
ATOM      6  C   UNL     1      -0.185  10.970  20.908  0.00  0.00    +0.000 A 
ATOM      7  C   UNL     1      -0.340  10.721  22.251  0.00  0.00    +0.000 A 
ATOM      8  C   UNL     1       0.199   9.550  22.786  0.00  0.00    +0.000 A 
ATOM      9  C   UNL     1       0.907   8.617  21.990  0.00  0.00    +0.000 A 
ATOM     10  C   UNL     1       1.098   8.848  20.612  0.00  0.00    +0.000 A 
ATOM     11  H   UNL     1       0.757   7.512  18.179  0.00  0.00    +0.000 HD
ENDROOT
BRANCH   7  12
ATOM     12  O   UNL     1      -0.961  11.616  23.078  0.00  0.00    +0.000 OA
ATOM     13  H   UNL     1      -0.280  12.193  23.471  0.00  0.00    +0.000 HD
ENDBRANCH   7  12
BRANCH   8  14
ATOM     14  O   UNL     1       0.063   9.359  24.140  0.00  0.00    +0.000 OA
ATOM     15  H   UNL     1       0.927   9.618  24.518  0.00  0.00    +0.000 HD
ENDBRANCH   8  14
BRANCH   1  16
ATOM     16  C   UNL     1       2.746   6.683  19.911  0.00  0.00    +0.000 C 
BRANCH  16  20
ATOM     17  C   UNL     1       0.950   2.866  18.704  0.00  0.00    +0.000 A 
ATOM     18  C   UNL     1       1.723   3.567  17.776  0.00  0.00    +0.000 A 
ATOM     19  C   UNL     1       2.346   4.781  18.145  0.00  0.00    +0.000 A 
ATOM     20  C   UNL     1       2.228   5.299  19.444  0.00  0.00    +0.000 A 
ATOM     21  C   UNL     1       1.470   4.528  20.365  0.00  0.00    +0.000 A 
ATOM     22  C   UNL     1       0.838   3.331  19.997  0.00  0.00    +0.000 A 
BRANCH  17  23
ATOM     23  O   UNL     1       0.287   1.721  18.371  0.00  0.00    +0.000 OA
ATOM     24  H   UNL     1       0.355   1.086  19.100  0.00  0.00    +0.000 HD
ENDBRANCH  17  23
ENDBRANCH  16  20
ENDBRANCH   1  16
TORSDOF 5
ENDMDL
MODEL 8
REMARK VINA RESULT:      -7.1      1.444      1.867
REMARK  Name = 
REMARK  5 active torsions:
REMARK  status: ('A' for Active; 'I' for Inactive)
REMARK    1  A    between atoms: O_1  and  C_2
REMARK    2  A    between atoms: C_5  and  C_6
REMARK    3  A    between atoms: C_6  and  C_7
REMARK    4  A    between atoms: C_13  and  O_14
REMARK    5  A    between atoms: C_15  and  O_16
REMARK                            x       y       z     vdW  Elec       q    Type
REMARK                         _______ _______ _______ _____ _____    ______ ____
ROOT
ATOM      1  C   UNL     1       2.700   6.320  18.146  0.00  0.00    +0.000 C 
ATOM      2  N   UNL     1       1.648   5.375  17.752  0.00  0.00    +0.000 NA
ATOM      3  C   UNL     1       1.940   3.978  18.018  0.00  0.00    +0.000 C 
ATOM      4  C   UNL     1       3.397   3.531  17.994  0.00  0.00    +0.000 C 
ATOM      5  C   UNL     1       4.391   4.551  17.507  0.00  0.00    +0.000 A 
ATOM      6  C   UNL     1       5.674   4.050  17.189  0.00  0.00    +0.000 A 
ATOM      7  C   UNL     1       6.696   4.925  16.909  0.00  0.00    +0.000 A 
ATOM      8  C   UNL     1       6.436   6.295  16.926  0.00  0.00    +0.000 A 
ATOM      9  C   UNL     1       5.152   6.812  17.231  0.00  0.00    +0.000 A 
ATOM     10  C   UNL     1       4.084   5.944  17.538  0.00  0.00    +0.000 A 
ATOM     11  H   UNL     1       1.431   5.505  16.769  0.00  0.00    +0.000 HD
ENDROOT
BRANCH   7  12
ATOM     12  O   UNL     1       7.969   4.485  16.667  0.00  0.00    +0.000 OA
ATOM     13  H   UNL     1       8.583   5.227  16.818  0.00  0.00    +0.000 HD
ENDBRANCH   7  12
BRANCH   8  14
ATOM     14  O   UNL     1       7.493   7.138  16.685  0.00  0.00    +0.000 OA
ATOM     15  H   UNL     1       7.627   7.619  17.526  0.00  0.00    +0.000 HD
ENDBRANCH   8  14
BRANCH   1  16
ATOM     16  C   UNL     1       2.063   7.774  18.218  0.00  0.00    +0.000 C 
BRANCH  16  20
ATOM     17  C   UNL     1       0.596  10.012  21.695  0.00  0.00    +0.000 A 
ATOM     18  C   UNL     1       1.100   8.725  21.890  0.00  0.00    +0.000 A 
ATOM     19  C   UNL     1       1.615   7.992  20.796  0.00  0.00    +0.000 A 
ATOM     20  C   UNL     1       1.656   8.537  19.504  0.00  0.00    +0.000 A 
ATOM     21  C   UNL     1       1.174   9.865  19.364  0.00  0.00    +0.000 A 
ATOM     22  C   UNL     1       0.648  10.590  20.444  0.00  0.00    +0.000 A 
BRANCH  17  23
ATOM     23  O   UNL     1       0.039  10.730  22.714  0.00  0.00    +0.000 OA
ATOM     24  H   UNL     1      -0.873  10.963  22.482  0.00  0.00    +0.000 HD
ENDBRANCH  17  23
ENDBRANCH  16  20
ENDBRANCH   1  16
TORSDOF 5
ENDMDL
MODEL 9
REMARK VINA RESULT:      -7.1      4.224      5.177
REMARK  Name = 
REMARK  5 active torsions:
REMARK  status: ('A' for Active; 'I' for Inactive)
REMARK    1  A    between atoms: O_1  and  C_2
REMARK    2  A    between atoms: C_5  and  C_6
REMARK    3  A    between atoms: C_6  and  C_7
REMARK    4  A    between atoms: C_13  and  O_14
REMARK    5  A    between atoms: C_15  and  O_16
REMARK                            x       y       z     vdW  Elec       q    Type
REMARK                         _______ _______ _______ _____ _____    ______ ____
ROOT
ATOM      1  C   UNL     1       5.120   4.167  17.529  0.00  0.00    +0.000 C 
ATOM      2  N   UNL     1       5.998   4.264  18.702  0.00  0.00    +0.000 NA
ATOM      3  C   UNL     1       6.878   5.418  18.723  0.00  0.00    +0.000 C 
ATOM      4  C   UNL     1       7.343   5.991  17.389  0.00  0.00    +0.000 C 
ATOM      5  C   UNL     1       6.993   5.185  16.168  0.00  0.00    +0.000 A 
ATOM      6  C   UNL     1       7.680   5.540  14.984  0.00  0.00    +0.000 A 
ATOM      7  C   UNL     1       7.301   4.986  13.785  0.00  0.00    +0.000 A 
ATOM      8  C   UNL     1       6.254   4.064  13.768  0.00  0.00    +0.000 A 
ATOM      9  C   UNL     1       5.564   3.689  14.947  0.00  0.00    +0.000 A 
ATOM     10  C   UNL     1       5.916   4.249  16.193  0.00  0.00    +0.000 A 
ATOM     11  H   UNL     1       6.539   3.410  18.787  0.00  0.00    +0.000 HD
ENDROOT
BRANCH   7  12
ATOM     12  O   UNL     1       7.891   5.356  12.607  0.00  0.00    +0.000 OA
ATOM     13  H   UNL     1       8.261   4.558  12.187  0.00  0.00    +0.000 HD
ENDBRANCH   7  12
BRANCH   8  14
ATOM     14  O   UNL     1       5.876   3.566  12.545  0.00  0.00    +0.000 OA
ATOM     15  H   UNL     1       6.615   2.988  12.270  0.00  0.00    +0.000 HD
ENDBRANCH   8  14
BRANCH   1  16
ATOM     16  C   UNL     1       3.944   3.154  17.868  0.00  0.00    +0.000 C 
BRANCH  16  20
ATOM     17  C   UNL     1       1.534   2.657  21.501  0.00  0.00    +0.000 A 
ATOM     18  C   UNL     1       2.893   2.341  21.549  0.00  0.00    +0.000 A 
ATOM     19  C   UNL     1       3.704   2.525  20.406  0.00  0.00    +0.000 A 
ATOM     20  C   UNL     1       3.182   3.046  19.213  0.00  0.00    +0.000 A 
ATOM     21  C   UNL     1       1.805   3.396  19.227  0.00  0.00    +0.000 A 
ATOM     22  C   UNL     1       0.993   3.200  20.354  0.00  0.00    +0.000 A 
BRANCH  17  23
ATOM     23  O   UNL     1       0.705   2.441  22.564  0.00  0.00    +0.000 OA
ATOM     24  H   UNL     1      -0.081   3.000  22.477  0.00  0.00    +0.000 HD
ENDBRANCH  17  23
ENDBRANCH  16  20
ENDBRANCH   1  16
TORSDOF 5
ENDMDL
