MODEL 1
REMARK VINA RESULT:      -7.8      0.000      0.000
REMARK  Name = 
REMARK  7 active torsions:
REMARK  status: ('A' for Active; 'I' for Inactive)
REMARK    1  A    between atoms: C_1  and  C_2
REMARK    2  A    between atoms: C_2  and  C_3
REMARK    3  A    between atoms: C_3  and  C_4
REMARK    4  A    between atoms: C_4  and  C_5
REMARK    5  A    between atoms: C_5  and  C_6
REMARK    6  A    between atoms: C_16  and  C_17
REMARK    7  A    between atoms: C_17  and  C_18
REMARK                            x       y       z     vdW  Elec       q    Type
REMARK                         _______ _______ _______ _____ _____    ______ ____
ROOT
ATOM      1  C   UNL     1       2.213   6.300  20.034  0.00  0.00    +0.000 A 
ATOM      2  N   UNL     1       1.598   7.139  20.958  0.00  0.00    +0.000 N 
ATOM      3  C   UNL     1       1.266   8.414  20.673  0.00  0.00    +0.000 A 
ATOM      4  N   UNL     1       0.685   9.344  21.386  0.00  0.00    +0.000 NA
ATOM      5  C   UNL     1       0.677  10.409  20.532  0.00  0.00    +0.000 A 
ATOM      6  N   UNL     1       0.155  11.561  20.936  0.00  0.00    +0.000 N 
ATOM      7  N   UNL     1       1.184  10.194  19.324  0.00  0.00    +0.000 NA
ATOM      8  N   UNL     1       1.567   8.903  19.429  0.00  0.00    +0.000 N 
ATOM      9  C   UNL     1       2.177   8.175  18.413  0.00  0.00    +0.000 A 
ATOM     10  O   UNL     1       2.414   8.683  17.322  0.00  0.00    +0.000 OA
ATOM     11  C   UNL     1       2.492   6.747  18.777  0.00  0.00    +0.000 A 
ATOM     12  H   UNL     1       1.386   6.767  21.881  0.00  0.00    +0.000 HD
ATOM     13  H   UNL     1      -0.472  11.542  21.727  0.00  0.00    +0.000 HD
ATOM     14  H   UNL     1      -0.077  12.236  20.218  0.00  0.00    +0.000 HD
ENDROOT
BRANCH   1  15
ATOM     15  C   UNL     1       2.593   4.914  20.549  0.00  0.00    +0.000 C 
BRANCH  15  16
ATOM     16  C   UNL     1       1.452   3.932  20.877  0.00  0.00    +0.000 C 
BRANCH  16  17
ATOM     17  C   UNL     1       1.075   3.008  19.716  0.00  0.00    +0.000 C 
BRANCH  17  19
ATOM     18  C   UNL     1       2.393   2.280  17.686  0.00  0.00    +0.000 C 
ATOM     19  C   UNL     1       2.292   2.227  19.204  0.00  0.00    +0.000 C 
ENDBRANCH  17  19
ENDBRANCH  16  17
ENDBRANCH  15  16
ENDBRANCH   1  15
BRANCH  11  20
ATOM     20  C   UNL     1       3.102   5.977  17.630  0.00  0.00    +0.000 C 
BRANCH  20  21
ATOM     21  C   UNL     1       4.613   5.850  17.704  0.00  0.00    +0.000 A 
ATOM     22  C   UNL     1       5.181   4.572  17.803  0.00  0.00    +0.000 A 
ATOM     23  C   UNL     1       6.567   4.401  17.756  0.00  0.00    +0.000 A 
ATOM     24  C   UNL     1       7.404   5.507  17.626  0.00  0.00    +0.000 A 
ATOM     25  C   UNL     1       6.857   6.784  17.608  0.00  0.00    +0.000 A 
ATOM     26 CL   UNL     1       7.882   8.158  17.458  0.00  0.00    +0.000 Cl
ATOM     27  C   UNL     1       5.474   6.960  17.676  0.00  0.00    +0.000 A 
ENDBRANCH  20  21
ENDBRANCH  11  20
TORSDOF 6
ENDMDL
MODEL 2
REMARK VINA RESULT:      -7.7      4.056      6.096
REMARK  Name = 
REMARK  7 active torsions:
REMARK  status: ('A' for Active; 'I' for Inactive)
REMARK    1  A    between atoms: C_1  and  C_2
REMARK    2  A    between atoms: C_2  and  C_3
REMARK    3  A    between atoms: C_3  and  C_4
REMARK    4  A    between atoms: C_4  and  C_5
REMARK    5  A    between atoms: C_5  and  C_6
REMARK    6  A    between atoms: C_16  and  C_17
REMARK    7  A    between atoms: C_17  and  C_18
REMARK                            x       y       z     vdW  Elec       q    Type
REMARK                         _______ _______ _______ _____ _____    ______ ____
ROOT
ATOM      1  C   UNL     1       3.683   4.223  17.127  0.00  0.00    +0.000 A 
ATOM      2  N   UNL     1       4.235   3.997  15.869  0.00  0.00    +0.000 N 
ATOM      3  C   UNL     1       5.421   4.514  15.493  0.00  0.00    +0.000 A 
ATOM      4  N   UNL     1       6.104   4.414  14.381  0.00  0.00    +0.000 NA
ATOM      5  C   UNL     1       7.191   5.199  14.630  0.00  0.00    +0.000 A 
ATOM      6  N   UNL     1       8.118   5.341  13.690  0.00  0.00    +0.000 N 
ATOM      7  N   UNL     1       7.249   5.756  15.834  0.00  0.00    +0.000 NA
ATOM      8  N   UNL     1       6.096   5.310  16.381  0.00  0.00    +0.000 N 
ATOM      9  C   UNL     1       5.662   5.616  17.666  0.00  0.00    +0.000 A 
ATOM     10  O   UNL     1       6.324   6.337  18.406  0.00  0.00    +0.000 OA
ATOM     11  C   UNL     1       4.348   4.981  18.044  0.00  0.00    +0.000 A 
ATOM     12  H   UNL     1       3.721   3.410  15.216  0.00  0.00    +0.000 HD
ATOM     13  H   UNL     1       8.150   4.652  12.952  0.00  0.00    +0.000 HD
ATOM     14  H   UNL     1       9.019   5.698  13.984  0.00  0.00    +0.000 HD
ENDROOT
BRANCH   1  15
ATOM     15  C   UNL     1       2.296   3.629  17.357  0.00  0.00    +0.000 C 
BRANCH  15  16
ATOM     16  C   UNL     1       2.210   2.240  18.019  0.00  0.00    +0.000 C 
BRANCH  16  17
ATOM     17  C   UNL     1       1.011   2.072  18.955  0.00  0.00    +0.000 C 
BRANCH  17  19
ATOM     18  C   UNL     1       1.372   2.847  21.333  0.00  0.00    +0.000 C 
ATOM     19  C   UNL     1       0.902   3.243  19.940  0.00  0.00    +0.000 C 
ENDBRANCH  17  19
ENDBRANCH  16  17
ENDBRANCH  15  16
ENDBRANCH   1  15
BRANCH  11  20
ATOM     20  C   UNL     1       3.940   5.293  19.465  0.00  0.00    +0.000 C 
BRANCH  20  21
ATOM     21  C   UNL     1       2.937   6.425  19.585  0.00  0.00    +0.000 A 
ATOM     22  C   UNL     1       2.127   6.493  20.728  0.00  0.00    +0.000 A 
ATOM     23  C   UNL     1       1.275   7.580  20.936  0.00  0.00    +0.000 A 
ATOM     24  C   UNL     1       1.208   8.606  19.995  0.00  0.00    +0.000 A 
ATOM     25  C   UNL     1       1.945   8.510  18.821  0.00  0.00    +0.000 A 
ATOM     26 CL   UNL     1       1.862   9.766  17.647  0.00  0.00    +0.000 Cl
ATOM     27  C   UNL     1       2.781   7.415  18.600  0.00  0.00    +0.000 A 
ENDBRANCH  20  21
ENDBRANCH  11  20
TORSDOF 6
ENDMDL
MODEL 3
REMARK VINA RESULT:      -7.7      1.177      1.254
REMARK  Name = 
REMARK  7 active torsions:
REMARK  status: ('A' for Active; 'I' for Inactive)
REMARK    1  A    between atoms: C_1  and  C_2
REMARK    2  A    between atoms: C_2  and  C_3
REMARK    3  A    between atoms: C_3  and  C_4
REMARK    4  A    between atoms: C_4  and  C_5
REMARK    5  A    between atoms: C_5  and  C_6
REMARK    6  A    between atoms: C_16  and  C_17
REMARK    7  A    between atoms: C_17  and  C_18
REMARK                            x       y       z     vdW  Elec       q    Type
REMARK                         _______ _______ _______ _____ _____    ______ ____
ROOT
ATOM      1  C   UNL     1       2.012   6.174  20.196  0.00  0.00    +0.000 A 
ATOM      2  N   UNL     1       1.514   7.154  21.050  0.00  0.00    +0.000 N 
ATOM      3  C   UNL     1       1.331   8.431  20.661  0.00  0.00    +0.000 A 
ATOM      4  N   UNL     1       0.874   9.480  21.297  0.00  0.00    +0.000 NA
ATOM      5  C   UNL     1       0.980  10.464  20.357  0.00  0.00    +0.000 A 
ATOM      6  N   UNL     1       0.603  11.699  20.667  0.00  0.00    +0.000 N 
ATOM      7  N   UNL     1       1.440  10.092  19.169  0.00  0.00    +0.000 NA
ATOM      8  N   UNL     1       1.669   8.778  19.379  0.00  0.00    +0.000 N 
ATOM      9  C   UNL     1       2.174   7.902  18.425  0.00  0.00    +0.000 A 
ATOM     10  O   UNL     1       2.453   8.286  17.294  0.00  0.00    +0.000 OA
ATOM     11  C   UNL     1       2.323   6.480  18.905  0.00  0.00    +0.000 A 
ATOM     12  H   UNL     1       1.273   6.887  22.002  0.00  0.00    +0.000 HD
ATOM     13  H   UNL     1      -0.010  11.820  21.460  0.00  0.00    +0.000 HD
ATOM     14  H   UNL     1       0.442  12.336  19.897  0.00  0.00    +0.000 HD
ENDROOT
BRANCH   1  15
ATOM     15  C   UNL     1       2.233   4.800  20.823  0.00  0.00    +0.000 C 
BRANCH  15  16
ATOM     16  C   UNL     1       1.146   3.730  20.609  0.00  0.00    +0.000 C 
BRANCH  16  17
ATOM     17  C   UNL     1       1.688   2.383  20.124  0.00  0.00    +0.000 C 
BRANCH  17  19
ATOM     18  C   UNL     1       3.452   1.866  18.390  0.00  0.00    +0.000 C 
ATOM     19  C   UNL     1       3.173   2.478  19.756  0.00  0.00    +0.000 C 
ENDBRANCH  17  19
ENDBRANCH  16  17
ENDBRANCH  15  16
ENDBRANCH   1  15
BRANCH  11  20
ATOM     20  C   UNL     1       2.822   5.552  17.823  0.00  0.00    +0.000 C 
BRANCH  20  21
ATOM     21  C   UNL     1       4.334   5.459  17.736  0.00  0.00    +0.000 A 
ATOM     22  C   UNL     1       5.087   5.564  18.915  0.00  0.00    +0.000 A 
ATOM     23  C   UNL     1       6.470   5.367  18.899  0.00  0.00    +0.000 A 
ATOM     24  C   UNL     1       7.122   5.079  17.701  0.00  0.00    +0.000 A 
ATOM     25  C   UNL     1       6.398   5.052  16.515  0.00  0.00    +0.000 A 
ATOM     26 CL   UNL     1       7.194   4.707  15.028  0.00  0.00    +0.000 Cl
ATOM     27  C   UNL     1       5.020   5.269  16.524  0.00  0.00    +0.000 A 
ENDBRANCH  20  21
ENDBRANCH  11  20
TORSDOF 6
ENDMDL
MODEL 4
REMARK VINA RESULT:      -7.6      0.999      1.133
REMARK  Name = 
REMARK  7 active torsions:
REMARK  status: ('A' for Active; 'I' for Inactive)
REMARK    1  A    between atoms: C_1  and  C_2
REMARK    2  A    between atoms: C_2  and  C_3
REMARK    3  A    between atoms: C_3  and  C_4
REMARK    4  A    between atoms: C_4  and  C_5
REMARK    5  A    between atoms: C_5  and  C_6
REMARK    6  A    between atoms: C_16  and  C_17
REMARK    7  A    between atoms: C_17  and  C_18
REMARK                            x       y       z     vdW  Elec       q    Type
REMARK                         _______ _______ _______ _____ _____    ______ ____
ROOT
ATOM      1  C   UNL     1       2.092   6.206  20.126  0.00  0.00    +0.000 A 
ATOM      2  N   UNL     1       1.554   7.161  20.985  0.00  0.00    +0.000 N 
ATOM      3  C   UNL     1       1.327   8.433  20.604  0.00  0.00    +0.000 A 
ATOM      4  N   UNL     1       0.829   9.460  21.245  0.00  0.00    +0.000 NA
ATOM      5  C   UNL     1       0.905  10.454  20.314  0.00  0.00    +0.000 A 
ATOM      6  N   UNL     1       0.482  11.673  20.630  0.00  0.00    +0.000 N 
ATOM      7  N   UNL     1       1.385  10.109  19.125  0.00  0.00    +0.000 NA
ATOM      8  N   UNL     1       1.661   8.802  19.327  0.00  0.00    +0.000 N 
ATOM      9  C   UNL     1       2.202   7.952  18.369  0.00  0.00    +0.000 A 
ATOM     10  O   UNL     1       2.474   8.356  17.243  0.00  0.00    +0.000 OA
ATOM     11  C   UNL     1       2.400   6.533  18.839  0.00  0.00    +0.000 A 
ATOM     12  H   UNL     1       1.318   6.878  21.933  0.00  0.00    +0.000 HD
ATOM     13  H   UNL     1      -0.140  11.765  21.421  0.00  0.00    +0.000 HD
ATOM     14  H   UNL     1       0.302  12.310  19.864  0.00  0.00    +0.000 HD
ENDROOT
BRANCH   1  15
ATOM     15  C   UNL     1       2.359   4.836  20.743  0.00  0.00    +0.000 C 
BRANCH  15  16
ATOM     16  C   UNL     1       1.230   3.790  20.686  0.00  0.00    +0.000 C 
BRANCH  16  17
ATOM     17  C   UNL     1       1.681   2.417  20.182  0.00  0.00    +0.000 C 
BRANCH  17  19
ATOM     18  C   UNL     1       3.067   1.944  18.123  0.00  0.00    +0.000 C 
ATOM     19  C   UNL     1       1.702   2.364  18.649  0.00  0.00    +0.000 C 
ENDBRANCH  17  19
ENDBRANCH  16  17
ENDBRANCH  15  16
ENDBRANCH   1  15
BRANCH  11  20
ATOM     20  C   UNL     1       2.938   5.632  17.753  0.00  0.00    +0.000 C 
BRANCH  20  21
ATOM     21  C   UNL     1       4.446   5.689  17.592  0.00  0.00    +0.000 A 
ATOM     22  C   UNL     1       4.982   5.923  16.318  0.00  0.00    +0.000 A 
ATOM     23  C   UNL     1       6.357   6.100  16.143  0.00  0.00    +0.000 A 
ATOM     24  C   UNL     1       7.216   6.029  17.239  0.00  0.00    +0.000 A 
ATOM     25  C   UNL     1       6.705   5.719  18.493  0.00  0.00    +0.000 A 
ATOM     26 CL   UNL     1       7.758   5.619  19.851  0.00  0.00    +0.000 Cl
ATOM     27  C   UNL     1       5.335   5.520  18.667  0.00  0.00    +0.000 A 
ENDBRANCH  20  21
ENDBRANCH  11  20
TORSDOF 6
ENDMDL
MODEL 5
REMARK VINA RESULT:      -7.6      4.782      7.743
REMARK  Name = 
REMARK  7 active torsions:
REMARK  status: ('A' for Active; 'I' for Inactive)
REMARK    1  A    between atoms: C_1  and  C_2
REMARK    2  A    between atoms: C_2  and  C_3
REMARK    3  A    between atoms: C_3  and  C_4
REMARK    4  A    between atoms: C_4  and  C_5
REMARK    5  A    between atoms: C_5  and  C_6
REMARK    6  A    between atoms: C_16  and  C_17
REMARK    7  A    between atoms: C_17  and  C_18
REMARK                            x       y       z     vdW  Elec       q    Type
REMARK                         _______ _______ _______ _____ _____    ______ ____
ROOT
ATOM      1  C   UNL     1       7.047   5.965  17.277  0.00  0.00    +0.000 A 
ATOM      2  N   UNL     1       7.504   6.018  15.963  0.00  0.00    +0.000 N 
ATOM      3  C   UNL     1       7.040   5.197  15.000  0.00  0.00    +0.000 A 
ATOM      4  N   UNL     1       7.327   5.095  13.728  0.00  0.00    +0.000 NA
ATOM      5  C   UNL     1       6.543   4.051  13.331  0.00  0.00    +0.000 A 
ATOM      6  N   UNL     1       6.585   3.653  12.064  0.00  0.00    +0.000 N 
ATOM      7  N   UNL     1       5.763   3.516  14.263  0.00  0.00    +0.000 NA
ATOM      8  N   UNL     1       6.098   4.261  15.339  0.00  0.00    +0.000 N 
ATOM      9  C   UNL     1       5.556   4.101  16.610  0.00  0.00    +0.000 A 
ATOM     10  O   UNL     1       4.712   3.240  16.836  0.00  0.00    +0.000 OA
ATOM     11  C   UNL     1       6.085   5.070  17.636  0.00  0.00    +0.000 A 
ATOM     12  H   UNL     1       8.209   6.712  15.725  0.00  0.00    +0.000 HD
ATOM     13  H   UNL     1       6.953   4.298  11.380  0.00  0.00    +0.000 HD
ATOM     14  H   UNL     1       5.821   3.072  11.741  0.00  0.00    +0.000 HD
ENDROOT
BRANCH   1  15
ATOM     15  C   UNL     1       7.738   6.912  18.255  0.00  0.00    +0.000 C 
BRANCH  15  16
ATOM     16  C   UNL     1       7.933   8.377  17.821  0.00  0.00    +0.000 C 
BRANCH  16  17
ATOM     17  C   UNL     1       8.816   9.193  18.769  0.00  0.00    +0.000 C 
BRANCH  17  19
ATOM     18  C   UNL     1       9.583  11.539  19.309  0.00  0.00    +0.000 C 
ATOM     19  C   UNL     1       9.065  10.605  18.225  0.00  0.00    +0.000 C 
ENDBRANCH  17  19
ENDBRANCH  16  17
ENDBRANCH  15  16
ENDBRANCH   1  15
BRANCH  11  20
ATOM     20  C   UNL     1       5.431   4.898  18.987  0.00  0.00    +0.000 C 
BRANCH  20  21
ATOM     21  C   UNL     1       4.105   5.622  19.129  0.00  0.00    +0.000 A 
ATOM     22  C   UNL     1       3.196   5.185  20.104  0.00  0.00    +0.000 A 
ATOM     23  C   UNL     1       2.017   5.892  20.348  0.00  0.00    +0.000 A 
ATOM     24  C   UNL     1       1.721   7.037  19.610  0.00  0.00    +0.000 A 
ATOM     25  C   UNL     1       2.574   7.433  18.588  0.00  0.00    +0.000 A 
ATOM     26 CL   UNL     1       2.215   8.840  17.663  0.00  0.00    +0.000 Cl
ATOM     27  C   UNL     1       3.743   6.717  18.326  0.00  0.00    +0.000 A 
ENDBRANCH  20  21
ENDBRANCH  11  20
TORSDOF 6
ENDMDL
MODEL 6
REMARK VINA RESULT:      -7.6      4.186      6.220
REMARK  Name = 
REMARK  7 active torsions:
REMARK  status: ('A' for Active; 'I' for Inactive)
REMARK    1  A    between atoms: C_1  and  C_2
REMARK    2  A    between atoms: C_2  and  C_3
REMARK    3  A    between atoms: C_3  and  C_4
REMARK    4  A    between atoms: C_4  and  C_5
REMARK    5  A    between atoms: C_5  and  C_6
REMARK    6  A    between atoms: C_16  and  C_17
REMARK    7  A    between atoms: C_17  and  C_18
REMARK                            x       y       z     vdW  Elec       q    Type
REMARK                         _______ _______ _______ _____ _____    ______ ____
ROOT
ATOM      1  C   UNL     1       3.613   4.393  17.179  0.00  0.00    +0.000 A 
ATOM      2  N   UNL     1       4.210   4.000  15.984  0.00  0.00    +0.000 N 
ATOM      3  C   UNL     1       5.382   4.509  15.557  0.00  0.00    +0.000 A 
ATOM      4  N   UNL     1       6.100   4.270  14.489  0.00  0.00    +0.000 NA
ATOM      5  C   UNL     1       7.144   5.136  14.635  0.00  0.00    +0.000 A 
ATOM      6  N   UNL     1       8.091   5.173  13.703  0.00  0.00    +0.000 N 
ATOM      7  N   UNL     1       7.143   5.874  15.738  0.00  0.00    +0.000 NA
ATOM      8  N   UNL     1       5.996   5.465  16.323  0.00  0.00    +0.000 N 
ATOM      9  C   UNL     1       5.513   5.946  17.535  0.00  0.00    +0.000 A 
ATOM     10  O   UNL     1       6.122   6.803  18.166  0.00  0.00    +0.000 OA
ATOM     11  C   UNL     1       4.218   5.315  17.980  0.00  0.00    +0.000 A 
ATOM     12  H   UNL     1       3.741   3.295  15.420  0.00  0.00    +0.000 HD
ATOM     13  H   UNL     1       8.173   4.380  13.083  0.00  0.00    +0.000 HD
ATOM     14  H   UNL     1       8.966   5.615  13.957  0.00  0.00    +0.000 HD
ENDROOT
BRANCH   1  15
ATOM     15  C   UNL     1       2.247   3.777  17.470  0.00  0.00    +0.000 C 
BRANCH  15  16
ATOM     16  C   UNL     1       2.210   2.328  17.991  0.00  0.00    +0.000 C 
BRANCH  16  17
ATOM     17  C   UNL     1       1.244   2.113  19.160  0.00  0.00    +0.000 C 
BRANCH  17  19
ATOM     18  C   UNL     1       1.619   3.457  21.266  0.00  0.00    +0.000 C 
ATOM     19  C   UNL     1       0.957   3.427  19.896  0.00  0.00    +0.000 C 
ENDBRANCH  17  19
ENDBRANCH  16  17
ENDBRANCH  15  16
ENDBRANCH   1  15
BRANCH  11  20
ATOM     20  C   UNL     1       3.757   5.824  19.325  0.00  0.00    +0.000 C 
BRANCH  20  21
ATOM     21  C   UNL     1       2.854   7.042  19.249  0.00  0.00    +0.000 A 
ATOM     22  C   UNL     1       2.799   7.769  18.051  0.00  0.00    +0.000 A 
ATOM     23  C   UNL     1       1.896   8.824  17.897  0.00  0.00    +0.000 A 
ATOM     24  C   UNL     1       1.048   9.177  18.945  0.00  0.00    +0.000 A 
ATOM     25  C   UNL     1       1.149   8.516  20.163  0.00  0.00    +0.000 A 
ATOM     26 CL   UNL     1       0.114   8.950  21.467  0.00  0.00    +0.000 Cl
ATOM     27  C   UNL     1       2.065   7.476  20.327  0.00  0.00    +0.000 A 
ENDBRANCH  20  21
ENDBRANCH  11  20
TORSDOF 6
ENDMDL
MODEL 7
REMARK VINA RESULT:      -7.4      4.998      7.958
REMARK  Name = 
REMARK  7 active torsions:
REMARK  status: ('A' for Active; 'I' for Inactive)
REMARK    1  A    between atoms: C_1  and  C_2
REMARK    2  A    between atoms: C_2  and  C_3
REMARK    3  A    between atoms: C_3  and  C_4
REMARK    4  A    between atoms: C_4  and  C_5
REMARK    5  A    between atoms: C_5  and  C_6
REMARK    6  A    between atoms: C_16  and  C_17
REMARK    7  A    between atoms: C_17  and  C_18
REMARK                            x       y       z     vdW  Elec       q    Type
REMARK                         _______ _______ _______ _____ _____    ______ ____
ROOT
ATOM      1  C   UNL     1       7.228   6.075  17.338  0.00  0.00    +0.000 A 
ATOM      2  N   UNL     1       7.596   6.139  15.997  0.00  0.00    +0.000 N 
ATOM      3  C   UNL     1       7.113   5.288  15.071  0.00  0.00    +0.000 A 
ATOM      4  N   UNL     1       7.322   5.189  13.782  0.00  0.00    +0.000 NA
ATOM      5  C   UNL     1       6.568   4.104  13.443  0.00  0.00    +0.000 A 
ATOM      6  N   UNL     1       6.548   3.698  12.178  0.00  0.00    +0.000 N 
ATOM      7  N   UNL     1       5.877   3.539  14.426  0.00  0.00    +0.000 NA
ATOM      8  N   UNL     1       6.243   4.309  15.474  0.00  0.00    +0.000 N 
ATOM      9  C   UNL     1       5.792   4.133  16.778  0.00  0.00    +0.000 A 
ATOM     10  O   UNL     1       5.009   3.233  17.064  0.00  0.00    +0.000 OA
ATOM     11  C   UNL     1       6.336   5.136  17.763  0.00  0.00    +0.000 A 
ATOM     12  H   UNL     1       8.248   6.865  15.709  0.00  0.00    +0.000 HD
ATOM     13  H   UNL     1       6.839   4.355  11.468  0.00  0.00    +0.000 HD
ATOM     14  H   UNL     1       5.795   3.077  11.908  0.00  0.00    +0.000 HD
ENDROOT
BRANCH   1  15
ATOM     15  C   UNL     1       7.932   7.063  18.264  0.00  0.00    +0.000 C 
BRANCH  15  16
ATOM     16  C   UNL     1       7.991   8.540  17.828  0.00  0.00    +0.000 C 
BRANCH  16  17
ATOM     17  C   UNL     1       8.860   9.419  18.730  0.00  0.00    +0.000 C 
BRANCH  17  19
ATOM     18  C   UNL     1      10.102  11.614  18.890  0.00  0.00    +0.000 C 
ATOM     19  C   UNL     1       9.043  10.821  18.137  0.00  0.00    +0.000 C 
ENDBRANCH  17  19
ENDBRANCH  16  17
ENDBRANCH  15  16
ENDBRANCH   1  15
BRANCH  11  20
ATOM     20  C   UNL     1       5.781   4.944  19.155  0.00  0.00    +0.000 C 
BRANCH  20  21
ATOM     21  C   UNL     1       4.301   5.258  19.278  0.00  0.00    +0.000 A 
ATOM     22  C   UNL     1       3.803   6.419  18.671  0.00  0.00    +0.000 A 
ATOM     23  C   UNL     1       2.431   6.686  18.658  0.00  0.00    +0.000 A 
ATOM     24  C   UNL     1       1.542   5.804  19.268  0.00  0.00    +0.000 A 
ATOM     25  C   UNL     1       2.031   4.692  19.942  0.00  0.00    +0.000 A 
ATOM     26 CL   UNL     1       0.941   3.601  20.708  0.00  0.00    +0.000 Cl
ATOM     27  C   UNL     1       3.401   4.433  19.975  0.00  0.00    +0.000 A 
ENDBRANCH  20  21
ENDBRANCH  11  20
TORSDOF 6
ENDMDL
MODEL 8
REMARK VINA RESULT:      -7.2      4.712      6.717
REMARK  Name = 
REMARK  7 active torsions:
REMARK  status: ('A' for Active; 'I' for Inactive)
REMARK    1  A    between atoms: C_1  and  C_2
REMARK    2  A    between atoms: C_2  and  C_3
REMARK    3  A    between atoms: C_3  and  C_4
REMARK    4  A    between atoms: C_4  and  C_5
REMARK    5  A    between atoms: C_5  and  C_6
REMARK    6  A    between atoms: C_16  and  C_17
REMARK    7  A    between atoms: C_17  and  C_18
REMARK                            x       y       z     vdW  Elec       q    Type
REMARK                         _______ _______ _______ _____ _____    ______ ____
ROOT
ATOM      1  C   UNL     1       5.947   5.143  16.120  0.00  0.00    +0.000 A 
ATOM      2  N   UNL     1       6.672   6.324  15.987  0.00  0.00    +0.000 N 
ATOM      3  C   UNL     1       7.285   6.921  17.028  0.00  0.00    +0.000 A 
ATOM      4  N   UNL     1       8.009   8.008  17.108  0.00  0.00    +0.000 NA
ATOM      5  C   UNL     1       8.293   8.076  18.441  0.00  0.00    +0.000 A 
ATOM      6  N   UNL     1       9.025   9.086  18.897  0.00  0.00    +0.000 N 
ATOM      7  N   UNL     1       7.823   7.088  19.191  0.00  0.00    +0.000 NA
ATOM      8  N   UNL     1       7.168   6.350  18.268  0.00  0.00    +0.000 N 
ATOM      9  C   UNL     1       6.476   5.175  18.542  0.00  0.00    +0.000 A 
ATOM     10  O   UNL     1       6.417   4.724  19.681  0.00  0.00    +0.000 OA
ATOM     11  C   UNL     1       5.843   4.533  17.334  0.00  0.00    +0.000 A 
ATOM     12  H   UNL     1       6.746   6.743  15.062  0.00  0.00    +0.000 HD
ATOM     13  H   UNL     1       9.587   9.599  18.232  0.00  0.00    +0.000 HD
ATOM     14  H   UNL     1       9.437   8.976  19.815  0.00  0.00    +0.000 HD
ENDROOT
BRANCH   1  15
ATOM     15  C   UNL     1       5.251   4.648  14.855  0.00  0.00    +0.000 C 
BRANCH  15  16
ATOM     16  C   UNL     1       5.945   3.542  14.039  0.00  0.00    +0.000 C 
BRANCH  16  17
ATOM     17  C   UNL     1       6.003   3.823  12.535  0.00  0.00    +0.000 C 
BRANCH  17  19
ATOM     18  C   UNL     1       3.984   3.189  11.155  0.00  0.00    +0.000 C 
ATOM     19  C   UNL     1       5.310   2.716  11.732  0.00  0.00    +0.000 C 
ENDBRANCH  17  19
ENDBRANCH  16  17
ENDBRANCH  15  16
ENDBRANCH   1  15
BRANCH  11  20
ATOM     20  C   UNL     1       5.150   3.232  17.665  0.00  0.00    +0.000 C 
BRANCH  20  21
ATOM     21  C   UNL     1       3.763   3.404  18.258  0.00  0.00    +0.000 A 
ATOM     22  C   UNL     1       2.745   3.938  17.454  0.00  0.00    +0.000 A 
ATOM     23  C   UNL     1       1.429   4.005  17.920  0.00  0.00    +0.000 A 
ATOM     24  C   UNL     1       1.117   3.554  19.201  0.00  0.00    +0.000 A 
ATOM     25  C   UNL     1       2.131   3.099  20.035  0.00  0.00    +0.000 A 
ATOM     26 CL   UNL     1       1.758   2.550  21.623  0.00  0.00    +0.000 Cl
ATOM     27  C   UNL     1       3.449   3.050  19.581  0.00  0.00    +0.000 A 
ENDBRANCH  20  21
ENDBRANCH  11  20
TORSDOF 6
ENDMDL
MODEL 9
REMARK VINA RESULT:      -7.2      4.510      6.438
REMARK  Name = 
REMARK  7 active torsions:
REMARK  status: ('A' for Active; 'I' for Inactive)
REMARK    1  A    between atoms: C_1  and  C_2
REMARK    2  A    between atoms: C_2  and  C_3
REMARK    3  A    between atoms: C_3  and  C_4
REMARK    4  A    between atoms: C_4  and  C_5
REMARK    5  A    between atoms: C_5  and  C_6
REMARK    6  A    between atoms: C_16  and  C_17
REMARK    7  A    between atoms: C_17  and  C_18
REMARK                            x       y       z     vdW  Elec       q    Type
REMARK                         _______ _______ _______ _____ _____    ______ ____
ROOT
ATOM      1  C   UNL     1       4.713   3.789  16.880  0.00  0.00    +0.000 A 
ATOM      2  N   UNL     1       4.974   3.335  15.590  0.00  0.00    +0.000 N 
ATOM      3  C   UNL     1       5.864   3.936  14.776  0.00  0.00    +0.000 A 
ATOM      4  N   UNL     1       6.253   3.664  13.556  0.00  0.00    +0.000 NA
ATOM      5  C   UNL     1       7.139   4.669  13.298  0.00  0.00    +0.000 A 
ATOM      6  N   UNL     1       7.739   4.716  12.114  0.00  0.00    +0.000 N 
ATOM      7  N   UNL     1       7.353   5.530  14.285  0.00  0.00    +0.000 NA
ATOM      8  N   UNL     1       6.519   5.049  15.233  0.00  0.00    +0.000 N 
ATOM      9  C   UNL     1       6.355   5.606  16.497  0.00  0.00    +0.000 A 
ATOM     10  O   UNL     1       6.980   6.606  16.836  0.00  0.00    +0.000 OA
ATOM     11  C   UNL     1       5.376   4.872  17.376  0.00  0.00    +0.000 A 
ATOM     12  H   UNL     1       4.477   2.512  15.259  0.00  0.00    +0.000 HD
ATOM     13  H   UNL     1       7.756   3.871  11.561  0.00  0.00    +0.000 HD
ATOM     14  H   UNL     1       8.567   5.294  12.042  0.00  0.00    +0.000 HD
ENDROOT
BRANCH   1  15
ATOM     15  C   UNL     1       3.618   3.041  17.635  0.00  0.00    +0.000 C 
BRANCH  15  16
ATOM     16  C   UNL     1       2.158   3.473  17.399  0.00  0.00    +0.000 C 
BRANCH  16  17
ATOM     17  C   UNL     1       1.196   3.042  18.508  0.00  0.00    +0.000 C 
BRANCH  17  19
ATOM     18  C   UNL     1       1.354   2.772  21.015  0.00  0.00    +0.000 C 
ATOM     19  C   UNL     1       1.943   2.375  19.669  0.00  0.00    +0.000 C 
ENDBRANCH  17  19
ENDBRANCH  16  17
ENDBRANCH  15  16
ENDBRANCH   1  15
BRANCH  11  20
ATOM     20  C   UNL     1       5.268   5.476  18.756  0.00  0.00    +0.000 C 
BRANCH  20  21
ATOM     21  C   UNL     1       3.952   6.186  19.019  0.00  0.00    +0.000 A 
ATOM     22  C   UNL     1       3.165   5.772  20.104  0.00  0.00    +0.000 A 
ATOM     23  C   UNL     1       2.008   6.472  20.453  0.00  0.00    +0.000 A 
ATOM     24  C   UNL     1       1.612   7.584  19.713  0.00  0.00    +0.000 A 
ATOM     25  C   UNL     1       2.339   7.955  18.589  0.00  0.00    +0.000 A 
ATOM     26 CL   UNL     1       1.854   9.321  17.661  0.00  0.00    +0.000 Cl
ATOM     27  C   UNL     1       3.484   7.246  18.224  0.00  0.00    +0.000 A 
ENDBRANCH  20  21
ENDBRANCH  11  20
TORSDOF 6
ENDMDL
