MODEL 1
REMARK VINA RESULT:      -7.4      0.000      0.000
REMARK  Name = 
REMARK  6 active torsions:
REMARK  status: ('A' for Active; 'I' for Inactive)
REMARK    1  A    between atoms: C_1  and  C_2
REMARK    2  A    between atoms: C_2  and  O_3
REMARK    3  A    between atoms: O_3  and  C_4
REMARK    4  A    between atoms: N_9  and  S_10
REMARK    5  A    between atoms: S_10  and  C_13
REMARK    6  A    between atoms: C_20  and  C_21
REMARK                            x       y       z     vdW  Elec       q    Type
REMARK                         _______ _______ _______ _____ _____    ______ ____
ROOT
ATOM      1  S   UNL     1       3.025   5.983  19.018  0.00  0.00    +0.000 S 
ATOM      2  O   UNL     1       2.637   5.328  17.793  0.00  0.00    +0.000 OA
ATOM      3  O   UNL     1       2.902   5.309  20.293  0.00  0.00    +0.000 OA
ENDROOT
BRANCH   1   4
ATOM      4  C   UNL     1       2.109   7.500  19.106  0.00  0.00    +0.000 A 
ATOM      5  C   UNL     1       1.921   8.297  17.977  0.00  0.00    +0.000 A 
ATOM      6  C   UNL     1       1.157   9.461  18.087  0.00  0.00    +0.000 A 
ATOM      7  C   UNL     1       0.588   9.821  19.317  0.00  0.00    +0.000 A 
ATOM      8  C   UNL     1       0.779   9.007  20.443  0.00  0.00    +0.000 A 
ATOM      9  C   UNL     1       1.546   7.847  20.335  0.00  0.00    +0.000 A 
ATOM     10  S   UNL     1      -0.027   9.320  21.994  0.00  0.00    +0.000 S 
ATOM     11  C   UNL     1      -0.239  11.115  21.840  0.00  0.00    +0.000 C 
ATOM     12  C   UNL     1      -1.132  11.587  22.982  0.00  0.00    +0.000 C 
ATOM     13  C   UNL     1      -0.790  11.518  20.476  0.00  0.00    +0.000 C 
ATOM     14  O   UNL     1      -1.627  12.412  20.332  0.00  0.00    +0.000 OA
ATOM     15  N   UNL     1      -0.222  10.965  19.358  0.00  0.00    +0.000 N 
ATOM     16  H   UNL     1      -0.503  11.403  18.488  0.00  0.00    +0.000 HD
ENDBRANCH   1   4
BRANCH   1  22
ATOM     17  C   UNL     1       7.163   4.776  15.982  0.00  0.00    +0.000 C 
ATOM     18  O   UNL     1       7.927   3.867  16.284  0.00  0.00    +0.000 OA
ATOM     19  N   UNL     1       6.123   5.192  16.782  0.00  0.00    +0.000 N 
ATOM     20  C   UNL     1       5.943   4.551  18.081  0.00  0.00    +0.000 C 
ATOM     21  C   UNL     1       5.721   5.587  19.191  0.00  0.00    +0.000 C 
ATOM     22  N   UNL     1       4.624   6.545  18.844  0.00  0.00    +0.000 NA
ATOM     23  C   UNL     1       4.920   7.229  17.543  0.00  0.00    +0.000 C 
ATOM     24  C   UNL     1       5.139   6.218  16.408  0.00  0.00    +0.000 C 
BRANCH  17  25
ATOM     25  O   UNL     1       7.321   5.563  14.887  0.00  0.00    +0.000 OA
BRANCH  25  27
ATOM     26  C   UNL     1       6.064   3.962  13.637  0.00  0.00    +0.000 C 
ATOM     27  C   UNL     1       7.300   4.848  13.646  0.00  0.00    +0.000 C 
ENDBRANCH  25  27
ENDBRANCH  17  25
ENDBRANCH   1  22
TORSDOF 4
ENDMDL
MODEL 2
REMARK VINA RESULT:      -7.1      1.684      2.386
REMARK  Name = 
REMARK  6 active torsions:
REMARK  status: ('A' for Active; 'I' for Inactive)
REMARK    1  A    between atoms: C_1  and  C_2
REMARK    2  A    between atoms: C_2  and  O_3
REMARK    3  A    between atoms: O_3  and  C_4
REMARK    4  A    between atoms: N_9  and  S_10
REMARK    5  A    between atoms: S_10  and  C_13
REMARK    6  A    between atoms: C_20  and  C_21
REMARK                            x       y       z     vdW  Elec       q    Type
REMARK                         _______ _______ _______ _____ _____    ______ ____
ROOT
ATOM      1  S   UNL     1       3.678   5.431  19.067  0.00  0.00    +0.000 S 
ATOM      2  O   UNL     1       3.134   4.126  19.354  0.00  0.00    +0.000 OA
ATOM      3  O   UNL     1       5.001   5.801  19.523  0.00  0.00    +0.000 OA
ENDROOT
BRANCH   1   4
ATOM      4  C   UNL     1       2.524   6.623  19.699  0.00  0.00    +0.000 A 
ATOM      5  C   UNL     1       1.872   6.422  20.915  0.00  0.00    +0.000 A 
ATOM      6  C   UNL     1       1.004   7.408  21.391  0.00  0.00    +0.000 A 
ATOM      7  C   UNL     1       0.794   8.582  20.653  0.00  0.00    +0.000 A 
ATOM      8  C   UNL     1       1.462   8.774  19.435  0.00  0.00    +0.000 A 
ATOM      9  C   UNL     1       2.325   7.788  18.957  0.00  0.00    +0.000 A 
ATOM     10  S   UNL     1       1.360  10.292  18.520  0.00  0.00    +0.000 S 
ATOM     11  C   UNL     1      -0.270  10.849  19.088  0.00  0.00    +0.000 C 
ATOM     12  C   UNL     1      -0.481  12.277  18.598  0.00  0.00    +0.000 C 
ATOM     13  C   UNL     1      -0.426  10.734  20.602  0.00  0.00    +0.000 C 
ATOM     14  O   UNL     1      -1.005  11.585  21.281  0.00  0.00    +0.000 OA
ATOM     15  N   UNL     1      -0.038   9.566  21.206  0.00  0.00    +0.000 N 
ATOM     16  H   UNL     1      -0.330   9.480  22.172  0.00  0.00    +0.000 HD
ENDBRANCH   1   4
BRANCH   1  22
ATOM     17  C   UNL     1       6.844   4.698  14.916  0.00  0.00    +0.000 C 
ATOM     18  O   UNL     1       7.688   5.532  14.607  0.00  0.00    +0.000 OA
ATOM     19  N   UNL     1       5.933   4.880  15.932  0.00  0.00    +0.000 N 
ATOM     20  C   UNL     1       5.938   6.148  16.654  0.00  0.00    +0.000 C 
ATOM     21  C   UNL     1       4.518   6.711  16.807  0.00  0.00    +0.000 C 
ATOM     22  N   UNL     1       3.579   5.699  17.388  0.00  0.00    +0.000 NA
ATOM     23  C   UNL     1       3.562   4.458  16.545  0.00  0.00    +0.000 C 
ATOM     24  C   UNL     1       4.970   3.865  16.381  0.00  0.00    +0.000 C 
BRANCH  17  25
ATOM     25  O   UNL     1       6.622   3.555  14.218  0.00  0.00    +0.000 OA
BRANCH  25  27
ATOM     26  C   UNL     1       5.305   3.269  12.246  0.00  0.00    +0.000 C 
ATOM     27  C   UNL     1       6.648   3.724  12.796  0.00  0.00    +0.000 C 
ENDBRANCH  25  27
ENDBRANCH  17  25
ENDBRANCH   1  22
TORSDOF 4
ENDMDL
MODEL 3
REMARK VINA RESULT:      -7.1      1.194      1.802
REMARK  Name = 
REMARK  6 active torsions:
REMARK  status: ('A' for Active; 'I' for Inactive)
REMARK    1  A    between atoms: C_1  and  C_2
REMARK    2  A    between atoms: C_2  and  O_3
REMARK    3  A    between atoms: O_3  and  C_4
REMARK    4  A    between atoms: N_9  and  S_10
REMARK    5  A    between atoms: S_10  and  C_13
REMARK    6  A    between atoms: C_20  and  C_21
REMARK                            x       y       z     vdW  Elec       q    Type
REMARK                         _______ _______ _______ _____ _____    ______ ____
ROOT
ATOM      1  S   UNL     1       2.872   5.753  19.128  0.00  0.00    +0.000 S 
ATOM      2  O   UNL     1       2.282   5.404  17.858  0.00  0.00    +0.000 OA
ATOM      3  O   UNL     1       3.008   4.768  20.179  0.00  0.00    +0.000 OA
ENDROOT
BRANCH   1   4
ATOM      4  C   UNL     1       1.942   7.120  19.772  0.00  0.00    +0.000 A 
ATOM      5  C   UNL     1       1.343   7.057  21.031  0.00  0.00    +0.000 A 
ATOM      6  C   UNL     1       0.656   8.175  21.512  0.00  0.00    +0.000 A 
ATOM      7  C   UNL     1       0.571   9.341  20.738  0.00  0.00    +0.000 A 
ATOM      8  C   UNL     1       1.184   9.393  19.478  0.00  0.00    +0.000 A 
ATOM      9  C   UNL     1       1.866   8.277  18.994  0.00  0.00    +0.000 A 
ATOM     10  S   UNL     1       1.244  10.878  18.506  0.00  0.00    +0.000 S 
ATOM     11  C   UNL     1      -0.251  11.685  19.141  0.00  0.00    +0.000 C 
ATOM     12  C   UNL     1      -0.286  13.111  18.603  0.00  0.00    +0.000 C 
ATOM     13  C   UNL     1      -0.329  11.645  20.664  0.00  0.00    +0.000 C 
ATOM     14  O   UNL     1      -0.737  12.593  21.338  0.00  0.00    +0.000 OA
ATOM     15  N   UNL     1      -0.075  10.454  21.295  0.00  0.00    +0.000 N 
ATOM     16  H   UNL     1      -0.317  10.445  22.278  0.00  0.00    +0.000 HD
ENDBRANCH   1   4
BRANCH   1  22
ATOM     17  C   UNL     1       6.989   4.762  15.988  0.00  0.00    +0.000 C 
ATOM     18  O   UNL     1       7.859   3.963  16.316  0.00  0.00    +0.000 OA
ATOM     19  N   UNL     1       5.944   5.125  16.807  0.00  0.00    +0.000 N 
ATOM     20  C   UNL     1       5.887   4.568  18.155  0.00  0.00    +0.000 C 
ATOM     21  C   UNL     1       5.599   5.654  19.199  0.00  0.00    +0.000 C 
ATOM     22  N   UNL     1       4.392   6.465  18.839  0.00  0.00    +0.000 NA
ATOM     23  C   UNL     1       4.560   7.076  17.480  0.00  0.00    +0.000 C 
ATOM     24  C   UNL     1       4.841   6.011  16.409  0.00  0.00    +0.000 C 
BRANCH  17  25
ATOM     25  O   UNL     1       7.018   5.477  14.835  0.00  0.00    +0.000 OA
BRANCH  25  27
ATOM     26  C   UNL     1       5.925   3.867  13.449  0.00  0.00    +0.000 C 
ATOM     27  C   UNL     1       7.193   4.680  13.657  0.00  0.00    +0.000 C 
ENDBRANCH  25  27
ENDBRANCH  17  25
ENDBRANCH   1  22
TORSDOF 4
ENDMDL
MODEL 4
REMARK VINA RESULT:      -7.0      2.427      3.595
REMARK  Name = 
REMARK  6 active torsions:
REMARK  status: ('A' for Active; 'I' for Inactive)
REMARK    1  A    between atoms: C_1  and  C_2
REMARK    2  A    between atoms: C_2  and  O_3
REMARK    3  A    between atoms: O_3  and  C_4
REMARK    4  A    between atoms: N_9  and  S_10
REMARK    5  A    between atoms: S_10  and  C_13
REMARK    6  A    between atoms: C_20  and  C_21
REMARK                            x       y       z     vdW  Elec       q    Type
REMARK                         _______ _______ _______ _____ _____    ______ ____
ROOT
ATOM      1  S   UNL     1       2.642   3.291  17.869  0.00  0.00    +0.000 S 
ATOM      2  O   UNL     1       2.460   3.698  16.497  0.00  0.00    +0.000 OA
ATOM      3  O   UNL     1       1.949   2.137  18.400  0.00  0.00    +0.000 OA
ENDROOT
BRANCH   1   4
ATOM      4  C   UNL     1       2.238   4.691  18.882  0.00  0.00    +0.000 A 
ATOM      5  C   UNL     1       2.009   4.550  20.250  0.00  0.00    +0.000 A 
ATOM      6  C   UNL     1       1.735   5.688  21.013  0.00  0.00    +0.000 A 
ATOM      7  C   UNL     1       1.691   6.952  20.408  0.00  0.00    +0.000 A 
ATOM      8  C   UNL     1       1.930   7.080  19.032  0.00  0.00    +0.000 A 
ATOM      9  C   UNL     1       2.199   5.945  18.269  0.00  0.00    +0.000 A 
ATOM     10  S   UNL     1       2.035   8.658  18.225  0.00  0.00    +0.000 S 
ATOM     11  C   UNL     1       0.980   9.615  19.347  0.00  0.00    +0.000 C 
ATOM     12  C   UNL     1       1.103  11.088  18.975  0.00  0.00    +0.000 C 
ATOM     13  C   UNL     1       1.317   9.364  20.814  0.00  0.00    +0.000 C 
ATOM     14  O   UNL     1       1.322  10.260  21.661  0.00  0.00    +0.000 OA
ATOM     15  N   UNL     1       1.475   8.068  21.230  0.00  0.00    +0.000 N 
ATOM     16  H   UNL     1       1.517   7.956  22.236  0.00  0.00    +0.000 HD
ENDBRANCH   1   4
BRANCH   1  22
ATOM     17  C   UNL     1       6.993   6.079  16.827  0.00  0.00    +0.000 C 
ATOM     18  O   UNL     1       7.566   5.981  15.748  0.00  0.00    +0.000 OA
ATOM     19  N   UNL     1       5.910   5.309  17.185  0.00  0.00    +0.000 N 
ATOM     20  C   UNL     1       5.441   4.289  16.252  0.00  0.00    +0.000 C 
ATOM     21  C   UNL     1       5.195   2.951  16.963  0.00  0.00    +0.000 C 
ATOM     22  N   UNL     1       4.311   3.113  18.161  0.00  0.00    +0.000 NA
ATOM     23  C   UNL     1       4.900   4.111  19.113  0.00  0.00    +0.000 C 
ATOM     24  C   UNL     1       5.150   5.465  18.433  0.00  0.00    +0.000 C 
BRANCH  17  25
ATOM     25  O   UNL     1       7.430   6.865  17.844  0.00  0.00    +0.000 OA
BRANCH  25  27
ATOM     26  C   UNL     1       8.543   8.912  18.372  0.00  0.00    +0.000 C 
ATOM     27  C   UNL     1       7.453   8.263  17.533  0.00  0.00    +0.000 C 
ENDBRANCH  25  27
ENDBRANCH  17  25
ENDBRANCH   1  22
TORSDOF 4
ENDMDL
MODEL 5
REMARK VINA RESULT:      -6.9      3.014      8.951
REMARK  Name = 
REMARK  6 active torsions:
REMARK  status: ('A' for Active; 'I' for Inactive)
REMARK    1  A    between atoms: C_1  and  C_2
REMARK    2  A    between atoms: C_2  and  O_3
REMARK    3  A    between atoms: O_3  and  C_4
REMARK    4  A    between atoms: N_9  and  S_10
REMARK    5  A    between atoms: S_10  and  C_13
REMARK    6  A    between atoms: C_20  and  C_21
REMARK                            x       y       z     vdW  Elec       q    Type
REMARK                         _______ _______ _______ _____ _____    ______ ____
ROOT
ATOM      1  S   UNL     1       1.374   9.777  18.207  0.00  0.00    +0.000 S 
ATOM      2  O   UNL     1       0.149   9.520  17.490  0.00  0.00    +0.000 OA
ATOM      3  O   UNL     1       2.317  10.770  17.737  0.00  0.00    +0.000 OA
ENDROOT
BRANCH   1   4
ATOM      4  C   UNL     1       2.229   8.227  18.343  0.00  0.00    +0.000 A 
ATOM      5  C   UNL     1       3.291   7.912  17.496  0.00  0.00    +0.000 A 
ATOM      6  C   UNL     1       3.959   6.697  17.669  0.00  0.00    +0.000 A 
ATOM      7  C   UNL     1       3.564   5.810  18.681  0.00  0.00    +0.000 A 
ATOM      8  C   UNL     1       2.499   6.144  19.530  0.00  0.00    +0.000 A 
ATOM      9  C   UNL     1       1.829   7.353  19.355  0.00  0.00    +0.000 A 
ATOM     10  S   UNL     1       2.038   5.140  20.921  0.00  0.00    +0.000 S 
ATOM     11  C   UNL     1       2.621   3.535  20.311  0.00  0.00    +0.000 C 
ATOM     12  C   UNL     1       2.534   2.532  21.456  0.00  0.00    +0.000 C 
ATOM     13  C   UNL     1       4.027   3.615  19.724  0.00  0.00    +0.000 C 
ATOM     14  O   UNL     1       4.873   2.734  19.894  0.00  0.00    +0.000 OA
ATOM     15  N   UNL     1       4.309   4.634  18.852  0.00  0.00    +0.000 N 
ATOM     16  H   UNL     1       5.189   4.530  18.362  0.00  0.00    +0.000 HD
ENDBRANCH   1   4
BRANCH   1  22
ATOM     17  C   UNL     1      -1.498  13.388  20.758  0.00  0.00    +0.000 C 
ATOM     18  O   UNL     1      -1.028  14.481  21.051  0.00  0.00    +0.000 OA
ATOM     19  N   UNL     1      -0.767  12.377  20.175  0.00  0.00    +0.000 N 
ATOM     20  C   UNL     1       0.656  12.597  19.932  0.00  0.00    +0.000 C 
ATOM     21  C   UNL     1       1.496  11.401  20.398  0.00  0.00    +0.000 C 
ATOM     22  N   UNL     1       0.987  10.111  19.832  0.00  0.00    +0.000 NA
ATOM     23  C   UNL     1      -0.454   9.913  20.197  0.00  0.00    +0.000 C 
ATOM     24  C   UNL     1      -1.324  11.091  19.734  0.00  0.00    +0.000 C 
BRANCH  17  25
ATOM     25  O   UNL     1      -2.756  12.996  21.084  0.00  0.00    +0.000 OA
BRANCH  25  27
ATOM     26  C   UNL     1      -2.559  11.982  23.238  0.00  0.00    +0.000 C 
ATOM     27  C   UNL     1      -3.086  13.181  22.466  0.00  0.00    +0.000 C 
ENDBRANCH  25  27
ENDBRANCH  17  25
ENDBRANCH   1  22
TORSDOF 4
ENDMDL
MODEL 6
REMARK VINA RESULT:      -6.8      2.965      8.368
REMARK  Name = 
REMARK  6 active torsions:
REMARK  status: ('A' for Active; 'I' for Inactive)
REMARK    1  A    between atoms: C_1  and  C_2
REMARK    2  A    between atoms: C_2  and  O_3
REMARK    3  A    between atoms: O_3  and  C_4
REMARK    4  A    between atoms: N_9  and  S_10
REMARK    5  A    between atoms: S_10  and  C_13
REMARK    6  A    between atoms: C_20  and  C_21
REMARK                            x       y       z     vdW  Elec       q    Type
REMARK                         _______ _______ _______ _____ _____    ______ ____
ROOT
ATOM      1  S   UNL     1       3.634   3.002  18.991  0.00  0.00    +0.000 S 
ATOM      2  O   UNL     1       4.047   3.277  20.346  0.00  0.00    +0.000 OA
ATOM      3  O   UNL     1       3.471   1.642  18.526  0.00  0.00    +0.000 OA
ENDROOT
BRANCH   1   4
ATOM      4  C   UNL     1       4.795   3.815  17.922  0.00  0.00    +0.000 A 
ATOM      5  C   UNL     1       5.687   4.766  18.416  0.00  0.00    +0.000 A 
ATOM      6  C   UNL     1       6.610   5.348  17.543  0.00  0.00    +0.000 A 
ATOM      7  C   UNL     1       6.635   4.979  16.190  0.00  0.00    +0.000 A 
ATOM      8  C   UNL     1       5.736   4.017  15.709  0.00  0.00    +0.000 A 
ATOM      9  C   UNL     1       4.812   3.438  16.578  0.00  0.00    +0.000 A 
ATOM     10  S   UNL     1       5.804   3.394  14.047  0.00  0.00    +0.000 S 
ATOM     11  C   UNL     1       6.554   4.836  13.241  0.00  0.00    +0.000 C 
ATOM     12  C   UNL     1       6.925   4.443  11.816  0.00  0.00    +0.000 C 
ATOM     13  C   UNL     1       7.752   5.375  14.018  0.00  0.00    +0.000 C 
ATOM     14  O   UNL     1       8.775   5.786  13.467  0.00  0.00    +0.000 OA
ATOM     15  N   UNL     1       7.622   5.547  15.372  0.00  0.00    +0.000 N 
ATOM     16  H   UNL     1       8.376   6.072  15.798  0.00  0.00    +0.000 HD
ENDBRANCH   1   4
BRANCH   1  22
ATOM     17  C   UNL     1       1.644   7.679  20.391  0.00  0.00    +0.000 C 
ATOM     18  O   UNL     1       1.040   7.820  21.448  0.00  0.00    +0.000 OA
ATOM     19  N   UNL     1       2.103   6.464  19.935  0.00  0.00    +0.000 N 
ATOM     20  C   UNL     1       1.820   5.270  20.726  0.00  0.00    +0.000 C 
ATOM     21  C   UNL     1       1.298   4.126  19.846  0.00  0.00    +0.000 C 
ATOM     22  N   UNL     1       2.201   3.867  18.679  0.00  0.00    +0.000 NA
ATOM     23  C   UNL     1       2.374   5.115  17.866  0.00  0.00    +0.000 C 
ATOM     24  C   UNL     1       2.905   6.278  18.718  0.00  0.00    +0.000 C 
BRANCH  17  25
ATOM     25  O   UNL     1       1.823   8.674  19.486  0.00  0.00    +0.000 OA
BRANCH  25  27
ATOM     26  C   UNL     1       0.198   9.893  18.228  0.00  0.00    +0.000 C 
ATOM     27  C   UNL     1       0.864   9.734  19.586  0.00  0.00    +0.000 C 
ENDBRANCH  25  27
ENDBRANCH  17  25
ENDBRANCH   1  22
TORSDOF 4
ENDMDL
MODEL 7
REMARK VINA RESULT:      -6.8      2.533      9.427
REMARK  Name = 
REMARK  6 active torsions:
REMARK  status: ('A' for Active; 'I' for Inactive)
REMARK    1  A    between atoms: C_1  and  C_2
REMARK    2  A    between atoms: C_2  and  O_3
REMARK    3  A    between atoms: O_3  and  C_4
REMARK    4  A    between atoms: N_9  and  S_10
REMARK    5  A    between atoms: S_10  and  C_13
REMARK    6  A    between atoms: C_20  and  C_21
REMARK                            x       y       z     vdW  Elec       q    Type
REMARK                         _______ _______ _______ _____ _____    ______ ____
ROOT
ATOM      1  S   UNL     1       1.150  10.037  18.493  0.00  0.00    +0.000 S 
ATOM      2  O   UNL     1      -0.048   9.693  17.766  0.00  0.00    +0.000 OA
ATOM      3  O   UNL     1       2.119  10.955  17.936  0.00  0.00    +0.000 OA
ENDROOT
BRANCH   1   4
ATOM      4  C   UNL     1       1.983   8.516  18.869  0.00  0.00    +0.000 A 
ATOM      5  C   UNL     1       1.666   7.782  20.011  0.00  0.00    +0.000 A 
ATOM      6  C   UNL     1       2.319   6.569  20.243  0.00  0.00    +0.000 A 
ATOM      7  C   UNL     1       3.281   6.100  19.336  0.00  0.00    +0.000 A 
ATOM      8  C   UNL     1       3.584   6.844  18.187  0.00  0.00    +0.000 A 
ATOM      9  C   UNL     1       2.936   8.057  17.958  0.00  0.00    +0.000 A 
ATOM     10  S   UNL     1       4.680   6.245  16.924  0.00  0.00    +0.000 S 
ATOM     11  C   UNL     1       5.706   5.150  17.943  0.00  0.00    +0.000 C 
ATOM     12  C   UNL     1       6.596   4.334  17.014  0.00  0.00    +0.000 C 
ATOM     13  C   UNL     1       4.871   4.264  18.862  0.00  0.00    +0.000 C 
ATOM     14  O   UNL     1       5.148   3.083  19.084  0.00  0.00    +0.000 OA
ATOM     15  N   UNL     1       3.861   4.847  19.583  0.00  0.00    +0.000 N 
ATOM     16  H   UNL     1       3.466   4.252  20.301  0.00  0.00    +0.000 HD
ENDBRANCH   1   4
BRANCH   1  22
ATOM     17  C   UNL     1      -1.686  14.040  20.426  0.00  0.00    +0.000 C 
ATOM     18  O   UNL     1      -1.184  15.143  20.607  0.00  0.00    +0.000 OA
ATOM     19  N   UNL     1      -0.971  12.939  20.011  0.00  0.00    +0.000 N 
ATOM     20  C   UNL     1       0.470  13.075  19.818  0.00  0.00    +0.000 C 
ATOM     21  C   UNL     1       1.234  11.916  20.472  0.00  0.00    +0.000 C 
ATOM     22  N   UNL     1       0.699  10.585  20.042  0.00  0.00    +0.000 NA
ATOM     23  C   UNL     1      -0.765  10.486  20.351  0.00  0.00    +0.000 C 
ATOM     24  C   UNL     1      -1.560  11.629  19.702  0.00  0.00    +0.000 C 
BRANCH  17  25
ATOM     25  O   UNL     1      -2.974  13.738  20.731  0.00  0.00    +0.000 OA
BRANCH  25  27
ATOM     26  C   UNL     1      -3.375  12.626  22.807  0.00  0.00    +0.000 C 
ATOM     27  C   UNL     1      -3.320  13.972  22.101  0.00  0.00    +0.000 C 
ENDBRANCH  25  27
ENDBRANCH  17  25
ENDBRANCH   1  22
TORSDOF 4
ENDMDL
MODEL 8
REMARK VINA RESULT:      -6.8      2.600      9.208
REMARK  Name = 
REMARK  6 active torsions:
REMARK  status: ('A' for Active; 'I' for Inactive)
REMARK    1  A    between atoms: C_1  and  C_2
REMARK    2  A    between atoms: C_2  and  O_3
REMARK    3  A    between atoms: O_3  and  C_4
REMARK    4  A    between atoms: N_9  and  S_10
REMARK    5  A    between atoms: S_10  and  C_13
REMARK    6  A    between atoms: C_20  and  C_21
REMARK                            x       y       z     vdW  Elec       q    Type
REMARK                         _______ _______ _______ _____ _____    ______ ____
ROOT
ATOM      1  S   UNL     1       0.912   9.004  21.239  0.00  0.00    +0.000 S 
ATOM      2  O   UNL     1       1.834   9.183  22.333  0.00  0.00    +0.000 OA
ATOM      3  O   UNL     1      -0.428   8.509  21.470  0.00  0.00    +0.000 OA
ENDROOT
BRANCH   1   4
ATOM      4  C   UNL     1       1.701   7.930  20.067  0.00  0.00    +0.000 A 
ATOM      5  C   UNL     1       2.214   8.423  18.867  0.00  0.00    +0.000 A 
ATOM      6  C   UNL     1       2.864   7.546  17.996  0.00  0.00    +0.000 A 
ATOM      7  C   UNL     1       2.996   6.189  18.325  0.00  0.00    +0.000 A 
ATOM      8  C   UNL     1       2.482   5.709  19.538  0.00  0.00    +0.000 A 
ATOM      9  C   UNL     1       1.829   6.582  20.407  0.00  0.00    +0.000 A 
ATOM     10  S   UNL     1       2.738   4.039  20.088  0.00  0.00    +0.000 S 
ATOM     11  C   UNL     1       2.928   3.240  18.472  0.00  0.00    +0.000 C 
ATOM     12  C   UNL     1       3.392   1.806  18.703  0.00  0.00    +0.000 C 
ATOM     13  C   UNL     1       3.874   4.008  17.554  0.00  0.00    +0.000 C 
ATOM     14  O   UNL     1       4.683   3.449  16.810  0.00  0.00    +0.000 OA
ATOM     15  N   UNL     1       3.712   5.365  17.445  0.00  0.00    +0.000 N 
ATOM     16  H   UNL     1       4.243   5.788  16.693  0.00  0.00    +0.000 HD
ENDBRANCH   1   4
BRANCH   1  22
ATOM     17  C   UNL     1      -2.939  12.255  19.690  0.00  0.00    +0.000 C 
ATOM     18  O   UNL     1      -3.563  12.051  18.655  0.00  0.00    +0.000 OA
ATOM     19  N   UNL     1      -1.866  11.492  20.093  0.00  0.00    +0.000 N 
ATOM     20  C   UNL     1      -1.416  10.408  19.225  0.00  0.00    +0.000 C 
ATOM     21  C   UNL     1       0.108  10.426  19.051  0.00  0.00    +0.000 C 
ATOM     22  N   UNL     1       0.817  10.466  20.370  0.00  0.00    +0.000 NA
ATOM     23  C   UNL     1       0.368  11.653  21.169  0.00  0.00    +0.000 C 
ATOM     24  C   UNL     1      -1.155  11.659  21.368  0.00  0.00    +0.000 C 
BRANCH  17  25
ATOM     25  O   UNL     1      -3.145  13.328  20.496  0.00  0.00    +0.000 OA
BRANCH  25  27
ATOM     26  C   UNL     1      -4.420  13.127  22.506  0.00  0.00    +0.000 C 
ATOM     27  C   UNL     1      -4.477  13.420  21.015  0.00  0.00    +0.000 C 
ENDBRANCH  25  27
ENDBRANCH  17  25
ENDBRANCH   1  22
TORSDOF 4
ENDMDL
MODEL 9
REMARK VINA RESULT:      -6.8      2.613      9.442
REMARK  Name = 
REMARK  6 active torsions:
REMARK  status: ('A' for Active; 'I' for Inactive)
REMARK    1  A    between atoms: C_1  and  C_2
REMARK    2  A    between atoms: C_2  and  O_3
REMARK    3  A    between atoms: O_3  and  C_4
REMARK    4  A    between atoms: N_9  and  S_10
REMARK    5  A    between atoms: S_10  and  C_13
REMARK    6  A    between atoms: C_20  and  C_21
REMARK                            x       y       z     vdW  Elec       q    Type
REMARK                         _______ _______ _______ _____ _____    ______ ____
ROOT
ATOM      1  S   UNL     1       0.837   9.316  21.036  0.00  0.00    +0.000 S 
ATOM      2  O   UNL     1       1.753   9.562  22.124  0.00  0.00    +0.000 OA
ATOM      3  O   UNL     1      -0.502   8.828  21.288  0.00  0.00    +0.000 OA
ENDROOT
BRANCH   1   4
ATOM      4  C   UNL     1       1.639   8.181  19.932  0.00  0.00    +0.000 A 
ATOM      5  C   UNL     1       2.130   8.602  18.696  0.00  0.00    +0.000 A 
ATOM      6  C   UNL     1       2.791   7.682  17.879  0.00  0.00    +0.000 A 
ATOM      7  C   UNL     1       2.956   6.354  18.298  0.00  0.00    +0.000 A 
ATOM      8  C   UNL     1       2.464   5.946  19.547  0.00  0.00    +0.000 A 
ATOM      9  C   UNL     1       1.800   6.863  20.361  0.00  0.00    +0.000 A 
ATOM     10  S   UNL     1       2.763   4.325  20.207  0.00  0.00    +0.000 S 
ATOM     11  C   UNL     1       2.955   3.421  18.646  0.00  0.00    +0.000 C 
ATOM     12  C   UNL     1       3.453   2.017  18.969  0.00  0.00    +0.000 C 
ATOM     13  C   UNL     1       3.875   4.145  17.668  0.00  0.00    +0.000 C 
ATOM     14  O   UNL     1       4.689   3.554  16.954  0.00  0.00    +0.000 OA
ATOM     15  N   UNL     1       3.682   5.487  17.468  0.00  0.00    +0.000 N 
ATOM     16  H   UNL     1       4.196   5.869  16.684  0.00  0.00    +0.000 HD
ENDBRANCH   1   4
BRANCH   1  22
ATOM     17  C   UNL     1      -2.057  13.723  21.069  0.00  0.00    +0.000 C 
ATOM     18  O   UNL     1      -3.163  13.759  20.543  0.00  0.00    +0.000 OA
ATOM     19  N   UNL     1      -1.223  12.629  21.011  0.00  0.00    +0.000 N 
ATOM     20  C   UNL     1      -1.654  11.463  20.245  0.00  0.00    +0.000 C 
ATOM     21  C   UNL     1      -0.535  10.947  19.331  0.00  0.00    +0.000 C 
ATOM     22  N   UNL     1       0.740  10.726  20.085  0.00  0.00    +0.000 NA
ATOM     23  C   UNL     1       1.166  11.988  20.774  0.00  0.00    +0.000 C 
ATOM     24  C   UNL     1       0.069  12.525  21.704  0.00  0.00    +0.000 C 
BRANCH  17  25
ATOM     25  O   UNL     1      -1.468  14.792  21.663  0.00  0.00    +0.000 OA
BRANCH  25  27
ATOM     26  C   UNL     1      -1.797  14.733  24.028  0.00  0.00    +0.000 C 
ATOM     27  C   UNL     1      -2.241  15.371  22.721  0.00  0.00    +0.000 C 
ENDBRANCH  25  27
ENDBRANCH  17  25
ENDBRANCH   1  22
TORSDOF 4
ENDMDL
