MODEL 1
REMARK VINA RESULT:      -8.4      0.000      0.000
REMARK  Name = 
REMARK  4 active torsions:
REMARK  status: ('A' for Active; 'I' for Inactive)
REMARK    1  A    between atoms: C_1  and  N_2
REMARK    2  A    between atoms: C_4  and  C_5
REMARK    3  A    between atoms: C_8  and  C_9
REMARK    4  A    between atoms: C_9  and  N_10
REMARK                            x       y       z     vdW  Elec       q    Type
REMARK                         _______ _______ _______ _____ _____    ______ ____
ROOT
ATOM      1  C   UNL     1       3.979   4.715  19.313  0.00  0.00    +0.000 C 
ENDROOT
BRANCH   1   2
ATOM      2  N   UNL     1       5.155   4.479  18.503  0.00  0.00    +0.000 N 
ATOM      3  C   UNL     1       6.420   4.833  18.953  0.00  0.00    +0.000 C 
ATOM      4  O   UNL     1       6.760   5.336  20.003  0.00  0.00    +0.000 OA
ATOM      5  C   UNL     1       7.357   4.566  17.769  0.00  0.00    +0.000 C 
ATOM      6  O   UNL     1       8.526   4.263  17.822  0.00  0.00    +0.000 OA
ATOM      7  C   UNL     1       6.475   4.478  16.620  0.00  0.00    +0.000 A 
ATOM      8  C   UNL     1       6.752   4.655  15.290  0.00  0.00    +0.000 A 
ATOM      9  F   UNL     1       7.928   5.139  14.882  0.00  0.00    +0.000 F 
ATOM     10  C   UNL     1       5.726   4.439  14.376  0.00  0.00    +0.000 A 
ATOM     11  C   UNL     1       4.486   3.953  14.830  0.00  0.00    +0.000 A 
ATOM     12  C   UNL     1       4.213   3.858  16.202  0.00  0.00    +0.000 A 
ATOM     13  F   UNL     1       3.043   3.357  16.611  0.00  0.00    +0.000 F 
ATOM     14  C   UNL     1       5.194   4.224  17.109  0.00  0.00    +0.000 A 
ENDBRANCH   1   2
BRANCH   1  18
ATOM     15  C   UNL     1       1.963   8.552  18.739  0.00  0.00    +0.000 A 
ATOM     16  C   UNL     1       2.910   8.112  17.812  0.00  0.00    +0.000 A 
ATOM     17  C   UNL     1       3.572   6.872  17.970  0.00  0.00    +0.000 A 
ATOM     18  C   UNL     1       3.286   6.039  19.056  0.00  0.00    +0.000 A 
ATOM     19  C   UNL     1       2.377   6.518  20.009  0.00  0.00    +0.000 A 
ATOM     20  F   UNL     1       2.120   5.793  21.109  0.00  0.00    +0.000 F 
ATOM     21  C   UNL     1       1.720   7.736  19.855  0.00  0.00    +0.000 A 
BRANCH  15  25
ATOM     22  C   UNL     1      -1.750  11.835  18.011  0.00  0.00    +0.000 C 
ATOM     23  N   UNL     1      -0.467  11.214  18.253  0.00  0.00    +0.000 N 
ATOM     24  C   UNL     1      -0.138   9.892  18.183  0.00  0.00    +0.000 A 
ATOM     25  C   UNL     1       1.184   9.790  18.580  0.00  0.00    +0.000 A 
ATOM     26  C   UNL     1       1.558  11.132  18.832  0.00  0.00    +0.000 A 
ATOM     27  N   UNL     1       0.566  12.002  18.625  0.00  0.00    +0.000 NA
ENDBRANCH  15  25
ENDBRANCH   1  18
TORSDOF 3
ENDMDL
MODEL 2
REMARK VINA RESULT:      -8.2      2.735      3.719
REMARK  Name = 
REMARK  4 active torsions:
REMARK  status: ('A' for Active; 'I' for Inactive)
REMARK    1  A    between atoms: C_1  and  N_2
REMARK    2  A    between atoms: C_4  and  C_5
REMARK    3  A    between atoms: C_8  and  C_9
REMARK    4  A    between atoms: C_9  and  N_10
REMARK                            x       y       z     vdW  Elec       q    Type
REMARK                         _______ _______ _______ _____ _____    ______ ____
ROOT
ATOM      1  C   UNL     1       2.857   7.303  19.602  0.00  0.00    +0.000 C 
ENDROOT
BRANCH   1   2
ATOM      2  N   UNL     1       2.651   6.007  18.992  0.00  0.00    +0.000 N 
ATOM      3  C   UNL     1       1.897   5.027  19.625  0.00  0.00    +0.000 C 
ATOM      4  O   UNL     1       1.309   5.061  20.685  0.00  0.00    +0.000 OA
ATOM      5  C   UNL     1       2.043   3.778  18.747  0.00  0.00    +0.000 C 
ATOM      6  O   UNL     1       1.238   2.887  18.613  0.00  0.00    +0.000 OA
ATOM      7  C   UNL     1       3.203   4.049  17.920  0.00  0.00    +0.000 A 
ATOM      8  C   UNL     1       4.031   3.176  17.263  0.00  0.00    +0.000 A 
ATOM      9  F   UNL     1       3.957   1.858  17.467  0.00  0.00    +0.000 F 
ATOM     10  C   UNL     1       5.042   3.709  16.469  0.00  0.00    +0.000 A 
ATOM     11  C   UNL     1       5.118   5.102  16.288  0.00  0.00    +0.000 A 
ATOM     12  C   UNL     1       4.306   5.966  17.036  0.00  0.00    +0.000 A 
ATOM     13  F   UNL     1       4.367   7.284  16.819  0.00  0.00    +0.000 F 
ATOM     14  C   UNL     1       3.406   5.428  17.940  0.00  0.00    +0.000 A 
ENDBRANCH   1   2
BRANCH   1  18
ATOM     15  C   UNL     1      -0.445  10.151  19.279  0.00  0.00    +0.000 A 
ATOM     16  C   UNL     1       0.330   9.845  18.158  0.00  0.00    +0.000 A 
ATOM     17  C   UNL     1       1.400   8.922  18.233  0.00  0.00    +0.000 A 
ATOM     18  C   UNL     1       1.705   8.275  19.434  0.00  0.00    +0.000 A 
ATOM     19  C   UNL     1       0.957   8.633  20.564  0.00  0.00    +0.000 A 
ATOM     20  F   UNL     1       1.254   8.097  21.757  0.00  0.00    +0.000 F 
ATOM     21  C   UNL     1      -0.099   9.537  20.493  0.00  0.00    +0.000 A 
BRANCH  15  25
ATOM     22  C   UNL     1      -4.914  12.162  18.243  0.00  0.00    +0.000 C 
ATOM     23  N   UNL     1      -3.590  11.902  18.763  0.00  0.00    +0.000 N 
ATOM     24  C   UNL     1      -2.714  10.922  18.398  0.00  0.00    +0.000 A 
ATOM     25  C   UNL     1      -1.619  11.036  19.238  0.00  0.00    +0.000 A 
ATOM     26  C   UNL     1      -1.939  12.152  20.048  0.00  0.00    +0.000 A 
ATOM     27  N   UNL     1      -3.127  12.688  19.759  0.00  0.00    +0.000 NA
ENDBRANCH  15  25
ENDBRANCH   1  18
TORSDOF 3
ENDMDL
MODEL 3
REMARK VINA RESULT:      -8.1      2.936      4.340
REMARK  Name = 
REMARK  4 active torsions:
REMARK  status: ('A' for Active; 'I' for Inactive)
REMARK    1  A    between atoms: C_1  and  N_2
REMARK    2  A    between atoms: C_4  and  C_5
REMARK    3  A    between atoms: C_8  and  C_9
REMARK    4  A    between atoms: C_9  and  N_10
REMARK                            x       y       z     vdW  Elec       q    Type
REMARK                         _______ _______ _______ _____ _____    ______ ____
ROOT
ATOM      1  C   UNL     1       2.328   7.004  18.286  0.00  0.00    +0.000 C 
ENDROOT
BRANCH   1   2
ATOM      2  N   UNL     1       3.227   6.059  18.914  0.00  0.00    +0.000 N 
ATOM      3  C   UNL     1       4.571   6.008  18.569  0.00  0.00    +0.000 C 
ATOM      4  O   UNL     1       5.197   6.679  17.777  0.00  0.00    +0.000 OA
ATOM      5  C   UNL     1       5.135   4.801  19.329  0.00  0.00    +0.000 C 
ATOM      6  O   UNL     1       6.269   4.655  19.721  0.00  0.00    +0.000 OA
ATOM      7  C   UNL     1       3.966   4.031  19.708  0.00  0.00    +0.000 A 
ATOM      8  C   UNL     1       3.859   2.703  20.030  0.00  0.00    +0.000 A 
ATOM      9  F   UNL     1       4.879   1.859  19.849  0.00  0.00    +0.000 F 
ATOM     10  C   UNL     1       2.616   2.228  20.433  0.00  0.00    +0.000 A 
ATOM     11  C   UNL     1       1.549   3.130  20.593  0.00  0.00    +0.000 A 
ATOM     12  C   UNL     1       1.671   4.464  20.180  0.00  0.00    +0.000 A 
ATOM     13  F   UNL     1       0.658   5.314  20.378  0.00  0.00    +0.000 F 
ATOM     14  C   UNL     1       2.870   4.891  19.635  0.00  0.00    +0.000 A 
ENDBRANCH   1   2
BRANCH   1  18
ATOM     15  C   UNL     1       0.614  10.110  20.842  0.00  0.00    +0.000 A 
ATOM     16  C   UNL     1       1.143   8.947  21.408  0.00  0.00    +0.000 A 
ATOM     17  C   UNL     1       1.710   7.930  20.606  0.00  0.00    +0.000 A 
ATOM     18  C   UNL     1       1.771   8.064  19.215  0.00  0.00    +0.000 A 
ATOM     19  C   UNL     1       1.185   9.208  18.655  0.00  0.00    +0.000 A 
ATOM     20  F   UNL     1       1.150   9.354  17.321  0.00  0.00    +0.000 F 
ATOM     21  C   UNL     1       0.630  10.213  19.442  0.00  0.00    +0.000 A 
BRANCH  15  25
ATOM     22  C   UNL     1      -0.559  14.692  22.490  0.00  0.00    +0.000 C 
ATOM     23  N   UNL     1      -0.409  13.262  22.339  0.00  0.00    +0.000 N 
ATOM     24  C   UNL     1       0.340  12.580  21.425  0.00  0.00    +0.000 A 
ATOM     25  C   UNL     1       0.091  11.234  21.633  0.00  0.00    +0.000 A 
ATOM     26  C   UNL     1      -0.804  11.229  22.730  0.00  0.00    +0.000 A 
ATOM     27  N   UNL     1      -1.103  12.454  23.170  0.00  0.00    +0.000 NA
ENDBRANCH  15  25
ENDBRANCH   1  18
TORSDOF 3
ENDMDL
MODEL 4
REMARK VINA RESULT:      -8.1      3.527      8.276
REMARK  Name = 
REMARK  4 active torsions:
REMARK  status: ('A' for Active; 'I' for Inactive)
REMARK    1  A    between atoms: C_1  and  N_2
REMARK    2  A    between atoms: C_4  and  C_5
REMARK    3  A    between atoms: C_8  and  C_9
REMARK    4  A    between atoms: C_9  and  N_10
REMARK                            x       y       z     vdW  Elec       q    Type
REMARK                         _______ _______ _______ _____ _____    ______ ____
ROOT
ATOM      1  C   UNL     1       0.705   8.240  20.225  0.00  0.00    +0.000 C 
ENDROOT
BRANCH   1   2
ATOM      2  N   UNL     1       0.506   9.671  20.314  0.00  0.00    +0.000 N 
ATOM      3  C   UNL     1       0.902  10.383  21.438  0.00  0.00    +0.000 C 
ATOM      4  O   UNL     1       1.449  10.000  22.449  0.00  0.00    +0.000 OA
ATOM      5  C   UNL     1       0.389  11.810  21.210  0.00  0.00    +0.000 C 
ATOM      6  O   UNL     1       0.875  12.833  21.632  0.00  0.00    +0.000 OA
ATOM      7  C   UNL     1      -0.612  11.675  20.168  0.00  0.00    +0.000 A 
ATOM      8  C   UNL     1      -1.659  12.500  19.848  0.00  0.00    +0.000 A 
ATOM      9  F   UNL     1      -2.006  13.521  20.636  0.00  0.00    +0.000 F 
ATOM     10  C   UNL     1      -2.435  12.170  18.742  0.00  0.00    +0.000 A 
ATOM     11  C   UNL     1      -2.066  11.075  17.940  0.00  0.00    +0.000 A 
ATOM     12  C   UNL     1      -1.039  10.208  18.340  0.00  0.00    +0.000 A 
ATOM     13  F   UNL     1      -0.679   9.197  17.544  0.00  0.00    +0.000 F 
ATOM     14  C   UNL     1      -0.372  10.460  19.527  0.00  0.00    +0.000 A 
ENDBRANCH   1   2
BRANCH   1  18
ATOM     15  C   UNL     1       4.016   6.846  17.734  0.00  0.00    +0.000 A 
ATOM     16  C   UNL     1       3.364   8.044  17.429  0.00  0.00    +0.000 A 
ATOM     17  C   UNL     1       2.295   8.521  18.222  0.00  0.00    +0.000 A 
ATOM     18  C   UNL     1       1.865   7.812  19.349  0.00  0.00    +0.000 A 
ATOM     19  C   UNL     1       2.490   6.585  19.611  0.00  0.00    +0.000 A 
ATOM     20  F   UNL     1       2.069   5.829  20.636  0.00  0.00    +0.000 F 
ATOM     21  C   UNL     1       3.545   6.114  18.835  0.00  0.00    +0.000 A 
BRANCH  15  25
ATOM     22  C   UNL     1       6.986   4.603  14.381  0.00  0.00    +0.000 C 
ATOM     23  N   UNL     1       6.471   5.348  15.508  0.00  0.00    +0.000 N 
ATOM     24  C   UNL     1       5.178   5.465  15.928  0.00  0.00    +0.000 A 
ATOM     25  C   UNL     1       5.186   6.347  16.995  0.00  0.00    +0.000 A 
ATOM     26  C   UNL     1       6.557   6.669  17.148  0.00  0.00    +0.000 A 
ATOM     27  N   UNL     1       7.343   6.059  16.257  0.00  0.00    +0.000 NA
ENDBRANCH  15  25
ENDBRANCH   1  18
TORSDOF 3
ENDMDL
MODEL 5
REMARK VINA RESULT:      -7.9      2.613      3.828
REMARK  Name = 
REMARK  4 active torsions:
REMARK  status: ('A' for Active; 'I' for Inactive)
REMARK    1  A    between atoms: C_1  and  N_2
REMARK    2  A    between atoms: C_4  and  C_5
REMARK    3  A    between atoms: C_8  and  C_9
REMARK    4  A    between atoms: C_9  and  N_10
REMARK                            x       y       z     vdW  Elec       q    Type
REMARK                         _______ _______ _______ _____ _____    ______ ____
ROOT
ATOM      1  C   UNL     1       3.541   7.094  19.587  0.00  0.00    +0.000 C 
ENDROOT
BRANCH   1   2
ATOM      2  N   UNL     1       3.604   5.777  18.992  0.00  0.00    +0.000 N 
ATOM      3  C   UNL     1       4.234   5.568  17.773  0.00  0.00    +0.000 C 
ATOM      4  O   UNL     1       4.812   6.353  17.051  0.00  0.00    +0.000 OA
ATOM      5  C   UNL     1       3.955   4.101  17.422  0.00  0.00    +0.000 C 
ATOM      6  O   UNL     1       4.654   3.366  16.765  0.00  0.00    +0.000 OA
ATOM      7  C   UNL     1       2.841   3.730  18.274  0.00  0.00    +0.000 A 
ATOM      8  C   UNL     1       1.925   2.721  18.125  0.00  0.00    +0.000 A 
ATOM      9  F   UNL     1       1.846   2.014  16.994  0.00  0.00    +0.000 F 
ATOM     10  C   UNL     1       0.990   2.535  19.137  0.00  0.00    +0.000 A 
ATOM     11  C   UNL     1       1.076   3.308  20.310  0.00  0.00    +0.000 A 
ATOM     12  C   UNL     1       1.974   4.382  20.394  0.00  0.00    +0.000 A 
ATOM     13  F   UNL     1       2.067   5.078  21.532  0.00  0.00    +0.000 F 
ATOM     14  C   UNL     1       2.798   4.655  19.316  0.00  0.00    +0.000 A 
ENDBRANCH   1   2
BRANCH   1  18
ATOM     15  C   UNL     1       0.098   9.566  18.513  0.00  0.00    +0.000 A 
ATOM     16  C   UNL     1       1.029   9.199  17.539  0.00  0.00    +0.000 A 
ATOM     17  C   UNL     1       2.149   8.394  17.858  0.00  0.00    +0.000 A 
ATOM     18  C   UNL     1       2.349   7.928  19.161  0.00  0.00    +0.000 A 
ATOM     19  C   UNL     1       1.439   8.351  20.140  0.00  0.00    +0.000 A 
ATOM     20  F   UNL     1       1.624   7.994  21.420  0.00  0.00    +0.000 F 
ATOM     21  C   UNL     1       0.334   9.139  19.830  0.00  0.00    +0.000 A 
BRANCH  15  25
ATOM     22  C   UNL     1      -4.226  11.140  16.535  0.00  0.00    +0.000 C 
ATOM     23  N   UNL     1      -3.027  11.001  17.331  0.00  0.00    +0.000 N 
ATOM     24  C   UNL     1      -1.994  10.126  17.162  0.00  0.00    +0.000 A 
ATOM     25  C   UNL     1      -1.126  10.327  18.221  0.00  0.00    +0.000 A 
ATOM     26  C   UNL     1      -1.730  11.382  18.948  0.00  0.00    +0.000 A 
ATOM     27  N   UNL     1      -2.877  11.803  18.408  0.00  0.00    +0.000 NA
ENDBRANCH  15  25
ENDBRANCH   1  18
TORSDOF 3
ENDMDL
MODEL 6
REMARK VINA RESULT:      -7.9      2.322      3.014
REMARK  Name = 
REMARK  4 active torsions:
REMARK  status: ('A' for Active; 'I' for Inactive)
REMARK    1  A    between atoms: C_1  and  N_2
REMARK    2  A    between atoms: C_4  and  C_5
REMARK    3  A    between atoms: C_8  and  C_9
REMARK    4  A    between atoms: C_9  and  N_10
REMARK                            x       y       z     vdW  Elec       q    Type
REMARK                         _______ _______ _______ _____ _____    ______ ____
ROOT
ATOM      1  C   UNL     1       3.263   6.626  19.505  0.00  0.00    +0.000 C 
ENDROOT
BRANCH   1   2
ATOM      2  N   UNL     1       3.373   5.665  18.429  0.00  0.00    +0.000 N 
ATOM      3  C   UNL     1       2.646   4.483  18.445  0.00  0.00    +0.000 C 
ATOM      4  O   UNL     1       1.847   4.071  19.258  0.00  0.00    +0.000 OA
ATOM      5  C   UNL     1       3.148   3.687  17.233  0.00  0.00    +0.000 C 
ATOM      6  O   UNL     1       2.522   2.883  16.582  0.00  0.00    +0.000 OA
ATOM      7  C   UNL     1       4.409   4.313  16.884  0.00  0.00    +0.000 A 
ATOM      8  C   UNL     1       5.471   3.808  16.180  0.00  0.00    +0.000 A 
ATOM      9  F   UNL     1       5.539   2.513  15.857  0.00  0.00    +0.000 F 
ATOM     10  C   UNL     1       6.543   4.655  15.920  0.00  0.00    +0.000 A 
ATOM     11  C   UNL     1       6.461   6.009  16.291  0.00  0.00    +0.000 A 
ATOM     12  C   UNL     1       5.396   6.472  17.078  0.00  0.00    +0.000 A 
ATOM     13  F   UNL     1       5.318   7.770  17.386  0.00  0.00    +0.000 F 
ATOM     14  C   UNL     1       4.408   5.582  17.463  0.00  0.00    +0.000 A 
ENDBRANCH   1   2
BRANCH   1  18
ATOM     15  C   UNL     1       0.236   9.751  19.069  0.00  0.00    +0.000 A 
ATOM     16  C   UNL     1       1.018   9.374  17.974  0.00  0.00    +0.000 A 
ATOM     17  C   UNL     1       2.000   8.361  18.086  0.00  0.00    +0.000 A 
ATOM     18  C   UNL     1       2.207   7.694  19.298  0.00  0.00    +0.000 A 
ATOM     19  C   UNL     1       1.456   8.121  20.402  0.00  0.00    +0.000 A 
ATOM     20  F   UNL     1       1.666   7.567  21.605  0.00  0.00    +0.000 F 
ATOM     21  C   UNL     1       0.487   9.114  20.295  0.00  0.00    +0.000 A 
BRANCH  15  25
ATOM     22  C   UNL     1      -4.170  11.986  18.243  0.00  0.00    +0.000 C 
ATOM     23  N   UNL     1      -2.802  11.697  18.610  0.00  0.00    +0.000 N 
ATOM     24  C   UNL     1      -2.081  10.563  18.369  0.00  0.00    +0.000 A 
ATOM     25  C   UNL     1      -0.854  10.735  18.987  0.00  0.00    +0.000 A 
ATOM     26  C   UNL     1      -0.942  12.035  19.542  0.00  0.00    +0.000 A 
ATOM     27  N   UNL     1      -2.116  12.628  19.308  0.00  0.00    +0.000 NA
ENDBRANCH  15  25
ENDBRANCH   1  18
TORSDOF 3
ENDMDL
MODEL 7
REMARK VINA RESULT:      -7.8      2.816      3.600
REMARK  Name = 
REMARK  4 active torsions:
REMARK  status: ('A' for Active; 'I' for Inactive)
REMARK    1  A    between atoms: C_1  and  N_2
REMARK    2  A    between atoms: C_4  and  C_5
REMARK    3  A    between atoms: C_8  and  C_9
REMARK    4  A    between atoms: C_9  and  N_10
REMARK                            x       y       z     vdW  Elec       q    Type
REMARK                         _______ _______ _______ _____ _____    ______ ____
ROOT
ATOM      1  C   UNL     1       2.598   6.114  17.807  0.00  0.00    +0.000 C 
ENDROOT
BRANCH   1   2
ATOM      2  N   UNL     1       3.813   5.461  18.244  0.00  0.00    +0.000 N 
ATOM      3  C   UNL     1       3.794   4.512  19.257  0.00  0.00    +0.000 C 
ATOM      4  O   UNL     1       2.861   4.073  19.895  0.00  0.00    +0.000 OA
ATOM      5  C   UNL     1       5.268   4.179  19.524  0.00  0.00    +0.000 C 
ATOM      6  O   UNL     1       5.714   3.131  19.927  0.00  0.00    +0.000 OA
ATOM      7  C   UNL     1       6.002   5.277  18.925  0.00  0.00    +0.000 A 
ATOM      8  C   UNL     1       7.270   5.728  19.188  0.00  0.00    +0.000 A 
ATOM      9  F   UNL     1       7.966   5.276  20.234  0.00  0.00    +0.000 F 
ATOM     10  C   UNL     1       7.766   6.768  18.409  0.00  0.00    +0.000 A 
ATOM     11  C   UNL     1       7.006   7.247  17.327  0.00  0.00    +0.000 A 
ATOM     12  C   UNL     1       5.684   6.818  17.136  0.00  0.00    +0.000 A 
ATOM     13  F   UNL     1       4.993   7.256  16.079  0.00  0.00    +0.000 F 
ATOM     14  C   UNL     1       5.145   5.893  18.014  0.00  0.00    +0.000 A 
ENDBRANCH   1   2
BRANCH   1  18
ATOM     15  C   UNL     1       0.962   9.189  20.450  0.00  0.00    +0.000 A 
ATOM     16  C   UNL     1       1.092   7.872  20.900  0.00  0.00    +0.000 A 
ATOM     17  C   UNL     1       1.624   6.860  20.068  0.00  0.00    +0.000 A 
ATOM     18  C   UNL     1       2.052   7.150  18.769  0.00  0.00    +0.000 A 
ATOM     19  C   UNL     1       1.864   8.462  18.310  0.00  0.00    +0.000 A 
ATOM     20  F   UNL     1       2.189   8.779  17.048  0.00  0.00    +0.000 F 
ATOM     21  C   UNL     1       1.344   9.461  19.127  0.00  0.00    +0.000 A 
BRANCH  15  25
ATOM     22  C   UNL     1      -0.351  13.709  22.163  0.00  0.00    +0.000 C 
ATOM     23  N   UNL     1      -0.073  12.296  22.030  0.00  0.00    +0.000 N 
ATOM     24  C   UNL     1       0.535  11.646  20.996  0.00  0.00    +0.000 A 
ATOM     25  C   UNL     1       0.495  10.295  21.299  0.00  0.00    +0.000 A 
ATOM     26  C   UNL     1      -0.134  10.259  22.567  0.00  0.00    +0.000 A 
ATOM     27  N   UNL     1      -0.471  11.469  23.021  0.00  0.00    +0.000 NA
ENDBRANCH  15  25
ENDBRANCH   1  18
TORSDOF 3
ENDMDL
MODEL 8
REMARK VINA RESULT:      -7.8      4.400      8.704
REMARK  Name = 
REMARK  4 active torsions:
REMARK  status: ('A' for Active; 'I' for Inactive)
REMARK    1  A    between atoms: C_1  and  N_2
REMARK    2  A    between atoms: C_4  and  C_5
REMARK    3  A    between atoms: C_8  and  C_9
REMARK    4  A    between atoms: C_9  and  N_10
REMARK                            x       y       z     vdW  Elec       q    Type
REMARK                         _______ _______ _______ _____ _____    ______ ____
ROOT
ATOM      1  C   UNL     1       0.265  10.533  18.789  0.00  0.00    +0.000 C 
ENDROOT
BRANCH   1   2
ATOM      2  N   UNL     1       0.676  11.630  19.638  0.00  0.00    +0.000 N 
ATOM      3  C   UNL     1      -0.070  11.997  20.750  0.00  0.00    +0.000 C 
ATOM      4  O   UNL     1      -1.089  11.515  21.197  0.00  0.00    +0.000 OA
ATOM      5  C   UNL     1       0.600  13.270  21.281  0.00  0.00    +0.000 C 
ATOM      6  O   UNL     1       0.626  13.653  22.428  0.00  0.00    +0.000 OA
ATOM      7  C   UNL     1       1.414  13.741  20.177  0.00  0.00    +0.000 A 
ATOM      8  C   UNL     1       1.898  14.997  19.920  0.00  0.00    +0.000 A 
ATOM      9  F   UNL     1       1.497  16.056  20.630  0.00  0.00    +0.000 F 
ATOM     10  C   UNL     1       2.724  15.164  18.814  0.00  0.00    +0.000 A 
ATOM     11  C   UNL     1       3.114  14.039  18.066  0.00  0.00    +0.000 A 
ATOM     12  C   UNL     1       2.539  12.784  18.308  0.00  0.00    +0.000 A 
ATOM     13  F   UNL     1       2.953  11.721  17.611  0.00  0.00    +0.000 F 
ATOM     14  C   UNL     1       1.598  12.659  19.316  0.00  0.00    +0.000 A 
ENDBRANCH   1   2
BRANCH   1  18
ATOM     15  C   UNL     1       2.741   6.940  19.081  0.00  0.00    +0.000 A 
ATOM     16  C   UNL     1       2.728   7.690  17.902  0.00  0.00    +0.000 A 
ATOM     17  C   UNL     1       1.942   8.860  17.783  0.00  0.00    +0.000 A 
ATOM     18  C   UNL     1       1.161   9.311  18.853  0.00  0.00    +0.000 A 
ATOM     19  C   UNL     1       1.138   8.519  20.009  0.00  0.00    +0.000 A 
ATOM     20  F   UNL     1       0.350   8.865  21.038  0.00  0.00    +0.000 F 
ATOM     21  C   UNL     1       1.913   7.370  20.131  0.00  0.00    +0.000 A 
BRANCH  15  25
ATOM     22  C   UNL     1       4.418   2.312  20.006  0.00  0.00    +0.000 C 
ATOM     23  N   UNL     1       4.316   3.722  19.703  0.00  0.00    +0.000 N 
ATOM     24  C   UNL     1       3.209   4.519  19.742  0.00  0.00    +0.000 A 
ATOM     25  C   UNL     1       3.603   5.767  19.288  0.00  0.00    +0.000 A 
ATOM     26  C   UNL     1       4.987   5.605  19.038  0.00  0.00    +0.000 A 
ATOM     27  N   UNL     1       5.428   4.372  19.297  0.00  0.00    +0.000 NA
ENDBRANCH  15  25
ENDBRANCH   1  18
TORSDOF 3
ENDMDL
MODEL 9
REMARK VINA RESULT:      -7.7      2.813      3.998
REMARK  Name = 
REMARK  4 active torsions:
REMARK  status: ('A' for Active; 'I' for Inactive)
REMARK    1  A    between atoms: C_1  and  N_2
REMARK    2  A    between atoms: C_4  and  C_5
REMARK    3  A    between atoms: C_8  and  C_9
REMARK    4  A    between atoms: C_9  and  N_10
REMARK                            x       y       z     vdW  Elec       q    Type
REMARK                         _______ _______ _______ _____ _____    ______ ____
ROOT
ATOM      1  C   UNL     1       2.867   7.016  20.021  0.00  0.00    +0.000 C 
ENDROOT
BRANCH   1   2
ATOM      2  N   UNL     1       2.579   5.859  19.202  0.00  0.00    +0.000 N 
ATOM      3  C   UNL     1       1.707   4.870  19.637  0.00  0.00    +0.000 C 
ATOM      4  O   UNL     1       1.069   4.792  20.665  0.00  0.00    +0.000 OA
ATOM      5  C   UNL     1       1.788   3.768  18.573  0.00  0.00    +0.000 C 
ATOM      6  O   UNL     1       0.915   2.991  18.265  0.00  0.00    +0.000 OA
ATOM      7  C   UNL     1       3.011   4.052  17.847  0.00  0.00    +0.000 A 
ATOM      8  C   UNL     1       3.792   3.219  17.088  0.00  0.00    +0.000 A 
ATOM      9  F   UNL     1       3.589   1.899  17.072  0.00  0.00    +0.000 F 
ATOM     10  C   UNL     1       4.887   3.771  16.432  0.00  0.00    +0.000 A 
ATOM     11  C   UNL     1       5.096   5.161  16.482  0.00  0.00    +0.000 A 
ATOM     12  C   UNL     1       4.326   5.970  17.330  0.00  0.00    +0.000 A 
ATOM     13  F   UNL     1       4.516   7.293  17.333  0.00  0.00    +0.000 F 
ATOM     14  C   UNL     1       3.334   5.385  18.099  0.00  0.00    +0.000 A 
ENDBRANCH   1   2
BRANCH   1  18
ATOM     15  C   UNL     1      -0.321  10.009  19.959  0.00  0.00    +0.000 A 
ATOM     16  C   UNL     1      -0.121   9.220  21.095  0.00  0.00    +0.000 A 
ATOM     17  C   UNL     1       0.908   8.249  21.144  0.00  0.00    +0.000 A 
ATOM     18  C   UNL     1       1.768   8.060  20.058  0.00  0.00    +0.000 A 
ATOM     19  C   UNL     1       1.520   8.817  18.904  0.00  0.00    +0.000 A 
ATOM     20  F   UNL     1       2.268   8.624  17.807  0.00  0.00    +0.000 F 
ATOM     21  C   UNL     1       0.512   9.776  18.853  0.00  0.00    +0.000 A 
BRANCH  15  25
ATOM     22  C   UNL     1      -3.054  14.099  20.900  0.00  0.00    +0.000 C 
ATOM     23  N   UNL     1      -2.507  12.891  20.324  0.00  0.00    +0.000 N 
ATOM     24  C   UNL     1      -1.565  12.054  20.846  0.00  0.00    +0.000 A 
ATOM     25  C   UNL     1      -1.317  11.088  19.885  0.00  0.00    +0.000 A 
ATOM     26  C   UNL     1      -2.203  11.431  18.835  0.00  0.00    +0.000 A 
ATOM     27  N   UNL     1      -2.935  12.516  19.098  0.00  0.00    +0.000 NA
ENDBRANCH  15  25
ENDBRANCH   1  18
TORSDOF 3
ENDMDL
