MODEL 1
REMARK VINA RESULT:      -8.0      0.000      0.000
REMARK  Name = 
REMARK  12 active torsions:
REMARK  status: ('A' for Active; 'I' for Inactive)
REMARK    1  A    between atoms: C_1  and  C_2
REMARK    2  A    between atoms: C_2  and  C_3
REMARK    3  A    between atoms: C_4  and  C_5
REMARK    4  A    between atoms: C_5  and  N_6
REMARK    5  A    between atoms: C_8  and  C_9
REMARK    6  A    between atoms: C_9  and  O_11
REMARK    7  A    between atoms: C_16  and  C_17
REMARK    8  A    between atoms: C_20  and  C_21
REMARK    9  A    between atoms: C_24  and  O_25
REMARK   10  A    between atoms: O_25  and  C_26
REMARK   11  A    between atoms: C_26  and  C_27
REMARK   12  A    between atoms: C_26  and  C_28
REMARK                            x       y       z     vdW  Elec       q    Type
REMARK                         _______ _______ _______ _____ _____    ______ ____
ROOT
ATOM      1  C   UNL     1      -1.196  11.309  20.898  0.00  0.00    +0.000 A 
ATOM      2  C   UNL     1      -1.789  11.659  22.159  0.00  0.00    +0.000 A 
ATOM      3  C   UNL     1      -1.411  10.949  23.319  0.00  0.00    +0.000 A 
ATOM      4  C   UNL     1      -0.451   9.949  23.269  0.00  0.00    +0.000 A 
ATOM      5  C   UNL     1       0.183   9.659  22.066  0.00  0.00    +0.000 A 
ATOM      6  C   UNL     1      -0.143  10.346  20.884  0.00  0.00    +0.000 A 
ENDROOT
BRANCH   6   7
ATOM      7  C   UNL     1       0.707  10.053  19.717  0.00  0.00    +0.000 A 
ATOM      8  N   UNL     1       1.046  10.993  18.827  0.00  0.00    +0.000 NA
ATOM      9  S   UNL     1       2.047  10.287  17.712  0.00  0.00    +0.000 S 
ATOM     10  C   UNL     1       2.088   8.778  18.534  0.00  0.00    +0.000 A 
ATOM     11  N   UNL     1       1.281   8.781  19.576  0.00  0.00    +0.000 NA
BRANCH  10  12
ATOM     12  C   UNL     1       2.892   7.646  18.063  0.00  0.00    +0.000 A 
ATOM     13  C   UNL     1       4.126   7.830  17.424  0.00  0.00    +0.000 A 
ATOM     14  C   UNL     1       4.832   6.746  16.903  0.00  0.00    +0.000 A 
ATOM     15  C   UNL     1       4.304   5.456  16.969  0.00  0.00    +0.000 A 
ATOM     16  C   UNL     1       3.135   5.246  17.715  0.00  0.00    +0.000 A 
ATOM     17 CL   UNL     1       2.505   3.658  17.975  0.00  0.00    +0.000 Cl
ATOM     18  C   UNL     1       2.435   6.332  18.254  0.00  0.00    +0.000 A 
BRANCH  15  19
ATOM     19  O   UNL     1       4.897   4.387  16.347  0.00  0.00    +0.000 OA
BRANCH  19  20
ATOM     20  C   UNL     1       6.052   4.686  15.550  0.00  0.00    +0.000 C 
ATOM     21  C   UNL     1       7.293   4.297  16.337  0.00  0.00    +0.000 C 
ATOM     22  C   UNL     1       5.961   3.908  14.239  0.00  0.00    +0.000 C 
ENDBRANCH  19  20
ENDBRANCH  15  19
ENDBRANCH  10  12
ENDBRANCH   6   7
BRANCH   1  24
ATOM     23  C   UNL     1      -2.702  11.230  18.776  0.00  0.00    +0.000 C 
ATOM     24  C   UNL     1      -1.662  11.983  19.607  0.00  0.00    +0.000 C 
ENDBRANCH   1  24
BRANCH   2  25
ATOM     25  C   UNL     1      -2.877  12.726  22.278  0.00  0.00    +0.000 C 
BRANCH  25  26
ATOM     26  N   UNL     1      -4.213  12.278  22.759  0.00  0.00    +0.000 NA
ATOM     27  C   UNL     1      -4.412  12.639  24.179  0.00  0.00    +0.000 C 
ATOM     28  C   UNL     1      -5.681  13.423  23.800  0.00  0.00    +0.000 C 
ATOM     29  C   UNL     1      -5.213  13.291  22.344  0.00  0.00    +0.000 C 
BRANCH  28  30
ATOM     30  C   UNL     1      -7.073  12.865  24.154  0.00  0.00    +0.000 C 
ATOM     31  O   UNL     1      -7.440  11.711  23.950  0.00  0.00    +0.000 OA
BRANCH  30  32
ATOM     32  O   UNL     1      -7.916  13.754  24.748  0.00  0.00    +0.000 OA
ATOM     33  H   UNL     1      -7.846  14.653  24.367  0.00  0.00    +0.000 HD
ENDBRANCH  30  32
ENDBRANCH  28  30
ENDBRANCH  25  26
ENDBRANCH   2  25
TORSDOF 9
ENDMDL
MODEL 2
REMARK VINA RESULT:      -7.6      3.554     11.266
REMARK  Name = 
REMARK  12 active torsions:
REMARK  status: ('A' for Active; 'I' for Inactive)
REMARK    1  A    between atoms: C_1  and  C_2
REMARK    2  A    between atoms: C_2  and  C_3
REMARK    3  A    between atoms: C_4  and  C_5
REMARK    4  A    between atoms: C_5  and  N_6
REMARK    5  A    between atoms: C_8  and  C_9
REMARK    6  A    between atoms: C_9  and  O_11
REMARK    7  A    between atoms: C_16  and  C_17
REMARK    8  A    between atoms: C_20  and  C_21
REMARK    9  A    between atoms: C_24  and  O_25
REMARK   10  A    between atoms: O_25  and  C_26
REMARK   11  A    between atoms: C_26  and  C_27
REMARK   12  A    between atoms: C_26  and  C_28
REMARK                            x       y       z     vdW  Elec       q    Type
REMARK                         _______ _______ _______ _____ _____    ______ ____
ROOT
ATOM      1  C   UNL     1       1.302   8.833  20.331  0.00  0.00    +0.000 A 
ATOM      2  C   UNL     1       1.965   7.842  19.528  0.00  0.00    +0.000 A 
ATOM      3  C   UNL     1       2.216   8.114  18.166  0.00  0.00    +0.000 A 
ATOM      4  C   UNL     1       1.870   9.333  17.600  0.00  0.00    +0.000 A 
ATOM      5  C   UNL     1       1.299  10.324  18.390  0.00  0.00    +0.000 A 
ATOM      6  C   UNL     1       1.042  10.113  19.756  0.00  0.00    +0.000 A 
ENDROOT
BRANCH   6   7
ATOM      7  C   UNL     1       0.581  11.291  20.511  0.00  0.00    +0.000 A 
ATOM      8  N   UNL     1       1.386  12.325  20.781  0.00  0.00    +0.000 NA
ATOM      9  S   UNL     1       0.486  13.460  21.587  0.00  0.00    +0.000 S 
ATOM     10  C   UNL     1      -0.979  12.574  21.433  0.00  0.00    +0.000 A 
ATOM     11  N   UNL     1      -0.771  11.401  20.872  0.00  0.00    +0.000 NA
BRANCH  10  12
ATOM     12  C   UNL     1      -2.262  13.082  21.929  0.00  0.00    +0.000 A 
ATOM     13  C   UNL     1      -2.927  14.147  21.306  0.00  0.00    +0.000 A 
ATOM     14  C   UNL     1      -4.100  14.675  21.846  0.00  0.00    +0.000 A 
ATOM     15  C   UNL     1      -4.615  14.180  23.046  0.00  0.00    +0.000 A 
ATOM     16  C   UNL     1      -4.029  13.037  23.607  0.00  0.00    +0.000 A 
ATOM     17 CL   UNL     1      -4.702  12.273  25.003  0.00  0.00    +0.000 Cl
ATOM     18  C   UNL     1      -2.861  12.495  23.055  0.00  0.00    +0.000 A 
BRANCH  15  19
ATOM     19  O   UNL     1      -5.681  14.762  23.682  0.00  0.00    +0.000 OA
BRANCH  19  20
ATOM     20  C   UNL     1      -6.976  14.464  23.138  0.00  0.00    +0.000 C 
ATOM     21  C   UNL     1      -7.828  13.849  24.237  0.00  0.00    +0.000 C 
ATOM     22  C   UNL     1      -7.598  15.754  22.611  0.00  0.00    +0.000 C 
ENDBRANCH  19  20
ENDBRANCH  15  19
ENDBRANCH  10  12
ENDBRANCH   6   7
BRANCH   1  24
ATOM     23  C   UNL     1      -0.569   8.306  22.063  0.00  0.00    +0.000 C 
ATOM     24  C   UNL     1       0.919   8.529  21.779  0.00  0.00    +0.000 C 
ENDBRANCH   1  24
BRANCH   2  25
ATOM     25  C   UNL     1       2.342   6.468  20.079  0.00  0.00    +0.000 C 
BRANCH  25  26
ATOM     26  N   UNL     1       2.454   5.354  19.097  0.00  0.00    +0.000 NA
ATOM     27  C   UNL     1       3.757   4.665  19.226  0.00  0.00    +0.000 C 
ATOM     28  C   UNL     1       3.027   3.333  19.471  0.00  0.00    +0.000 C 
ATOM     29  C   UNL     1       1.756   4.173  19.661  0.00  0.00    +0.000 C 
BRANCH  28  30
ATOM     30  C   UNL     1       3.006   2.248  18.378  0.00  0.00    +0.000 C 
ATOM     31  O   UNL     1       3.614   1.182  18.433  0.00  0.00    +0.000 OA
BRANCH  30  32
ATOM     32  O   UNL     1       2.230   2.534  17.296  0.00  0.00    +0.000 OA
ATOM     33  H   UNL     1       1.906   1.729  16.841  0.00  0.00    +0.000 HD
ENDBRANCH  30  32
ENDBRANCH  28  30
ENDBRANCH  25  26
ENDBRANCH   2  25
TORSDOF 9
ENDMDL
MODEL 3
REMARK VINA RESULT:      -7.4      1.928      2.435
REMARK  Name = 
REMARK  12 active torsions:
REMARK  status: ('A' for Active; 'I' for Inactive)
REMARK    1  A    between atoms: C_1  and  C_2
REMARK    2  A    between atoms: C_2  and  C_3
REMARK    3  A    between atoms: C_4  and  C_5
REMARK    4  A    between atoms: C_5  and  N_6
REMARK    5  A    between atoms: C_8  and  C_9
REMARK    6  A    between atoms: C_9  and  O_11
REMARK    7  A    between atoms: C_16  and  C_17
REMARK    8  A    between atoms: C_20  and  C_21
REMARK    9  A    between atoms: C_24  and  O_25
REMARK   10  A    between atoms: O_25  and  C_26
REMARK   11  A    between atoms: C_26  and  C_27
REMARK   12  A    between atoms: C_26  and  C_28
REMARK                            x       y       z     vdW  Elec       q    Type
REMARK                         _______ _______ _______ _____ _____    ______ ____
ROOT
ATOM      1  C   UNL     1      -1.853  11.865  20.169  0.00  0.00    +0.000 A 
ATOM      2  C   UNL     1      -2.601  12.783  20.984  0.00  0.00    +0.000 A 
ATOM      3  C   UNL     1      -1.993  13.341  22.130  0.00  0.00    +0.000 A 
ATOM      4  C   UNL     1      -0.677  13.049  22.458  0.00  0.00    +0.000 A 
ATOM      5  C   UNL     1       0.076  12.223  21.632  0.00  0.00    +0.000 A 
ATOM      6  C   UNL     1      -0.474  11.654  20.470  0.00  0.00    +0.000 A 
ENDROOT
BRANCH   6   7
ATOM      7  C   UNL     1       0.469  10.929  19.602  0.00  0.00    +0.000 A 
ATOM      8  N   UNL     1       1.172  11.541  18.642  0.00  0.00    +0.000 NA
ATOM      9  S   UNL     1       2.151  10.405  17.939  0.00  0.00    +0.000 S 
ATOM     10  C   UNL     1       1.686   9.161  19.031  0.00  0.00    +0.000 A 
ATOM     11  N   UNL     1       0.737   9.573  19.846  0.00  0.00    +0.000 NA
BRANCH  10  12
ATOM     12  C   UNL     1       2.264   7.815  18.982  0.00  0.00    +0.000 A 
ATOM     13  C   UNL     1       2.052   6.881  20.006  0.00  0.00    +0.000 A 
ATOM     14  C   UNL     1       2.684   5.638  19.985  0.00  0.00    +0.000 A 
ATOM     15  C   UNL     1       3.578   5.312  18.963  0.00  0.00    +0.000 A 
ATOM     16  C   UNL     1       3.699   6.186  17.874  0.00  0.00    +0.000 A 
ATOM     17 CL   UNL     1       4.665   5.783  16.498  0.00  0.00    +0.000 Cl
ATOM     18  C   UNL     1       3.050   7.428  17.885  0.00  0.00    +0.000 A 
BRANCH  15  19
ATOM     19  O   UNL     1       4.325   4.163  18.980  0.00  0.00    +0.000 OA
BRANCH  19  20
ATOM     20  C   UNL     1       3.612   2.955  19.286  0.00  0.00    +0.000 C 
ATOM     21  C   UNL     1       3.495   2.131  18.014  0.00  0.00    +0.000 C 
ATOM     22  C   UNL     1       4.373   2.196  20.371  0.00  0.00    +0.000 C 
ENDBRANCH  19  20
ENDBRANCH  15  19
ENDBRANCH  10  12
ENDBRANCH   6   7
BRANCH   1  24
ATOM     23  C   UNL     1      -2.269  11.765  17.601  0.00  0.00    +0.000 C 
ATOM     24  C   UNL     1      -2.516  11.161  18.986  0.00  0.00    +0.000 C 
ENDBRANCH   1  24
BRANCH   2  25
ATOM     25  C   UNL     1      -4.064  13.120  20.698  0.00  0.00    +0.000 C 
BRANCH  25  26
ATOM     26  N   UNL     1      -5.084  12.523  21.603  0.00  0.00    +0.000 NA
ATOM     27  C   UNL     1      -4.719  12.730  23.021  0.00  0.00    +0.000 C 
ATOM     28  C   UNL     1      -6.061  13.442  23.261  0.00  0.00    +0.000 C 
ATOM     29  C   UNL     1      -6.202  13.488  21.734  0.00  0.00    +0.000 C 
BRANCH  28  30
ATOM     30  C   UNL     1      -7.179  12.744  24.059  0.00  0.00    +0.000 C 
ATOM     31  O   UNL     1      -7.436  11.544  24.005  0.00  0.00    +0.000 OA
BRANCH  30  32
ATOM     32  O   UNL     1      -7.897  13.559  24.880  0.00  0.00    +0.000 OA
ATOM     33  H   UNL     1      -7.502  14.452  24.965  0.00  0.00    +0.000 HD
ENDBRANCH  30  32
ENDBRANCH  28  30
ENDBRANCH  25  26
ENDBRANCH   2  25
TORSDOF 9
ENDMDL
MODEL 4
REMARK VINA RESULT:      -7.4      3.690     11.207
REMARK  Name = 
REMARK  12 active torsions:
REMARK  status: ('A' for Active; 'I' for Inactive)
REMARK    1  A    between atoms: C_1  and  C_2
REMARK    2  A    between atoms: C_2  and  C_3
REMARK    3  A    between atoms: C_4  and  C_5
REMARK    4  A    between atoms: C_5  and  N_6
REMARK    5  A    between atoms: C_8  and  C_9
REMARK    6  A    between atoms: C_9  and  O_11
REMARK    7  A    between atoms: C_16  and  C_17
REMARK    8  A    between atoms: C_20  and  C_21
REMARK    9  A    between atoms: C_24  and  O_25
REMARK   10  A    between atoms: O_25  and  C_26
REMARK   11  A    between atoms: C_26  and  C_27
REMARK   12  A    between atoms: C_26  and  C_28
REMARK                            x       y       z     vdW  Elec       q    Type
REMARK                         _______ _______ _______ _____ _____    ______ ____
ROOT
ATOM      1  C   UNL     1       1.402   8.772  20.270  0.00  0.00    +0.000 A 
ATOM      2  C   UNL     1       2.013   7.729  19.494  0.00  0.00    +0.000 A 
ATOM      3  C   UNL     1       2.237   7.936  18.116  0.00  0.00    +0.000 A 
ATOM      4  C   UNL     1       1.914   9.140  17.508  0.00  0.00    +0.000 A 
ATOM      5  C   UNL     1       1.394  10.181  18.269  0.00  0.00    +0.000 A 
ATOM      6  C   UNL     1       1.166  10.035  19.648  0.00  0.00    +0.000 A 
ENDROOT
BRANCH   6   7
ATOM      7  C   UNL     1       0.761  11.257  20.364  0.00  0.00    +0.000 A 
ATOM      8  N   UNL     1       1.508  12.367  20.361  0.00  0.00    +0.000 NA
ATOM      9  S   UNL     1       0.688  13.523  21.220  0.00  0.00    +0.000 S 
ATOM     10  C   UNL     1      -0.695  12.529  21.458  0.00  0.00    +0.000 A 
ATOM     11  N   UNL     1      -0.497  11.316  20.982  0.00  0.00    +0.000 NA
BRANCH  10  12
ATOM     12  C   UNL     1      -1.894  13.002  22.155  0.00  0.00    +0.000 A 
ATOM     13  C   UNL     1      -2.494  12.261  23.182  0.00  0.00    +0.000 A 
ATOM     14  C   UNL     1      -3.685  12.685  23.772  0.00  0.00    +0.000 A 
ATOM     15  C   UNL     1      -4.330  13.838  23.320  0.00  0.00    +0.000 A 
ATOM     16  C   UNL     1      -3.675  14.650  22.384  0.00  0.00    +0.000 A 
ATOM     17 CL   UNL     1      -4.334  16.171  21.893  0.00  0.00    +0.000 Cl
ATOM     18  C   UNL     1      -2.469  14.234  21.805  0.00  0.00    +0.000 A 
BRANCH  15  19
ATOM     19  O   UNL     1      -5.568  14.211  23.774  0.00  0.00    +0.000 OA
BRANCH  19  20
ATOM     20  C   UNL     1      -6.608  13.230  23.643  0.00  0.00    +0.000 C 
ATOM     21  C   UNL     1      -7.852  13.751  24.344  0.00  0.00    +0.000 C 
ATOM     22  C   UNL     1      -6.870  12.985  22.159  0.00  0.00    +0.000 C 
ENDBRANCH  19  20
ENDBRANCH  15  19
ENDBRANCH  10  12
ENDBRANCH   6   7
BRANCH   1  24
ATOM     23  C   UNL     1      -0.430   8.297  22.057  0.00  0.00    +0.000 C 
ATOM     24  C   UNL     1       1.046   8.541  21.738  0.00  0.00    +0.000 C 
ENDBRANCH   1  24
BRANCH   2  25
ATOM     25  C   UNL     1       2.362   6.367  20.093  0.00  0.00    +0.000 C 
BRANCH  25  26
ATOM     26  N   UNL     1       2.413   5.210  19.158  0.00  0.00    +0.000 NA
ATOM     27  C   UNL     1       3.793   4.692  19.032  0.00  0.00    +0.000 C 
ATOM     28  C   UNL     1       3.311   3.303  19.483  0.00  0.00    +0.000 C 
ATOM     29  C   UNL     1       2.008   3.996  19.906  0.00  0.00    +0.000 C 
BRANCH  28  30
ATOM     30  C   UNL     1       3.205   2.150  18.466  0.00  0.00    +0.000 C 
ATOM     31  O   UNL     1       2.354   2.066  17.584  0.00  0.00    +0.000 OA
BRANCH  30  32
ATOM     32  O   UNL     1       4.158   1.185  18.588  0.00  0.00    +0.000 OA
ATOM     33  H   UNL     1       5.065   1.551  18.614  0.00  0.00    +0.000 HD
ENDBRANCH  30  32
ENDBRANCH  28  30
ENDBRANCH  25  26
ENDBRANCH   2  25
TORSDOF 9
ENDMDL
MODEL 5
REMARK VINA RESULT:      -7.3      3.717     11.343
REMARK  Name = 
REMARK  12 active torsions:
REMARK  status: ('A' for Active; 'I' for Inactive)
REMARK    1  A    between atoms: C_1  and  C_2
REMARK    2  A    between atoms: C_2  and  C_3
REMARK    3  A    between atoms: C_4  and  C_5
REMARK    4  A    between atoms: C_5  and  N_6
REMARK    5  A    between atoms: C_8  and  C_9
REMARK    6  A    between atoms: C_9  and  O_11
REMARK    7  A    between atoms: C_16  and  C_17
REMARK    8  A    between atoms: C_20  and  C_21
REMARK    9  A    between atoms: C_24  and  O_25
REMARK   10  A    between atoms: O_25  and  C_26
REMARK   11  A    between atoms: C_26  and  C_27
REMARK   12  A    between atoms: C_26  and  C_28
REMARK                            x       y       z     vdW  Elec       q    Type
REMARK                         _______ _______ _______ _____ _____    ______ ____
ROOT
ATOM      1  C   UNL     1       1.362   8.820  20.274  0.00  0.00    +0.000 A 
ATOM      2  C   UNL     1       1.991   7.803  19.476  0.00  0.00    +0.000 A 
ATOM      3  C   UNL     1       2.246   8.058  18.111  0.00  0.00    +0.000 A 
ATOM      4  C   UNL     1       1.937   9.284  17.539  0.00  0.00    +0.000 A 
ATOM      5  C   UNL     1       1.400  10.297  18.324  0.00  0.00    +0.000 A 
ATOM      6  C   UNL     1       1.141  10.104  19.692  0.00  0.00    +0.000 A 
ENDROOT
BRANCH   6   7
ATOM      7  C   UNL     1       0.720  11.300  20.441  0.00  0.00    +0.000 A 
ATOM      8  N   UNL     1       1.444  12.425  20.454  0.00  0.00    +0.000 NA
ATOM      9  S   UNL     1       0.612  13.544  21.350  0.00  0.00    +0.000 S 
ATOM     10  C   UNL     1      -0.747  12.516  21.582  0.00  0.00    +0.000 A 
ATOM     11  N   UNL     1      -0.531  11.319  21.076  0.00  0.00    +0.000 NA
BRANCH  10  12
ATOM     12  C   UNL     1      -1.946  12.948  22.306  0.00  0.00    +0.000 A 
ATOM     13  C   UNL     1      -3.235  12.620  21.865  0.00  0.00    +0.000 A 
ATOM     14  C   UNL     1      -4.365  13.116  22.515  0.00  0.00    +0.000 A 
ATOM     15  C   UNL     1      -4.234  13.989  23.598  0.00  0.00    +0.000 A 
ATOM     16  C   UNL     1      -2.956  14.222  24.122  0.00  0.00    +0.000 A 
ATOM     17 CL   UNL     1      -2.726  15.163  25.553  0.00  0.00    +0.000 Cl
ATOM     18  C   UNL     1      -1.822  13.708  23.480  0.00  0.00    +0.000 A 
BRANCH  15  19
ATOM     19  O   UNL     1      -5.313  14.609  24.174  0.00  0.00    +0.000 OA
BRANCH  19  20
ATOM     20  C   UNL     1      -6.477  14.744  23.345  0.00  0.00    +0.000 C 
ATOM     21  C   UNL     1      -7.667  14.160  24.090  0.00  0.00    +0.000 C 
ATOM     22  C   UNL     1      -6.690  16.223  23.033  0.00  0.00    +0.000 C 
ENDBRANCH  19  20
ENDBRANCH  15  19
ENDBRANCH  10  12
ENDBRANCH   6   7
BRANCH   1  24
ATOM     23  C   UNL     1      -0.503   8.240  21.996  0.00  0.00    +0.000 C 
ATOM     24  C   UNL     1       0.974   8.537  21.725  0.00  0.00    +0.000 C 
ENDBRANCH   1  24
BRANCH   2  25
ATOM     25  C   UNL     1       2.325   6.421  20.035  0.00  0.00    +0.000 C 
BRANCH  25  26
ATOM     26  N   UNL     1       2.336   5.286  19.071  0.00  0.00    +0.000 NA
ATOM     27  C   UNL     1       3.700   4.738  18.914  0.00  0.00    +0.000 C 
ATOM     28  C   UNL     1       3.190   3.350  19.337  0.00  0.00    +0.000 C 
ATOM     29  C   UNL     1       1.911   4.064  19.795  0.00  0.00    +0.000 C 
BRANCH  28  30
ATOM     30  C   UNL     1       3.043   2.226  18.294  0.00  0.00    +0.000 C 
ATOM     31  O   UNL     1       2.196   2.199  17.404  0.00  0.00    +0.000 OA
BRANCH  30  32
ATOM     32  O   UNL     1       3.951   1.218  18.401  0.00  0.00    +0.000 OA
ATOM     33  H   UNL     1       3.632   0.479  18.959  0.00  0.00    +0.000 HD
ENDBRANCH  30  32
ENDBRANCH  28  30
ENDBRANCH  25  26
ENDBRANCH   2  25
TORSDOF 9
ENDMDL
MODEL 6
REMARK VINA RESULT:      -7.2      1.996      2.721
REMARK  Name = 
REMARK  12 active torsions:
REMARK  status: ('A' for Active; 'I' for Inactive)
REMARK    1  A    between atoms: C_1  and  C_2
REMARK    2  A    between atoms: C_2  and  C_3
REMARK    3  A    between atoms: C_4  and  C_5
REMARK    4  A    between atoms: C_5  and  N_6
REMARK    5  A    between atoms: C_8  and  C_9
REMARK    6  A    between atoms: C_9  and  O_11
REMARK    7  A    between atoms: C_16  and  C_17
REMARK    8  A    between atoms: C_20  and  C_21
REMARK    9  A    between atoms: C_24  and  O_25
REMARK   10  A    between atoms: O_25  and  C_26
REMARK   11  A    between atoms: C_26  and  C_27
REMARK   12  A    between atoms: C_26  and  C_28
REMARK                            x       y       z     vdW  Elec       q    Type
REMARK                         _______ _______ _______ _____ _____    ______ ____
ROOT
ATOM      1  C   UNL     1      -0.596  11.473  21.831  0.00  0.00    +0.000 A 
ATOM      2  C   UNL     1      -1.096  12.613  22.550  0.00  0.00    +0.000 A 
ATOM      3  C   UNL     1      -0.661  13.904  22.182  0.00  0.00    +0.000 A 
ATOM      4  C   UNL     1       0.207  14.095  21.116  0.00  0.00    +0.000 A 
ATOM      5  C   UNL     1       0.633  13.003  20.368  0.00  0.00    +0.000 A 
ATOM      6  C   UNL     1       0.218  11.697  20.680  0.00  0.00    +0.000 A 
ENDROOT
BRANCH   6   7
ATOM      7  C   UNL     1       0.613  10.652  19.720  0.00  0.00    +0.000 A 
ATOM      8  N   UNL     1       0.502  10.819  18.397  0.00  0.00    +0.000 NA
ATOM      9  S   UNL     1       1.100   9.456  17.669  0.00  0.00    +0.000 S 
ATOM     10  C   UNL     1       1.599   8.745  19.153  0.00  0.00    +0.000 A 
ATOM     11  N   UNL     1       1.231   9.480  20.182  0.00  0.00    +0.000 NA
BRANCH  10  12
ATOM     12  C   UNL     1       2.295   7.456  19.213  0.00  0.00    +0.000 A 
ATOM     13  C   UNL     1       3.259   7.090  18.263  0.00  0.00    +0.000 A 
ATOM     14  C   UNL     1       3.844   5.824  18.285  0.00  0.00    +0.000 A 
ATOM     15  C   UNL     1       3.449   4.875  19.230  0.00  0.00    +0.000 A 
ATOM     16  C   UNL     1       2.581   5.272  20.257  0.00  0.00    +0.000 A 
ATOM     17 CL   UNL     1       2.169   4.204  21.551  0.00  0.00    +0.000 Cl
ATOM     18  C   UNL     1       2.007   6.550  20.247  0.00  0.00    +0.000 A 
BRANCH  15  19
ATOM     19  O   UNL     1       3.894   3.579  19.199  0.00  0.00    +0.000 OA
BRANCH  19  20
ATOM     20  C   UNL     1       2.962   2.607  18.702  0.00  0.00    +0.000 C 
ATOM     21  C   UNL     1       2.366   3.130  17.406  0.00  0.00    +0.000 C 
ATOM     22  C   UNL     1       3.698   1.287  18.481  0.00  0.00    +0.000 C 
ENDBRANCH  19  20
ENDBRANCH  15  19
ENDBRANCH  10  12
ENDBRANCH   6   7
BRANCH   1  24
ATOM     23  C   UNL     1      -0.068   9.416  23.336  0.00  0.00    +0.000 C 
ATOM     24  C   UNL     1      -0.962  10.056  22.272  0.00  0.00    +0.000 C 
ENDBRANCH   1  24
BRANCH   2  25
ATOM     25  C   UNL     1      -2.026  12.472  23.754  0.00  0.00    +0.000 C 
BRANCH  25  26
ATOM     26  N   UNL     1      -3.435  12.079  23.477  0.00  0.00    +0.000 NA
ATOM     27  C   UNL     1      -4.274  12.235  24.685  0.00  0.00    +0.000 C 
ATOM     28  C   UNL     1      -5.210  13.179  23.910  0.00  0.00    +0.000 C 
ATOM     29  C   UNL     1      -4.115  13.229  22.836  0.00  0.00    +0.000 C 
BRANCH  28  30
ATOM     30  C   UNL     1      -6.610  12.703  23.478  0.00  0.00    +0.000 C 
ATOM     31  O   UNL     1      -6.852  12.070  22.453  0.00  0.00    +0.000 OA
BRANCH  30  32
ATOM     32  O   UNL     1      -7.617  13.019  24.338  0.00  0.00    +0.000 OA
ATOM     33  H   UNL     1      -7.742  13.986  24.434  0.00  0.00    +0.000 HD
ENDBRANCH  30  32
ENDBRANCH  28  30
ENDBRANCH  25  26
ENDBRANCH   2  25
TORSDOF 9
ENDMDL
MODEL 7
REMARK VINA RESULT:      -7.1      3.478      4.291
REMARK  Name = 
REMARK  12 active torsions:
REMARK  status: ('A' for Active; 'I' for Inactive)
REMARK    1  A    between atoms: C_1  and  C_2
REMARK    2  A    between atoms: C_2  and  C_3
REMARK    3  A    between atoms: C_4  and  C_5
REMARK    4  A    between atoms: C_5  and  N_6
REMARK    5  A    between atoms: C_8  and  C_9
REMARK    6  A    between atoms: C_9  and  O_11
REMARK    7  A    between atoms: C_16  and  C_17
REMARK    8  A    between atoms: C_20  and  C_21
REMARK    9  A    between atoms: C_24  and  O_25
REMARK   10  A    between atoms: O_25  and  C_26
REMARK   11  A    between atoms: C_26  and  C_27
REMARK   12  A    between atoms: C_26  and  C_28
REMARK                            x       y       z     vdW  Elec       q    Type
REMARK                         _______ _______ _______ _____ _____    ______ ____
ROOT
ATOM      1  C   UNL     1       0.802   9.677  20.002  0.00  0.00    +0.000 A 
ATOM      2  C   UNL     1       0.166  10.792  20.650  0.00  0.00    +0.000 A 
ATOM      3  C   UNL     1      -0.333  10.633  21.961  0.00  0.00    +0.000 A 
ATOM      4  C   UNL     1      -0.185   9.436  22.647  0.00  0.00    +0.000 A 
ATOM      5  C   UNL     1       0.496   8.380  22.054  0.00  0.00    +0.000 A 
ATOM      6  C   UNL     1       1.028   8.487  20.758  0.00  0.00    +0.000 A 
ENDROOT
BRANCH   6   7
ATOM      7  C   UNL     1       1.859   7.357  20.308  0.00  0.00    +0.000 A 
ATOM      8  N   UNL     1       1.629   6.100  20.705  0.00  0.00    +0.000 NA
ATOM      9  S   UNL     1       2.730   5.127  19.940  0.00  0.00    +0.000 S 
ATOM     10  C   UNL     1       3.393   6.412  19.010  0.00  0.00    +0.000 A 
ATOM     11  N   UNL     1       2.858   7.568  19.346  0.00  0.00    +0.000 NA
BRANCH  10  12
ATOM     12  C   UNL     1       4.454   6.202  18.021  0.00  0.00    +0.000 A 
ATOM     13  C   UNL     1       4.343   6.669  16.704  0.00  0.00    +0.000 A 
ATOM     14  C   UNL     1       5.323   6.381  15.755  0.00  0.00    +0.000 A 
ATOM     15  C   UNL     1       6.419   5.582  16.086  0.00  0.00    +0.000 A 
ATOM     16  C   UNL     1       6.603   5.217  17.427  0.00  0.00    +0.000 A 
ATOM     17 CL   UNL     1       8.014   4.363  17.943  0.00  0.00    +0.000 Cl
ATOM     18  C   UNL     1       5.628   5.522  18.385  0.00  0.00    +0.000 A 
BRANCH  15  19
ATOM     19  O   UNL     1       7.328   5.159  15.151  0.00  0.00    +0.000 OA
BRANCH  19  20
ATOM     20  C   UNL     1       6.840   5.047  13.806  0.00  0.00    +0.000 C 
ATOM     21  C   UNL     1       8.001   5.279  12.852  0.00  0.00    +0.000 C 
ATOM     22  C   UNL     1       6.235   3.658  13.615  0.00  0.00    +0.000 C 
ENDBRANCH  19  20
ENDBRANCH  15  19
ENDBRANCH  10  12
ENDBRANCH   6   7
BRANCH   1  24
ATOM     23  C   UNL     1       0.417   9.030  17.510  0.00  0.00    +0.000 C 
ATOM     24  C   UNL     1       1.255   9.782  18.546  0.00  0.00    +0.000 C 
ENDBRANCH   1  24
BRANCH   2  25
ATOM     25  C   UNL     1      -0.058  12.126  19.940  0.00  0.00    +0.000 C 
BRANCH  25  26
ATOM     26  N   UNL     1      -1.401  12.353  19.337  0.00  0.00    +0.000 NA
ATOM     27  C   UNL     1      -1.316  12.401  17.862  0.00  0.00    +0.000 C 
ATOM     28  C   UNL     1      -2.335  11.251  17.768  0.00  0.00    +0.000 C 
ATOM     29  C   UNL     1      -2.101  11.048  19.272  0.00  0.00    +0.000 C 
BRANCH  28  30
ATOM     30  C   UNL     1      -3.777  11.527  17.303  0.00  0.00    +0.000 C 
ATOM     31  O   UNL     1      -4.610  12.168  17.938  0.00  0.00    +0.000 OA
BRANCH  30  32
ATOM     32  O   UNL     1      -4.097  11.014  16.083  0.00  0.00    +0.000 OA
ATOM     33  H   UNL     1      -3.892  11.629  15.349  0.00  0.00    +0.000 HD
ENDBRANCH  30  32
ENDBRANCH  28  30
ENDBRANCH  25  26
ENDBRANCH   2  25
TORSDOF 9
ENDMDL
MODEL 8
REMARK VINA RESULT:      -7.1      3.452     11.686
REMARK  Name = 
REMARK  12 active torsions:
REMARK  status: ('A' for Active; 'I' for Inactive)
REMARK    1  A    between atoms: C_1  and  C_2
REMARK    2  A    between atoms: C_2  and  C_3
REMARK    3  A    between atoms: C_4  and  C_5
REMARK    4  A    between atoms: C_5  and  N_6
REMARK    5  A    between atoms: C_8  and  C_9
REMARK    6  A    between atoms: C_9  and  O_11
REMARK    7  A    between atoms: C_16  and  C_17
REMARK    8  A    between atoms: C_20  and  C_21
REMARK    9  A    between atoms: C_24  and  O_25
REMARK   10  A    between atoms: O_25  and  C_26
REMARK   11  A    between atoms: C_26  and  C_27
REMARK   12  A    between atoms: C_26  and  C_28
REMARK                            x       y       z     vdW  Elec       q    Type
REMARK                         _______ _______ _______ _____ _____    ______ ____
ROOT
ATOM      1  C   UNL     1       1.648   9.012  18.882  0.00  0.00    +0.000 A 
ATOM      2  C   UNL     1       2.360   7.766  18.803  0.00  0.00    +0.000 A 
ATOM      3  C   UNL     1       2.295   6.866  19.887  0.00  0.00    +0.000 A 
ATOM      4  C   UNL     1       1.527   7.144  21.008  0.00  0.00    +0.000 A 
ATOM      5  C   UNL     1       0.774   8.312  21.058  0.00  0.00    +0.000 A 
ATOM      6  C   UNL     1       0.788   9.236  20.000  0.00  0.00    +0.000 A 
ENDROOT
BRANCH   6   7
ATOM      7  C   UNL     1      -0.169  10.351  20.108  0.00  0.00    +0.000 A 
ATOM      8  N   UNL     1      -0.923  10.747  19.076  0.00  0.00    +0.000 NA
ATOM      9  S   UNL     1      -1.899  11.973  19.613  0.00  0.00    +0.000 S 
ATOM     10  C   UNL     1      -1.362  11.842  21.241  0.00  0.00    +0.000 A 
ATOM     11  N   UNL     1      -0.393  10.956  21.354  0.00  0.00    +0.000 NA
BRANCH  10  12
ATOM     12  C   UNL     1      -1.908  12.672  22.320  0.00  0.00    +0.000 A 
ATOM     13  C   UNL     1      -3.171  12.427  22.875  0.00  0.00    +0.000 A 
ATOM     14  C   UNL     1      -3.710  13.282  23.836  0.00  0.00    +0.000 A 
ATOM     15  C   UNL     1      -3.019  14.427  24.236  0.00  0.00    +0.000 A 
ATOM     16  C   UNL     1      -1.706  14.611  23.781  0.00  0.00    +0.000 A 
ATOM     17 CL   UNL     1      -0.730  15.919  24.352  0.00  0.00    +0.000 Cl
ATOM     18  C   UNL     1      -1.157  13.743  22.829  0.00  0.00    +0.000 A 
BRANCH  15  19
ATOM     19  O   UNL     1      -3.572  15.365  25.069  0.00  0.00    +0.000 OA
BRANCH  19  20
ATOM     20  C   UNL     1      -4.581  16.205  24.489  0.00  0.00    +0.000 C 
ATOM     21  C   UNL     1      -4.611  17.518  25.254  0.00  0.00    +0.000 C 
ATOM     22  C   UNL     1      -4.248  16.428  23.016  0.00  0.00    +0.000 C 
ENDBRANCH  19  20
ENDBRANCH  15  19
ENDBRANCH  10  12
ENDBRANCH   6   7
BRANCH   1  24
ATOM     23  C   UNL     1       2.525  11.346  18.132  0.00  0.00    +0.000 C 
ATOM     24  C   UNL     1       1.784  10.056  17.774  0.00  0.00    +0.000 C 
ENDBRANCH   1  24
BRANCH   2  25
ATOM     25  C   UNL     1       3.251   7.413  17.613  0.00  0.00    +0.000 C 
BRANCH  25  26
ATOM     26  N   UNL     1       4.381   6.477  17.869  0.00  0.00    +0.000 NA
ATOM     27  C   UNL     1       4.263   5.265  17.030  0.00  0.00    +0.000 C 
ATOM     28  C   UNL     1       5.656   5.542  16.437  0.00  0.00    +0.000 C 
ATOM     29  C   UNL     1       5.545   6.935  17.073  0.00  0.00    +0.000 C 
BRANCH  28  30
ATOM     30  C   UNL     1       6.859   4.669  16.841  0.00  0.00    +0.000 C 
ATOM     31  O   UNL     1       7.833   4.442  16.128  0.00  0.00    +0.000 OA
BRANCH  30  32
ATOM     32  O   UNL     1       6.795   4.144  18.096  0.00  0.00    +0.000 OA
ATOM     33  H   UNL     1       7.385   4.604  18.728  0.00  0.00    +0.000 HD
ENDBRANCH  30  32
ENDBRANCH  28  30
ENDBRANCH  25  26
ENDBRANCH   2  25
TORSDOF 9
ENDMDL
MODEL 9
REMARK VINA RESULT:      -7.0      3.294     11.797
REMARK  Name = 
REMARK  12 active torsions:
REMARK  status: ('A' for Active; 'I' for Inactive)
REMARK    1  A    between atoms: C_1  and  C_2
REMARK    2  A    between atoms: C_2  and  C_3
REMARK    3  A    between atoms: C_4  and  C_5
REMARK    4  A    between atoms: C_5  and  N_6
REMARK    5  A    between atoms: C_8  and  C_9
REMARK    6  A    between atoms: C_9  and  O_11
REMARK    7  A    between atoms: C_16  and  C_17
REMARK    8  A    between atoms: C_20  and  C_21
REMARK    9  A    between atoms: C_24  and  O_25
REMARK   10  A    between atoms: O_25  and  C_26
REMARK   11  A    between atoms: C_26  and  C_27
REMARK   12  A    between atoms: C_26  and  C_28
REMARK                            x       y       z     vdW  Elec       q    Type
REMARK                         _______ _______ _______ _____ _____    ______ ____
ROOT
ATOM      1  C   UNL     1       4.080   6.122  18.153  0.00  0.00    +0.000 A 
ATOM      2  C   UNL     1       4.542   4.763  18.079  0.00  0.00    +0.000 A 
ATOM      3  C   UNL     1       3.978   3.796  18.937  0.00  0.00    +0.000 A 
ATOM      4  C   UNL     1       2.959   4.124  19.820  0.00  0.00    +0.000 A 
ATOM      5  C   UNL     1       2.454   5.419  19.841  0.00  0.00    +0.000 A 
ATOM      6  C   UNL     1       2.967   6.419  18.997  0.00  0.00    +0.000 A 
ENDROOT
BRANCH   6   7
ATOM      7  C   UNL     1       2.244   7.701  19.006  0.00  0.00    +0.000 A 
ATOM      8  N   UNL     1       1.898   8.334  17.879  0.00  0.00    +0.000 NA
ATOM      9  S   UNL     1       1.055   9.694  18.308  0.00  0.00    +0.000 S 
ATOM     10  C   UNL     1       1.079   9.318  19.986  0.00  0.00    +0.000 A 
ATOM     11  N   UNL     1       1.795   8.238  20.222  0.00  0.00    +0.000 NA
BRANCH  10  12
ATOM     12  C   UNL     1       0.416  10.157  20.989  0.00  0.00    +0.000 A 
ATOM     13  C   UNL     1      -0.262   9.604  22.084  0.00  0.00    +0.000 A 
ATOM     14  C   UNL     1      -0.962  10.414  22.978  0.00  0.00    +0.000 A 
ATOM     15  C   UNL     1      -1.039  11.794  22.776  0.00  0.00    +0.000 A 
ATOM     16  C   UNL     1      -0.262  12.367  21.760  0.00  0.00    +0.000 A 
ATOM     17 CL   UNL     1      -0.180  14.080  21.547  0.00  0.00    +0.000 Cl
ATOM     18  C   UNL     1       0.456  11.555  20.873  0.00  0.00    +0.000 A 
BRANCH  15  19
ATOM     19  O   UNL     1      -1.830  12.605  23.547  0.00  0.00    +0.000 OA
BRANCH  19  20
ATOM     20  C   UNL     1      -3.219  12.653  23.189  0.00  0.00    +0.000 C 
ATOM     21  C   UNL     1      -4.044  12.285  24.412  0.00  0.00    +0.000 C 
ATOM     22  C   UNL     1      -3.553  14.059  22.698  0.00  0.00    +0.000 C 
ENDBRANCH  19  20
ENDBRANCH  15  19
ENDBRANCH  10  12
ENDBRANCH   6   7
BRANCH   1  24
ATOM     23  C   UNL     1       6.217   7.506  17.612  0.00  0.00    +0.000 C 
ATOM     24  C   UNL     1       4.744   7.215  17.316  0.00  0.00    +0.000 C 
ENDBRANCH   1  24
BRANCH   2  25
ATOM     25  C   UNL     1       5.684   4.342  17.155  0.00  0.00    +0.000 C 
BRANCH  25  26
ATOM     26  N   UNL     1       5.452   4.475  15.690  0.00  0.00    +0.000 NA
ATOM     27  C   UNL     1       6.682   4.915  14.997  0.00  0.00    +0.000 C 
ATOM     28  C   UNL     1       6.622   3.666  14.101  0.00  0.00    +0.000 C 
ATOM     29  C   UNL     1       5.572   3.128  15.082  0.00  0.00    +0.000 C 
BRANCH  28  30
ATOM     30  C   UNL     1       6.214   3.793  12.621  0.00  0.00    +0.000 C 
ATOM     31  O   UNL     1       5.130   3.445  12.158  0.00  0.00    +0.000 OA
BRANCH  30  32
ATOM     32  O   UNL     1       7.154   4.351  11.809  0.00  0.00    +0.000 OA
ATOM     33  H   UNL     1       7.960   4.622  12.295  0.00  0.00    +0.000 HD
ENDBRANCH  30  32
ENDBRANCH  28  30
ENDBRANCH  25  26
ENDBRANCH   2  25
TORSDOF 9
ENDMDL
