MODEL 1
REMARK VINA RESULT:      -7.2      0.000      0.000
REMARK  Name = 
REMARK  8 active torsions:
REMARK  status: ('A' for Active; 'I' for Inactive)
REMARK    1  A    between atoms: C_1  and  N_2
REMARK    2  A    between atoms: N_2  and  C_3
REMARK    3  A    between atoms: N_2  and  C_12
REMARK    4  A    between atoms: C_3  and  C_4
REMARK    5  A    between atoms: C_4  and  O_5
REMARK    6  A    between atoms: O_5  and  C_6
REMARK    7  A    between atoms: C_12  and  C_13
REMARK    8  A    between atoms: N_15  and  C_16
REMARK                            x       y       z     vdW  Elec       q    Type
REMARK                         _______ _______ _______ _____ _____    ______ ____
ROOT
ATOM      1  C   UNL     1       2.935   3.637  20.470  0.00  0.00    +0.000 C 
ENDROOT
BRANCH   1   2
ATOM      2  C   UNL     1       2.105   4.899  20.301  0.00  0.00    +0.000 C 
ATOM      3  O   UNL     1       0.889   4.826  20.492  0.00  0.00    +0.000 OA
ATOM      4  N   UNL     1       2.786   6.019  19.847  0.00  0.00    +0.000 N 
ATOM      5  H   UNL     1       3.739   5.888  19.533  0.00  0.00    +0.000 HD
BRANCH   4   6
ATOM      6  C   UNL     1       2.198   7.301  19.710  0.00  0.00    +0.000 A 
ATOM      7  C   UNL     1       1.544   7.929  20.774  0.00  0.00    +0.000 A 
ATOM      8  C   UNL     1       0.904   9.153  20.610  0.00  0.00    +0.000 A 
ATOM      9  C   UNL     1       0.946   9.788  19.370  0.00  0.00    +0.000 A 
ATOM     10 BR   UNL     1       0.061  11.442  19.154  0.00  0.00    +0.000 Br
ATOM     11  C   UNL     1       1.633   9.208  18.305  0.00  0.00    +0.000 A 
ATOM     12  C   UNL     1       2.258   7.973  18.482  0.00  0.00    +0.000 A 
ATOM     13  F   UNL     1       2.895   7.415  17.441  0.00  0.00    +0.000 F 
ENDBRANCH   4   6
ENDBRANCH   1   2
BRANCH   1  15
ATOM     14  C   UNL     1       1.283   2.328  19.281  0.00  0.00    +0.000 C 
ATOM     15  N   UNL     1       2.722   2.628  19.405  0.00  0.00    +0.000 NA
BRANCH  15  16
ATOM     16  C   UNL     1       3.209   3.158  18.104  0.00  0.00    +0.000 C 
BRANCH  16  17
ATOM     17  C   UNL     1       4.634   3.730  18.156  0.00  0.00    +0.000 C 
BRANCH  17  18
ATOM     18  O   UNL     1       4.641   5.048  17.608  0.00  0.00    +0.000 OA
BRANCH  18  19
ATOM     19  C   UNL     1       5.798   5.745  17.845  0.00  0.00    +0.000 A 
ATOM     20  C   UNL     1       6.604   5.231  18.860  0.00  0.00    +0.000 A 
ATOM     21  C   UNL     1       7.785   5.881  19.214  0.00  0.00    +0.000 A 
ATOM     22  C   UNL     1       8.182   7.031  18.535  0.00  0.00    +0.000 A 
ATOM     23  C   UNL     1       7.401   7.528  17.494  0.00  0.00    +0.000 A 
ATOM     24  C   UNL     1       6.211   6.887  17.149  0.00  0.00    +0.000 A 
ENDBRANCH  18  19
ENDBRANCH  17  18
ENDBRANCH  16  17
ENDBRANCH  15  16
ENDBRANCH   1  15
TORSDOF 7
ENDMDL
MODEL 2
REMARK VINA RESULT:      -7.2      1.711      2.286
REMARK  Name = 
REMARK  8 active torsions:
REMARK  status: ('A' for Active; 'I' for Inactive)
REMARK    1  A    between atoms: C_1  and  N_2
REMARK    2  A    between atoms: N_2  and  C_3
REMARK    3  A    between atoms: N_2  and  C_12
REMARK    4  A    between atoms: C_3  and  C_4
REMARK    5  A    between atoms: C_4  and  O_5
REMARK    6  A    between atoms: O_5  and  C_6
REMARK    7  A    between atoms: C_12  and  C_13
REMARK    8  A    between atoms: N_15  and  C_16
REMARK                            x       y       z     vdW  Elec       q    Type
REMARK                         _______ _______ _______ _____ _____    ______ ____
ROOT
ATOM      1  C   UNL     1       2.732   3.595  20.914  0.00  0.00    +0.000 C 
ENDROOT
BRANCH   1   2
ATOM      2  C   UNL     1       1.961   4.822  20.457  0.00  0.00    +0.000 C 
ATOM      3  O   UNL     1       0.734   4.741  20.372  0.00  0.00    +0.000 OA
ATOM      4  N   UNL     1       2.727   5.916  20.077  0.00  0.00    +0.000 N 
ATOM      5  H   UNL     1       3.727   5.779  20.000  0.00  0.00    +0.000 HD
BRANCH   4   6
ATOM      6  C   UNL     1       2.185   7.170  19.703  0.00  0.00    +0.000 A 
ATOM      7  C   UNL     1       2.293   7.660  18.398  0.00  0.00    +0.000 A 
ATOM      8  C   UNL     1       1.825   8.924  18.058  0.00  0.00    +0.000 A 
ATOM      9  C   UNL     1       1.200   9.707  19.026  0.00  0.00    +0.000 A 
ATOM     10 BR   UNL     1       0.583  11.430  18.558  0.00  0.00    +0.000 Br
ATOM     11  C   UNL     1       1.034   9.224  20.323  0.00  0.00    +0.000 A 
ATOM     12  C   UNL     1       1.521   7.959  20.652  0.00  0.00    +0.000 A 
ATOM     13  F   UNL     1       1.376   7.517  21.911  0.00  0.00    +0.000 F 
ENDBRANCH   4   6
ENDBRANCH   1   2
BRANCH   1  15
ATOM     14  C   UNL     1       4.527   2.028  20.497  0.00  0.00    +0.000 C 
ATOM     15  N   UNL     1       3.640   3.035  19.885  0.00  0.00    +0.000 NA
BRANCH  15  16
ATOM     16  C   UNL     1       2.844   2.378  18.815  0.00  0.00    +0.000 C 
BRANCH  16  17
ATOM     17  C   UNL     1       3.039   2.999  17.422  0.00  0.00    +0.000 C 
BRANCH  17  18
ATOM     18  O   UNL     1       3.644   4.285  17.552  0.00  0.00    +0.000 OA
BRANCH  18  19
ATOM     19  C   UNL     1       4.822   4.420  16.863  0.00  0.00    +0.000 A 
ATOM     20  C   UNL     1       5.968   4.490  17.654  0.00  0.00    +0.000 A 
ATOM     21  C   UNL     1       7.218   4.667  17.063  0.00  0.00    +0.000 A 
ATOM     22  C   UNL     1       7.332   4.743  15.676  0.00  0.00    +0.000 A 
ATOM     23  C   UNL     1       6.195   4.634  14.879  0.00  0.00    +0.000 A 
ATOM     24  C   UNL     1       4.942   4.473  15.471  0.00  0.00    +0.000 A 
ENDBRANCH  18  19
ENDBRANCH  17  18
ENDBRANCH  16  17
ENDBRANCH  15  16
ENDBRANCH   1  15
TORSDOF 7
ENDMDL
MODEL 3
REMARK VINA RESULT:      -7.2      1.288      1.923
REMARK  Name = 
REMARK  8 active torsions:
REMARK  status: ('A' for Active; 'I' for Inactive)
REMARK    1  A    between atoms: C_1  and  N_2
REMARK    2  A    between atoms: N_2  and  C_3
REMARK    3  A    between atoms: N_2  and  C_12
REMARK    4  A    between atoms: C_3  and  C_4
REMARK    5  A    between atoms: C_4  and  O_5
REMARK    6  A    between atoms: O_5  and  C_6
REMARK    7  A    between atoms: C_12  and  C_13
REMARK    8  A    between atoms: N_15  and  C_16
REMARK                            x       y       z     vdW  Elec       q    Type
REMARK                         _______ _______ _______ _____ _____    ______ ____
ROOT
ATOM      1  C   UNL     1       2.508   3.581  21.054  0.00  0.00    +0.000 C 
ENDROOT
BRANCH   1   2
ATOM      2  C   UNL     1       1.808   4.823  20.527  0.00  0.00    +0.000 C 
ATOM      3  O   UNL     1       0.591   4.770  20.341  0.00  0.00    +0.000 OA
ATOM      4  N   UNL     1       2.629   5.894  20.206  0.00  0.00    +0.000 N 
ATOM      5  H   UNL     1       3.629   5.733  20.213  0.00  0.00    +0.000 HD
BRANCH   4   6
ATOM      6  C   UNL     1       2.150   7.158  19.781  0.00  0.00    +0.000 A 
ATOM      7  C   UNL     1       2.309   7.601  18.464  0.00  0.00    +0.000 A 
ATOM      8  C   UNL     1       1.904   8.873  18.074  0.00  0.00    +0.000 A 
ATOM      9  C   UNL     1       1.292   9.713  19.003  0.00  0.00    +0.000 A 
ATOM     10 BR   UNL     1       0.761  11.444  18.467  0.00  0.00    +0.000 Br
ATOM     11  C   UNL     1       1.077   9.279  20.309  0.00  0.00    +0.000 A 
ATOM     12  C   UNL     1       1.502   8.005  20.689  0.00  0.00    +0.000 A 
ATOM     13  F   UNL     1       1.309   7.609  21.957  0.00  0.00    +0.000 F 
ENDBRANCH   4   6
ENDBRANCH   1   2
BRANCH   1  15
ATOM     14  C   UNL     1       2.150   2.957  18.744  0.00  0.00    +0.000 C 
ATOM     15  N   UNL     1       2.764   2.549  20.022  0.00  0.00    +0.000 NA
BRANCH  15  16
ATOM     16  C   UNL     1       4.228   2.395  19.815  0.00  0.00    +0.000 C 
BRANCH  16  17
ATOM     17  C   UNL     1       4.850   3.476  18.916  0.00  0.00    +0.000 C 
BRANCH  17  18
ATOM     18  O   UNL     1       5.590   4.397  19.717  0.00  0.00    +0.000 OA
BRANCH  18  19
ATOM     19  C   UNL     1       6.223   5.378  18.998  0.00  0.00    +0.000 A 
ATOM     20  C   UNL     1       5.484   5.912  17.943  0.00  0.00    +0.000 A 
ATOM     21  C   UNL     1       6.043   6.888  17.119  0.00  0.00    +0.000 A 
ATOM     22  C   UNL     1       7.332   7.358  17.366  0.00  0.00    +0.000 A 
ATOM     23  C   UNL     1       8.060   6.857  18.442  0.00  0.00    +0.000 A 
ATOM     24  C   UNL     1       7.507   5.869  19.257  0.00  0.00    +0.000 A 
ENDBRANCH  18  19
ENDBRANCH  17  18
ENDBRANCH  16  17
ENDBRANCH  15  16
ENDBRANCH   1  15
TORSDOF 7
ENDMDL
MODEL 4
REMARK VINA RESULT:      -7.1      2.397      4.642
REMARK  Name = 
REMARK  8 active torsions:
REMARK  status: ('A' for Active; 'I' for Inactive)
REMARK    1  A    between atoms: C_1  and  N_2
REMARK    2  A    between atoms: N_2  and  C_3
REMARK    3  A    between atoms: N_2  and  C_12
REMARK    4  A    between atoms: C_3  and  C_4
REMARK    5  A    between atoms: C_4  and  O_5
REMARK    6  A    between atoms: O_5  and  C_6
REMARK    7  A    between atoms: C_12  and  C_13
REMARK    8  A    between atoms: N_15  and  C_16
REMARK                            x       y       z     vdW  Elec       q    Type
REMARK                         _______ _______ _______ _____ _____    ______ ____
ROOT
ATOM      1  C   UNL     1       5.649   6.026  15.875  0.00  0.00    +0.000 C 
ENDROOT
BRANCH   1   2
ATOM      2  C   UNL     1       4.984   6.662  17.083  0.00  0.00    +0.000 C 
ATOM      3  O   UNL     1       5.688   6.946  18.054  0.00  0.00    +0.000 OA
ATOM      4  N   UNL     1       3.602   6.781  17.025  0.00  0.00    +0.000 N 
ATOM      5  H   UNL     1       3.127   6.321  16.258  0.00  0.00    +0.000 HD
BRANCH   4   6
ATOM      6  C   UNL     1       2.820   7.421  18.018  0.00  0.00    +0.000 A 
ATOM      7  C   UNL     1       2.209   8.658  17.790  0.00  0.00    +0.000 A 
ATOM      8  C   UNL     1       1.507   9.315  18.795  0.00  0.00    +0.000 A 
ATOM      9  C   UNL     1       1.375   8.713  20.045  0.00  0.00    +0.000 A 
ATOM     10 BR   UNL     1       0.433   9.620  21.407  0.00  0.00    +0.000 Br
ATOM     11  C   UNL     1       1.932   7.458  20.284  0.00  0.00    +0.000 A 
ATOM     12  C   UNL     1       2.646   6.818  19.270  0.00  0.00    +0.000 A 
ATOM     13  F   UNL     1       3.197   5.621  19.523  0.00  0.00    +0.000 F 
ENDBRANCH   4   6
ENDBRANCH   1   2
BRANCH   1  15
ATOM     14  C   UNL     1       6.177   3.942  14.763  0.00  0.00    +0.000 C 
ATOM     15  N   UNL     1       5.172   4.655  15.574  0.00  0.00    +0.000 NA
BRANCH  15  16
ATOM     16  C   UNL     1       4.966   3.904  16.841  0.00  0.00    +0.000 C 
BRANCH  16  17
ATOM     17  C   UNL     1       3.597   3.212  16.941  0.00  0.00    +0.000 C 
BRANCH  17  18
ATOM     18  O   UNL     1       3.627   2.242  17.988  0.00  0.00    +0.000 OA
BRANCH  18  19
ATOM     19  C   UNL     1       2.812   2.541  19.049  0.00  0.00    +0.000 A 
ATOM     20  C   UNL     1       3.418   2.464  20.303  0.00  0.00    +0.000 A 
ATOM     21  C   UNL     1       2.674   2.709  21.456  0.00  0.00    +0.000 A 
ATOM     22  C   UNL     1       1.329   3.062  21.361  0.00  0.00    +0.000 A 
ATOM     23  C   UNL     1       0.729   3.180  20.109  0.00  0.00    +0.000 A 
ATOM     24  C   UNL     1       1.469   2.919  18.955  0.00  0.00    +0.000 A 
ENDBRANCH  18  19
ENDBRANCH  17  18
ENDBRANCH  16  17
ENDBRANCH  15  16
ENDBRANCH   1  15
TORSDOF 7
ENDMDL
MODEL 5
REMARK VINA RESULT:      -7.0      4.439      7.296
REMARK  Name = 
REMARK  8 active torsions:
REMARK  status: ('A' for Active; 'I' for Inactive)
REMARK    1  A    between atoms: C_1  and  N_2
REMARK    2  A    between atoms: N_2  and  C_3
REMARK    3  A    between atoms: N_2  and  C_12
REMARK    4  A    between atoms: C_3  and  C_4
REMARK    5  A    between atoms: C_4  and  O_5
REMARK    6  A    between atoms: O_5  and  C_6
REMARK    7  A    between atoms: C_12  and  C_13
REMARK    8  A    between atoms: N_15  and  C_16
REMARK                            x       y       z     vdW  Elec       q    Type
REMARK                         _______ _______ _______ _____ _____    ______ ____
ROOT
ATOM      1  C   UNL     1       7.819   6.862  18.354  0.00  0.00    +0.000 C 
ENDROOT
BRANCH   1   2
ATOM      2  C   UNL     1       8.115   8.342  18.179  0.00  0.00    +0.000 C 
ATOM      3  O   UNL     1       7.604   8.929  17.223  0.00  0.00    +0.000 OA
ATOM      4  N   UNL     1       9.027   8.890  19.070  0.00  0.00    +0.000 N 
ATOM      5  H   UNL     1       9.527   8.251  19.676  0.00  0.00    +0.000 HD
BRANCH   4   6
ATOM      6  C   UNL     1       9.363  10.266  19.113  0.00  0.00    +0.000 A 
ATOM      7  C   UNL     1       9.707  10.976  17.959  0.00  0.00    +0.000 A 
ATOM      8  C   UNL     1      10.109  12.306  18.020  0.00  0.00    +0.000 A 
ATOM      9  C   UNL     1      10.132  12.959  19.250  0.00  0.00    +0.000 A 
ATOM     10 BR   UNL     1      10.695  14.761  19.325  0.00  0.00    +0.000 Br
ATOM     11  C   UNL     1       9.747  12.290  20.410  0.00  0.00    +0.000 A 
ATOM     12  C   UNL     1       9.360  10.951  20.335  0.00  0.00    +0.000 A 
ATOM     13  F   UNL     1       9.014  10.313  21.463  0.00  0.00    +0.000 F 
ENDBRANCH   4   6
ENDBRANCH   1   2
BRANCH   1  15
ATOM     14  C   UNL     1       7.295   5.153  16.724  0.00  0.00    +0.000 C 
ATOM     15  N   UNL     1       6.782   6.341  17.432  0.00  0.00    +0.000 NA
BRANCH  15  16
ATOM     16  C   UNL     1       5.574   5.948  18.204  0.00  0.00    +0.000 C 
BRANCH  16  17
ATOM     17  C   UNL     1       4.429   5.401  17.335  0.00  0.00    +0.000 C 
BRANCH  17  18
ATOM     18  O   UNL     1       3.183   5.913  17.809  0.00  0.00    +0.000 OA
BRANCH  18  19
ATOM     19  C   UNL     1       2.407   4.983  18.452  0.00  0.00    +0.000 A 
ATOM     20  C   UNL     1       2.106   5.278  19.781  0.00  0.00    +0.000 A 
ATOM     21  C   UNL     1       1.356   4.384  20.545  0.00  0.00    +0.000 A 
ATOM     22  C   UNL     1       0.878   3.206  19.974  0.00  0.00    +0.000 A 
ATOM     23  C   UNL     1       1.142   2.925  18.636  0.00  0.00    +0.000 A 
ATOM     24  C   UNL     1       1.905   3.811  17.875  0.00  0.00    +0.000 A 
ENDBRANCH  18  19
ENDBRANCH  17  18
ENDBRANCH  16  17
ENDBRANCH  15  16
ENDBRANCH   1  15
TORSDOF 7
ENDMDL
MODEL 6
REMARK VINA RESULT:      -6.9      2.399      4.582
REMARK  Name = 
REMARK  8 active torsions:
REMARK  status: ('A' for Active; 'I' for Inactive)
REMARK    1  A    between atoms: C_1  and  N_2
REMARK    2  A    between atoms: N_2  and  C_3
REMARK    3  A    between atoms: N_2  and  C_12
REMARK    4  A    between atoms: C_3  and  C_4
REMARK    5  A    between atoms: C_4  and  O_5
REMARK    6  A    between atoms: O_5  and  C_6
REMARK    7  A    between atoms: C_12  and  C_13
REMARK    8  A    between atoms: N_15  and  C_16
REMARK                            x       y       z     vdW  Elec       q    Type
REMARK                         _______ _______ _______ _____ _____    ______ ____
ROOT
ATOM      1  C   UNL     1       5.206   6.146  16.054  0.00  0.00    +0.000 C 
ENDROOT
BRANCH   1   2
ATOM      2  C   UNL     1       4.631   6.620  17.378  0.00  0.00    +0.000 C 
ATOM      3  O   UNL     1       5.379   6.663  18.357  0.00  0.00    +0.000 OA
ATOM      4  N   UNL     1       3.267   6.877  17.392  0.00  0.00    +0.000 N 
ATOM      5  H   UNL     1       2.734   6.604  16.575  0.00  0.00    +0.000 HD
BRANCH   4   6
ATOM      6  C   UNL     1       2.572   7.403  18.508  0.00  0.00    +0.000 A 
ATOM      7  C   UNL     1       2.427   6.678  19.695  0.00  0.00    +0.000 A 
ATOM      8  C   UNL     1       1.679   7.171  20.759  0.00  0.00    +0.000 A 
ATOM      9  C   UNL     1       1.092   8.430  20.658  0.00  0.00    +0.000 A 
ATOM     10 BR   UNL     1       0.064   9.084  22.102  0.00  0.00    +0.000 Br
ATOM     11  C   UNL     1       1.261   9.196  19.506  0.00  0.00    +0.000 A 
ATOM     12  C   UNL     1       2.003   8.682  18.442  0.00  0.00    +0.000 A 
ATOM     13  F   UNL     1       2.138   9.420  17.330  0.00  0.00    +0.000 F 
ENDBRANCH   4   6
ENDBRANCH   1   2
BRANCH   1  15
ATOM     14  C   UNL     1       6.862   4.388  15.907  0.00  0.00    +0.000 C 
ATOM     15  N   UNL     1       5.418   4.681  15.978  0.00  0.00    +0.000 NA
BRANCH  15  16
ATOM     16  C   UNL     1       4.862   4.028  17.192  0.00  0.00    +0.000 C 
BRANCH  16  17
ATOM     17  C   UNL     1       3.565   3.242  16.940  0.00  0.00    +0.000 C 
BRANCH  17  18
ATOM     18  O   UNL     1       3.475   2.158  17.865  0.00  0.00    +0.000 OA
BRANCH  18  19
ATOM     19  C   UNL     1       2.825   2.472  19.030  0.00  0.00    +0.000 A 
ATOM     20  C   UNL     1       1.471   2.777  18.892  0.00  0.00    +0.000 A 
ATOM     21  C   UNL     1       0.719   3.150  20.005  0.00  0.00    +0.000 A 
ATOM     22  C   UNL     1       1.310   3.189  21.267  0.00  0.00    +0.000 A 
ATOM     23  C   UNL     1       2.652   2.848  21.417  0.00  0.00    +0.000 A 
ATOM     24  C   UNL     1       3.408   2.490  20.301  0.00  0.00    +0.000 A 
ENDBRANCH  18  19
ENDBRANCH  17  18
ENDBRANCH  16  17
ENDBRANCH  15  16
ENDBRANCH   1  15
TORSDOF 7
ENDMDL
MODEL 7
REMARK VINA RESULT:      -6.8      2.118      4.500
REMARK  Name = 
REMARK  8 active torsions:
REMARK  status: ('A' for Active; 'I' for Inactive)
REMARK    1  A    between atoms: C_1  and  N_2
REMARK    2  A    between atoms: N_2  and  C_3
REMARK    3  A    between atoms: N_2  and  C_12
REMARK    4  A    between atoms: C_3  and  C_4
REMARK    5  A    between atoms: C_4  and  O_5
REMARK    6  A    between atoms: O_5  and  C_6
REMARK    7  A    between atoms: C_12  and  C_13
REMARK    8  A    between atoms: N_15  and  C_16
REMARK                            x       y       z     vdW  Elec       q    Type
REMARK                         _______ _______ _______ _____ _____    ______ ____
ROOT
ATOM      1  C   UNL     1       4.911   5.047  16.537  0.00  0.00    +0.000 C 
ENDROOT
BRANCH   1   2
ATOM      2  C   UNL     1       4.379   6.287  17.236  0.00  0.00    +0.000 C 
ATOM      3  O   UNL     1       5.122   7.266  17.332  0.00  0.00    +0.000 OA
ATOM      4  N   UNL     1       3.115   6.173  17.798  0.00  0.00    +0.000 N 
ATOM      5  H   UNL     1       2.699   5.250  17.825  0.00  0.00    +0.000 HD
BRANCH   4   6
ATOM      6  C   UNL     1       2.425   7.245  18.416  0.00  0.00    +0.000 A 
ATOM      7  C   UNL     1       2.048   8.387  17.702  0.00  0.00    +0.000 A 
ATOM      8  C   UNL     1       1.438   9.467  18.332  0.00  0.00    +0.000 A 
ATOM      9  C   UNL     1       1.160   9.397  19.695  0.00  0.00    +0.000 A 
ATOM     10 BR   UNL     1       0.346  10.875  20.545  0.00  0.00    +0.000 Br
ATOM     11  C   UNL     1       1.479   8.251  20.421  0.00  0.00    +0.000 A 
ATOM     12  C   UNL     1       2.103   7.181  19.778  0.00  0.00    +0.000 A 
ATOM     13  F   UNL     1       2.426   6.094  20.494  0.00  0.00    +0.000 F 
ENDBRANCH   4   6
ENDBRANCH   1   2
BRANCH   1  15
ATOM     14  C   UNL     1       7.243   4.589  16.989  0.00  0.00    +0.000 C 
ATOM     15  N   UNL     1       5.855   4.251  17.356  0.00  0.00    +0.000 NA
BRANCH  15  16
ATOM     16  C   UNL     1       5.658   4.560  18.797  0.00  0.00    +0.000 C 
BRANCH  16  17
ATOM     17  C   UNL     1       5.375   3.326  19.668  0.00  0.00    +0.000 C 
BRANCH  17  18
ATOM     18  O   UNL     1       4.410   2.495  19.021  0.00  0.00    +0.000 OA
BRANCH  18  19
ATOM     19  C   UNL     1       3.115   2.752  19.393  0.00  0.00    +0.000 A 
ATOM     20  C   UNL     1       2.884   2.767  20.768  0.00  0.00    +0.000 A 
ATOM     21  C   UNL     1       1.596   2.978  21.260  0.00  0.00    +0.000 A 
ATOM     22  C   UNL     1       0.540   3.206  20.380  0.00  0.00    +0.000 A 
ATOM     23  C   UNL     1       0.772   3.231  19.007  0.00  0.00    +0.000 A 
ATOM     24  C   UNL     1       2.057   3.005  18.514  0.00  0.00    +0.000 A 
ENDBRANCH  18  19
ENDBRANCH  17  18
ENDBRANCH  16  17
ENDBRANCH  15  16
ENDBRANCH   1  15
TORSDOF 7
ENDMDL
MODEL 8
REMARK VINA RESULT:      -6.8      2.234      4.403
REMARK  Name = 
REMARK  8 active torsions:
REMARK  status: ('A' for Active; 'I' for Inactive)
REMARK    1  A    between atoms: C_1  and  N_2
REMARK    2  A    between atoms: N_2  and  C_3
REMARK    3  A    between atoms: N_2  and  C_12
REMARK    4  A    between atoms: C_3  and  C_4
REMARK    5  A    between atoms: C_4  and  O_5
REMARK    6  A    between atoms: O_5  and  C_6
REMARK    7  A    between atoms: C_12  and  C_13
REMARK    8  A    between atoms: N_15  and  C_16
REMARK                            x       y       z     vdW  Elec       q    Type
REMARK                         _______ _______ _______ _____ _____    ______ ____
ROOT
ATOM      1  C   UNL     1       4.249   5.811  18.185  0.00  0.00    +0.000 C 
ENDROOT
BRANCH   1   2
ATOM      2  C   UNL     1       2.909   6.517  18.298  0.00  0.00    +0.000 C 
ATOM      3  O   UNL     1       1.887   5.868  18.068  0.00  0.00    +0.000 OA
ATOM      4  N   UNL     1       2.959   7.879  18.561  0.00  0.00    +0.000 N 
ATOM      5  H   UNL     1       3.866   8.327  18.523  0.00  0.00    +0.000 HD
BRANCH   4   6
ATOM      6  C   UNL     1       1.815   8.685  18.782  0.00  0.00    +0.000 A 
ATOM      7  C   UNL     1       1.172   9.353  17.736  0.00  0.00    +0.000 A 
ATOM      8  C   UNL     1       0.096  10.203  17.972  0.00  0.00    +0.000 A 
ATOM      9  C   UNL     1      -0.378  10.363  19.272  0.00  0.00    +0.000 A 
ATOM     10 BR   UNL     1      -1.829  11.532  19.584  0.00  0.00    +0.000 Br
ATOM     11  C   UNL     1       0.213   9.671  20.328  0.00  0.00    +0.000 A 
ATOM     12  C   UNL     1       1.301   8.834  20.077  0.00  0.00    +0.000 A 
ATOM     13  F   UNL     1       1.875   8.192  21.106  0.00  0.00    +0.000 F 
ENDBRANCH   4   6
ENDBRANCH   1   2
BRANCH   1  15
ATOM     14  C   UNL     1       5.839   6.217  16.407  0.00  0.00    +0.000 C 
ATOM     15  N   UNL     1       4.632   5.463  16.796  0.00  0.00    +0.000 NA
BRANCH  15  16
ATOM     16  C   UNL     1       4.931   4.010  16.704  0.00  0.00    +0.000 C 
BRANCH  16  17
ATOM     17  C   UNL     1       3.707   3.105  16.919  0.00  0.00    +0.000 C 
BRANCH  17  18
ATOM     18  O   UNL     1       3.928   2.261  18.049  0.00  0.00    +0.000 OA
BRANCH  18  19
ATOM     19  C   UNL     1       3.067   2.488  19.092  0.00  0.00    +0.000 A 
ATOM     20  C   UNL     1       1.724   2.607  18.737  0.00  0.00    +0.000 A 
ATOM     21  C   UNL     1       0.763   2.878  19.711  0.00  0.00    +0.000 A 
ATOM     22  C   UNL     1       1.137   2.999  21.048  0.00  0.00    +0.000 A 
ATOM     23  C   UNL     1       2.472   2.842  21.413  0.00  0.00    +0.000 A 
ATOM     24  C   UNL     1       3.436   2.587  20.437  0.00  0.00    +0.000 A 
ENDBRANCH  18  19
ENDBRANCH  17  18
ENDBRANCH  16  17
ENDBRANCH  15  16
ENDBRANCH   1  15
TORSDOF 7
ENDMDL
MODEL 9
REMARK VINA RESULT:      -6.8      1.454      1.829
REMARK  Name = 
REMARK  8 active torsions:
REMARK  status: ('A' for Active; 'I' for Inactive)
REMARK    1  A    between atoms: C_1  and  N_2
REMARK    2  A    between atoms: N_2  and  C_3
REMARK    3  A    between atoms: N_2  and  C_12
REMARK    4  A    between atoms: C_3  and  C_4
REMARK    5  A    between atoms: C_4  and  O_5
REMARK    6  A    between atoms: O_5  and  C_6
REMARK    7  A    between atoms: C_12  and  C_13
REMARK    8  A    between atoms: N_15  and  C_16
REMARK                            x       y       z     vdW  Elec       q    Type
REMARK                         _______ _______ _______ _____ _____    ______ ____
ROOT
ATOM      1  C   UNL     1       4.070   3.511  19.401  0.00  0.00    +0.000 C 
ENDROOT
BRANCH   1   2
ATOM      2  C   UNL     1       3.841   5.004  19.567  0.00  0.00    +0.000 C 
ATOM      3  O   UNL     1       4.820   5.724  19.774  0.00  0.00    +0.000 OA
ATOM      4  N   UNL     1       2.517   5.420  19.567  0.00  0.00    +0.000 N 
ATOM      5  H   UNL     1       1.803   4.702  19.595  0.00  0.00    +0.000 HD
BRANCH   4   6
ATOM      6  C   UNL     1       2.114   6.777  19.626  0.00  0.00    +0.000 A 
ATOM      7  C   UNL     1       1.521   7.320  20.770  0.00  0.00    +0.000 A 
ATOM      8  C   UNL     1       1.060   8.632  20.794  0.00  0.00    +0.000 A 
ATOM      9  C   UNL     1       1.224   9.437  19.668  0.00  0.00    +0.000 A 
ATOM     10 BR   UNL     1       0.580  11.211  19.705  0.00  0.00    +0.000 Br
ATOM     11  C   UNL     1       1.856   8.936  18.531  0.00  0.00    +0.000 A 
ATOM     12  C   UNL     1       2.301   7.614  18.518  0.00  0.00    +0.000 A 
ATOM     13  F   UNL     1       2.886   7.138  17.408  0.00  0.00    +0.000 F 
ENDBRANCH   4   6
ENDBRANCH   1   2
BRANCH   1  15
ATOM     14  C   UNL     1       3.022   2.137  17.708  0.00  0.00    +0.000 C 
ATOM     15  N   UNL     1       4.134   3.064  17.990  0.00  0.00    +0.000 NA
BRANCH  15  16
ATOM     16  C   UNL     1       4.015   4.236  17.083  0.00  0.00    +0.000 C 
BRANCH  16  17
ATOM     17  C   UNL     1       5.029   4.237  15.928  0.00  0.00    +0.000 C 
BRANCH  17  18
ATOM     18  O   UNL     1       6.327   3.919  16.430  0.00  0.00    +0.000 OA
BRANCH  18  19
ATOM     19  C   UNL     1       6.902   4.922  17.168  0.00  0.00    +0.000 A 
ATOM     20  C   UNL     1       6.745   6.206  16.648  0.00  0.00    +0.000 A 
ATOM     21  C   UNL     1       7.322   7.299  17.294  0.00  0.00    +0.000 A 
ATOM     22  C   UNL     1       8.031   7.117  18.480  0.00  0.00    +0.000 A 
ATOM     23  C   UNL     1       8.157   5.841  19.025  0.00  0.00    +0.000 A 
ATOM     24  C   UNL     1       7.593   4.745  18.371  0.00  0.00    +0.000 A 
ENDBRANCH  18  19
ENDBRANCH  17  18
ENDBRANCH  16  17
ENDBRANCH  15  16
ENDBRANCH   1  15
TORSDOF 7
ENDMDL
