MODEL 1
REMARK VINA RESULT:      -8.3      0.000      0.000
REMARK  Name = 
REMARK  10 active torsions:
REMARK  status: ('A' for Active; 'I' for Inactive)
REMARK    1  A    between atoms: C_1  and  N_2
REMARK    2  A    between atoms: N_2  and  C_3
REMARK    3  A    between atoms: N_2  and  C_12
REMARK    4  A    between atoms: C_3  and  C_4
REMARK    5  A    between atoms: C_5  and  C_6
REMARK    6  A    between atoms: C_7  and  C_8
REMARK    7  A    between atoms: C_8  and  C_9
REMARK    8  A    between atoms: C_8  and  C_10
REMARK    9  A    between atoms: C_8  and  C_11
REMARK   10  A    between atoms: C_12  and  C_13
REMARK                            x       y       z     vdW  Elec       q    Type
REMARK                         _______ _______ _______ _____ _____    ______ ____
ROOT
ATOM      1  C   UNL     1       3.915   6.735  17.163  0.00  0.00    +0.000 C 
ENDROOT
BRANCH   1   2
ATOM      2  C   UNL     1       3.041   6.234  18.310  0.00  0.00    +0.000 A 
ATOM      3  C   UNL     1       2.684   7.166  19.309  0.00  0.00    +0.000 A 
ATOM      4  C   UNL     1       1.943   6.782  20.420  0.00  0.00    +0.000 A 
ATOM      5  C   UNL     1       1.522   5.463  20.541  0.00  0.00    +0.000 A 
ATOM      6  C   UNL     1       1.828   4.513  19.553  0.00  0.00    +0.000 A 
ATOM      7  C   UNL     1       1.388   3.185  19.680  0.00  0.00    +0.000 A 
ATOM      8  F   UNL     1       0.670   2.816  20.754  0.00  0.00    +0.000 F 
ATOM      9  C   UNL     1       1.673   2.221  18.720  0.00  0.00    +0.000 A 
ATOM     10  C   UNL     1       2.421   2.570  17.606  0.00  0.00    +0.000 A 
ATOM     11  C   UNL     1       2.883   3.880  17.464  0.00  0.00    +0.000 A 
ATOM     12  C   UNL     1       2.596   4.885  18.420  0.00  0.00    +0.000 A 
ENDBRANCH   1   2
BRANCH   1  14
ATOM     13  C   UNL     1       5.308   6.042  15.342  0.00  0.00    +0.000 C 
ATOM     14  N   UNL     1       4.987   5.795  16.751  0.00  0.00    +0.000 NA
BRANCH  14  15
ATOM     15  C   UNL     1       6.168   5.951  17.617  0.00  0.00    +0.000 C 
BRANCH  15  16
ATOM     16  C   UNL     1       6.694   7.359  17.723  0.00  0.00    +0.000 C 
ATOM     17  C   UNL     1       7.969   7.636  18.026  0.00  0.00    +0.000 C 
BRANCH  17  18
ATOM     18  C   UNL     1       8.436   8.967  18.142  0.00  0.00    +0.000 C 
ATOM     19  C   UNL     1       8.818  10.110  18.231  0.00  0.00    +0.000 C 
BRANCH  19  20
ATOM     20  C   UNL     1       9.285  11.509  18.325  0.00  0.00    +0.000 C 
ATOM     21  C   UNL     1      10.697  11.622  17.733  0.00  0.00    +0.000 C 
ATOM     22  C   UNL     1       8.331  12.423  17.543  0.00  0.00    +0.000 C 
ATOM     23  C   UNL     1       9.313  11.940  19.798  0.00  0.00    +0.000 C 
ENDBRANCH  19  20
ENDBRANCH  17  18
ENDBRANCH  15  16
ENDBRANCH  14  15
ENDBRANCH   1  14
TORSDOF 6
ENDMDL
MODEL 2
REMARK VINA RESULT:      -8.3      0.836      1.447
REMARK  Name = 
REMARK  10 active torsions:
REMARK  status: ('A' for Active; 'I' for Inactive)
REMARK    1  A    between atoms: C_1  and  N_2
REMARK    2  A    between atoms: N_2  and  C_3
REMARK    3  A    between atoms: N_2  and  C_12
REMARK    4  A    between atoms: C_3  and  C_4
REMARK    5  A    between atoms: C_5  and  C_6
REMARK    6  A    between atoms: C_7  and  C_8
REMARK    7  A    between atoms: C_8  and  C_9
REMARK    8  A    between atoms: C_8  and  C_10
REMARK    9  A    between atoms: C_8  and  C_11
REMARK   10  A    between atoms: C_12  and  C_13
REMARK                            x       y       z     vdW  Elec       q    Type
REMARK                         _______ _______ _______ _____ _____    ______ ____
ROOT
ATOM      1  C   UNL     1       5.030   5.714  16.092  0.00  0.00    +0.000 C 
ENDROOT
BRANCH   1   2
ATOM      2  C   UNL     1       3.953   5.803  17.171  0.00  0.00    +0.000 A 
ATOM      3  C   UNL     1       3.687   7.077  17.718  0.00  0.00    +0.000 A 
ATOM      4  C   UNL     1       2.768   7.240  18.748  0.00  0.00    +0.000 A 
ATOM      5  C   UNL     1       2.078   6.135  19.232  0.00  0.00    +0.000 A 
ATOM      6  C   UNL     1       2.289   4.856  18.692  0.00  0.00    +0.000 A 
ATOM      7  C   UNL     1       1.578   3.749  19.181  0.00  0.00    +0.000 A 
ATOM      8  F   UNL     1       0.689   3.909  20.175  0.00  0.00    +0.000 F 
ATOM      9  C   UNL     1       1.764   2.470  18.669  0.00  0.00    +0.000 A 
ATOM     10  C   UNL     1       2.683   2.272  17.650  0.00  0.00    +0.000 A 
ATOM     11  C   UNL     1       3.413   3.356  17.155  0.00  0.00    +0.000 A 
ATOM     12  C   UNL     1       3.235   4.670  17.651  0.00  0.00    +0.000 A 
ENDBRANCH   1   2
BRANCH   1  14
ATOM     13  C   UNL     1       7.289   5.221  15.468  0.00  0.00    +0.000 C 
ATOM     14  N   UNL     1       6.295   5.080  16.536  0.00  0.00    +0.000 NA
BRANCH  14  15
ATOM     15  C   UNL     1       6.758   5.684  17.797  0.00  0.00    +0.000 C 
BRANCH  15  16
ATOM     16  C   UNL     1       7.230   7.110  17.681  0.00  0.00    +0.000 C 
ATOM     17  C   UNL     1       8.164   7.633  18.486  0.00  0.00    +0.000 C 
BRANCH  17  18
ATOM     18  C   UNL     1       8.576   8.982  18.372  0.00  0.00    +0.000 C 
ATOM     19  C   UNL     1       8.941  10.131  18.290  0.00  0.00    +0.000 C 
BRANCH  19  20
ATOM     20  C   UNL     1       9.385  11.538  18.203  0.00  0.00    +0.000 C 
ATOM     21  C   UNL     1       8.349  12.358  17.421  0.00  0.00    +0.000 C 
ATOM     22  C   UNL     1       9.531  12.119  19.617  0.00  0.00    +0.000 C 
ATOM     23  C   UNL     1      10.738  11.603  17.481  0.00  0.00    +0.000 C 
ENDBRANCH  19  20
ENDBRANCH  17  18
ENDBRANCH  15  16
ENDBRANCH  14  15
ENDBRANCH   1  14
TORSDOF 6
ENDMDL
MODEL 3
REMARK VINA RESULT:      -8.2      0.961      1.286
REMARK  Name = 
REMARK  10 active torsions:
REMARK  status: ('A' for Active; 'I' for Inactive)
REMARK    1  A    between atoms: C_1  and  N_2
REMARK    2  A    between atoms: N_2  and  C_3
REMARK    3  A    between atoms: N_2  and  C_12
REMARK    4  A    between atoms: C_3  and  C_4
REMARK    5  A    between atoms: C_5  and  C_6
REMARK    6  A    between atoms: C_7  and  C_8
REMARK    7  A    between atoms: C_8  and  C_9
REMARK    8  A    between atoms: C_8  and  C_10
REMARK    9  A    between atoms: C_8  and  C_11
REMARK   10  A    between atoms: C_12  and  C_13
REMARK                            x       y       z     vdW  Elec       q    Type
REMARK                         _______ _______ _______ _____ _____    ______ ____
ROOT
ATOM      1  C   UNL     1       4.579   6.181  17.445  0.00  0.00    +0.000 C 
ENDROOT
BRANCH   1   2
ATOM      2  C   UNL     1       3.456   5.829  18.419  0.00  0.00    +0.000 A 
ATOM      3  C   UNL     1       3.038   6.834  19.318  0.00  0.00    +0.000 A 
ATOM      4  C   UNL     1       2.067   6.581  20.278  0.00  0.00    +0.000 A 
ATOM      5  C   UNL     1       1.476   5.324  20.342  0.00  0.00    +0.000 A 
ATOM      6  C   UNL     1       1.841   4.307  19.444  0.00  0.00    +0.000 A 
ATOM      7  C   UNL     1       1.230   3.045  19.511  0.00  0.00    +0.000 A 
ATOM      8  F   UNL     1       0.290   2.803  20.440  0.00  0.00    +0.000 F 
ATOM      9  C   UNL     1       1.568   2.017  18.638  0.00  0.00    +0.000 A 
ATOM     10  C   UNL     1       2.542   2.234  17.676  0.00  0.00    +0.000 A 
ATOM     11  C   UNL     1       3.175   3.477  17.599  0.00  0.00    +0.000 A 
ATOM     12  C   UNL     1       2.841   4.545  18.467  0.00  0.00    +0.000 A 
ENDBRANCH   1   2
BRANCH   1  14
ATOM     13  C   UNL     1       6.257   5.036  18.712  0.00  0.00    +0.000 C 
ATOM     14  N   UNL     1       5.918   6.309  18.069  0.00  0.00    +0.000 NA
BRANCH  14  15
ATOM     15  C   UNL     1       6.920   6.698  17.062  0.00  0.00    +0.000 C 
BRANCH  15  16
ATOM     16  C   UNL     1       7.596   8.019  17.319  0.00  0.00    +0.000 C 
ATOM     17  C   UNL     1       8.319   8.262  18.420  0.00  0.00    +0.000 C 
BRANCH  17  18
ATOM     18  C   UNL     1       8.927   9.520  18.651  0.00  0.00    +0.000 C 
ATOM     19  C   UNL     1       9.427  10.602  18.846  0.00  0.00    +0.000 C 
BRANCH  19  20
ATOM     20  C   UNL     1      10.034  11.931  19.073  0.00  0.00    +0.000 C 
ATOM     21  C   UNL     1      10.171  12.670  17.734  0.00  0.00    +0.000 C 
ATOM     22  C   UNL     1       9.140  12.749  20.016  0.00  0.00    +0.000 C 
ATOM     23  C   UNL     1      11.421  11.758  19.705  0.00  0.00    +0.000 C 
ENDBRANCH  19  20
ENDBRANCH  17  18
ENDBRANCH  15  16
ENDBRANCH  14  15
ENDBRANCH   1  14
TORSDOF 6
ENDMDL
MODEL 4
REMARK VINA RESULT:      -8.2      1.149      1.568
REMARK  Name = 
REMARK  10 active torsions:
REMARK  status: ('A' for Active; 'I' for Inactive)
REMARK    1  A    between atoms: C_1  and  N_2
REMARK    2  A    between atoms: N_2  and  C_3
REMARK    3  A    between atoms: N_2  and  C_12
REMARK    4  A    between atoms: C_3  and  C_4
REMARK    5  A    between atoms: C_5  and  C_6
REMARK    6  A    between atoms: C_7  and  C_8
REMARK    7  A    between atoms: C_8  and  C_9
REMARK    8  A    between atoms: C_8  and  C_10
REMARK    9  A    between atoms: C_8  and  C_11
REMARK   10  A    between atoms: C_12  and  C_13
REMARK                            x       y       z     vdW  Elec       q    Type
REMARK                         _______ _______ _______ _____ _____    ______ ____
ROOT
ATOM      1  C   UNL     1       5.191   5.625  16.882  0.00  0.00    +0.000 C 
ENDROOT
BRANCH   1   2
ATOM      2  C   UNL     1       3.988   5.562  17.821  0.00  0.00    +0.000 A 
ATOM      3  C   UNL     1       3.537   6.777  18.381  0.00  0.00    +0.000 A 
ATOM      4  C   UNL     1       2.489   6.803  19.293  0.00  0.00    +0.000 A 
ATOM      5  C   UNL     1       1.855   5.617  19.643  0.00  0.00    +0.000 A 
ATOM      6  C   UNL     1       2.252   4.391  19.083  0.00  0.00    +0.000 A 
ATOM      7  C   UNL     1       1.597   3.201  19.436  0.00  0.00    +0.000 A 
ATOM      8  F   UNL     1       0.583   3.229  20.317  0.00  0.00    +0.000 F 
ATOM      9  C   UNL     1       1.965   1.972  18.901  0.00  0.00    +0.000 A 
ATOM     10  C   UNL     1       3.015   1.911  17.997  0.00  0.00    +0.000 A 
ATOM     11  C   UNL     1       3.692   3.079  17.641  0.00  0.00    +0.000 A 
ATOM     12  C   UNL     1       3.330   4.345  18.162  0.00  0.00    +0.000 A 
ENDBRANCH   1   2
BRANCH   1  14
ATOM     13  C   UNL     1       7.224   4.519  17.497  0.00  0.00    +0.000 C 
ATOM     14  N   UNL     1       6.497   5.790  17.565  0.00  0.00    +0.000 NA
BRANCH  14  15
ATOM     15  C   UNL     1       7.262   6.891  16.954  0.00  0.00    +0.000 C 
BRANCH  15  16
ATOM     16  C   UNL     1       7.778   7.919  17.927  0.00  0.00    +0.000 C 
ATOM     17  C   UNL     1       8.319   9.080  17.535  0.00  0.00    +0.000 C 
BRANCH  17  18
ATOM     18  C   UNL     1       8.817  10.023  18.467  0.00  0.00    +0.000 C 
ATOM     19  C   UNL     1       9.229  10.841  19.255  0.00  0.00    +0.000 C 
BRANCH  19  20
ATOM     20  C   UNL     1       9.736  11.850  20.208  0.00  0.00    +0.000 C 
ATOM     21  C   UNL     1      11.271  11.856  20.184  0.00  0.00    +0.000 C 
ATOM     22  C   UNL     1       9.216  13.239  19.810  0.00  0.00    +0.000 C 
ATOM     23  C   UNL     1       9.249  11.507  21.622  0.00  0.00    +0.000 C 
ENDBRANCH  19  20
ENDBRANCH  17  18
ENDBRANCH  15  16
ENDBRANCH  14  15
ENDBRANCH   1  14
TORSDOF 6
ENDMDL
MODEL 5
REMARK VINA RESULT:      -8.2      1.156      1.841
REMARK  Name = 
REMARK  10 active torsions:
REMARK  status: ('A' for Active; 'I' for Inactive)
REMARK    1  A    between atoms: C_1  and  N_2
REMARK    2  A    between atoms: N_2  and  C_3
REMARK    3  A    between atoms: N_2  and  C_12
REMARK    4  A    between atoms: C_3  and  C_4
REMARK    5  A    between atoms: C_5  and  C_6
REMARK    6  A    between atoms: C_7  and  C_8
REMARK    7  A    between atoms: C_8  and  C_9
REMARK    8  A    between atoms: C_8  and  C_10
REMARK    9  A    between atoms: C_8  and  C_11
REMARK   10  A    between atoms: C_12  and  C_13
REMARK                            x       y       z     vdW  Elec       q    Type
REMARK                         _______ _______ _______ _____ _____    ______ ____
ROOT
ATOM      1  C   UNL     1       5.320   5.486  17.273  0.00  0.00    +0.000 C 
ENDROOT
BRANCH   1   2
ATOM      2  C   UNL     1       4.067   5.471  18.146  0.00  0.00    +0.000 A 
ATOM      3  C   UNL     1       3.622   6.708  18.664  0.00  0.00    +0.000 A 
ATOM      4  C   UNL     1       2.528   6.778  19.517  0.00  0.00    +0.000 A 
ATOM      5  C   UNL     1       1.841   5.617  19.849  0.00  0.00    +0.000 A 
ATOM      6  C   UNL     1       2.231   4.372  19.328  0.00  0.00    +0.000 A 
ATOM      7  C   UNL     1       1.522   3.206  19.661  0.00  0.00    +0.000 A 
ATOM      8  F   UNL     1       0.464   3.277  20.485  0.00  0.00    +0.000 F 
ATOM      9  C   UNL     1       1.882   1.959  19.163  0.00  0.00    +0.000 A 
ATOM     10  C   UNL     1       2.977   1.854  18.319  0.00  0.00    +0.000 A 
ATOM     11  C   UNL     1       3.707   2.996  17.984  0.00  0.00    +0.000 A 
ATOM     12  C   UNL     1       3.355   4.280  18.467  0.00  0.00    +0.000 A 
ENDBRANCH   1   2
BRANCH   1  14
ATOM     13  C   UNL     1       7.425   4.973  18.293  0.00  0.00    +0.000 C 
ATOM     14  N   UNL     1       6.519   6.065  17.926  0.00  0.00    +0.000 NA
BRANCH  14  15
ATOM     15  C   UNL     1       7.170   7.040  17.034  0.00  0.00    +0.000 C 
BRANCH  15  16
ATOM     16  C   UNL     1       8.106   8.000  17.722  0.00  0.00    +0.000 C 
ATOM     17  C   UNL     1       7.923   9.327  17.709  0.00  0.00    +0.000 C 
BRANCH  17  18
ATOM     18  C   UNL     1       8.828  10.211  18.344  0.00  0.00    +0.000 C 
ATOM     19  C   UNL     1       9.586  10.980  18.886  0.00  0.00    +0.000 C 
BRANCH  19  20
ATOM     20  C   UNL     1      10.510  11.930  19.541  0.00  0.00    +0.000 C 
ATOM     21  C   UNL     1      10.253  11.937  21.055  0.00  0.00    +0.000 C 
ATOM     22  C   UNL     1      11.960  11.503  19.273  0.00  0.00    +0.000 C 
ATOM     23  C   UNL     1      10.279  13.338  18.977  0.00  0.00    +0.000 C 
ENDBRANCH  19  20
ENDBRANCH  17  18
ENDBRANCH  15  16
ENDBRANCH  14  15
ENDBRANCH   1  14
TORSDOF 6
ENDMDL
MODEL 6
REMARK VINA RESULT:      -8.1      1.663      2.165
REMARK  Name = 
REMARK  10 active torsions:
REMARK  status: ('A' for Active; 'I' for Inactive)
REMARK    1  A    between atoms: C_1  and  N_2
REMARK    2  A    between atoms: N_2  and  C_3
REMARK    3  A    between atoms: N_2  and  C_12
REMARK    4  A    between atoms: C_3  and  C_4
REMARK    5  A    between atoms: C_5  and  C_6
REMARK    6  A    between atoms: C_7  and  C_8
REMARK    7  A    between atoms: C_8  and  C_9
REMARK    8  A    between atoms: C_8  and  C_10
REMARK    9  A    between atoms: C_8  and  C_11
REMARK   10  A    between atoms: C_12  and  C_13
REMARK                            x       y       z     vdW  Elec       q    Type
REMARK                         _______ _______ _______ _____ _____    ______ ____
ROOT
ATOM      1  C   UNL     1       6.406   5.488  19.152  0.00  0.00    +0.000 C 
ENDROOT
BRANCH   1   2
ATOM      2  C   UNL     1       4.943   5.423  18.720  0.00  0.00    +0.000 A 
ATOM      3  C   UNL     1       4.357   6.610  18.229  0.00  0.00    +0.000 A 
ATOM      4  C   UNL     1       3.016   6.656  17.872  0.00  0.00    +0.000 A 
ATOM      5  C   UNL     1       2.239   5.508  17.974  0.00  0.00    +0.000 A 
ATOM      6  C   UNL     1       2.793   4.298  18.426  0.00  0.00    +0.000 A 
ATOM      7  C   UNL     1       2.002   3.141  18.514  0.00  0.00    +0.000 A 
ATOM      8  F   UNL     1       0.705   3.187  18.167  0.00  0.00    +0.000 F 
ATOM      9  C   UNL     1       2.518   1.929  18.957  0.00  0.00    +0.000 A 
ATOM     10  C   UNL     1       3.851   1.853  19.332  0.00  0.00    +0.000 A 
ATOM     11  C   UNL     1       4.655   2.994  19.267  0.00  0.00    +0.000 A 
ATOM     12  C   UNL     1       4.157   4.238  18.809  0.00  0.00    +0.000 A 
ENDBRANCH   1   2
BRANCH   1  14
ATOM     13  C   UNL     1       7.067   4.524  17.062  0.00  0.00    +0.000 C 
ATOM     14  N   UNL     1       7.376   5.578  18.033  0.00  0.00    +0.000 NA
BRANCH  14  15
ATOM     15  C   UNL     1       7.331   6.917  17.420  0.00  0.00    +0.000 C 
BRANCH  15  16
ATOM     16  C   UNL     1       8.164   7.960  18.118  0.00  0.00    +0.000 C 
ATOM     17  C   UNL     1       8.158   9.251  17.760  0.00  0.00    +0.000 C 
BRANCH  17  18
ATOM     18  C   UNL     1       8.966  10.211  18.416  0.00  0.00    +0.000 C 
ATOM     19  C   UNL     1       9.668  11.031  18.960  0.00  0.00    +0.000 C 
BRANCH  19  20
ATOM     20  C   UNL     1      10.537  12.027  19.621  0.00  0.00    +0.000 C 
ATOM     21  C   UNL     1      12.007  11.612  19.465  0.00  0.00    +0.000 C 
ATOM     22  C   UNL     1      10.325  13.403  18.975  0.00  0.00    +0.000 C 
ATOM     23  C   UNL     1      10.184  12.102  21.113  0.00  0.00    +0.000 C 
ENDBRANCH  19  20
ENDBRANCH  17  18
ENDBRANCH  15  16
ENDBRANCH  14  15
ENDBRANCH   1  14
TORSDOF 6
ENDMDL
MODEL 7
REMARK VINA RESULT:      -8.0      0.987      2.492
REMARK  Name = 
REMARK  10 active torsions:
REMARK  status: ('A' for Active; 'I' for Inactive)
REMARK    1  A    between atoms: C_1  and  N_2
REMARK    2  A    between atoms: N_2  and  C_3
REMARK    3  A    between atoms: N_2  and  C_12
REMARK    4  A    between atoms: C_3  and  C_4
REMARK    5  A    between atoms: C_5  and  C_6
REMARK    6  A    between atoms: C_7  and  C_8
REMARK    7  A    between atoms: C_8  and  C_9
REMARK    8  A    between atoms: C_8  and  C_10
REMARK    9  A    between atoms: C_8  and  C_11
REMARK   10  A    between atoms: C_12  and  C_13
REMARK                            x       y       z     vdW  Elec       q    Type
REMARK                         _______ _______ _______ _____ _____    ______ ____
ROOT
ATOM      1  C   UNL     1       4.989   5.137  16.084  0.00  0.00    +0.000 C 
ENDROOT
BRANCH   1   2
ATOM      2  C   UNL     1       4.111   4.429  17.113  0.00  0.00    +0.000 A 
ATOM      3  C   UNL     1       4.000   3.025  17.015  0.00  0.00    +0.000 A 
ATOM      4  C   UNL     1       3.173   2.307  17.870  0.00  0.00    +0.000 A 
ATOM      5  C   UNL     1       2.460   2.978  18.858  0.00  0.00    +0.000 A 
ATOM      6  C   UNL     1       2.569   4.370  19.009  0.00  0.00    +0.000 A 
ATOM      7  C   UNL     1       1.853   5.036  20.018  0.00  0.00    +0.000 A 
ATOM      8  F   UNL     1       1.056   4.339  20.845  0.00  0.00    +0.000 F 
ATOM      9  C   UNL     1       1.938   6.412  20.194  0.00  0.00    +0.000 A 
ATOM     10  C   UNL     1       2.745   7.157  19.349  0.00  0.00    +0.000 A 
ATOM     11  C   UNL     1       3.456   6.521  18.329  0.00  0.00    +0.000 A 
ATOM     12  C   UNL     1       3.397   5.119  18.135  0.00  0.00    +0.000 A 
ENDBRANCH   1   2
BRANCH   1  14
ATOM     13  C   UNL     1       7.123   5.398  15.028  0.00  0.00    +0.000 C 
ATOM     14  N   UNL     1       6.434   4.816  16.183  0.00  0.00    +0.000 NA
BRANCH  14  15
ATOM     15  C   UNL     1       6.985   5.313  17.457  0.00  0.00    +0.000 C 
BRANCH  15  16
ATOM     16  C   UNL     1       7.407   6.759  17.443  0.00  0.00    +0.000 C 
ATOM     17  C   UNL     1       8.135   7.311  18.422  0.00  0.00    +0.000 C 
BRANCH  17  18
ATOM     18  C   UNL     1       8.501   8.679  18.398  0.00  0.00    +0.000 C 
ATOM     19  C   UNL     1       8.805   9.848  18.397  0.00  0.00    +0.000 C 
BRANCH  19  20
ATOM     20  C   UNL     1       9.163  11.282  18.397  0.00  0.00    +0.000 C 
ATOM     21  C   UNL     1      10.557  11.464  17.781  0.00  0.00    +0.000 C 
ATOM     22  C   UNL     1       8.135  12.068  17.572  0.00  0.00    +0.000 C 
ATOM     23  C   UNL     1       9.170  11.807  19.839  0.00  0.00    +0.000 C 
ENDBRANCH  19  20
ENDBRANCH  17  18
ENDBRANCH  15  16
ENDBRANCH  14  15
ENDBRANCH   1  14
TORSDOF 6
ENDMDL
MODEL 8
REMARK VINA RESULT:      -8.0      1.224      2.719
REMARK  Name = 
REMARK  10 active torsions:
REMARK  status: ('A' for Active; 'I' for Inactive)
REMARK    1  A    between atoms: C_1  and  N_2
REMARK    2  A    between atoms: N_2  and  C_3
REMARK    3  A    between atoms: N_2  and  C_12
REMARK    4  A    between atoms: C_3  and  C_4
REMARK    5  A    between atoms: C_5  and  C_6
REMARK    6  A    between atoms: C_7  and  C_8
REMARK    7  A    between atoms: C_8  and  C_9
REMARK    8  A    between atoms: C_8  and  C_10
REMARK    9  A    between atoms: C_8  and  C_11
REMARK   10  A    between atoms: C_12  and  C_13
REMARK                            x       y       z     vdW  Elec       q    Type
REMARK                         _______ _______ _______ _____ _____    ______ ____
ROOT
ATOM      1  C   UNL     1       4.893   6.302  17.409  0.00  0.00    +0.000 C 
ENDROOT
BRANCH   1   2
ATOM      2  C   UNL     1       4.024   5.056  17.565  0.00  0.00    +0.000 A 
ATOM      3  C   UNL     1       4.230   4.001  16.648  0.00  0.00    +0.000 A 
ATOM      4  C   UNL     1       3.442   2.858  16.678  0.00  0.00    +0.000 A 
ATOM      5  C   UNL     1       2.448   2.735  17.642  0.00  0.00    +0.000 A 
ATOM      6  C   UNL     1       2.233   3.747  18.593  0.00  0.00    +0.000 A 
ATOM      7  C   UNL     1       1.234   3.607  19.570  0.00  0.00    +0.000 A 
ATOM      8  F   UNL     1       0.475   2.499  19.598  0.00  0.00    +0.000 F 
ATOM      9  C   UNL     1       0.996   4.589  20.524  0.00  0.00    +0.000 A 
ATOM     10  C   UNL     1       1.757   5.747  20.513  0.00  0.00    +0.000 A 
ATOM     11  C   UNL     1       2.748   5.917  19.543  0.00  0.00    +0.000 A 
ATOM     12  C   UNL     1       3.019   4.927  18.567  0.00  0.00    +0.000 A 
ENDBRANCH   1   2
BRANCH   1  14
ATOM     13  C   UNL     1       6.259   4.992  18.876  0.00  0.00    +0.000 C 
ATOM     14  N   UNL     1       6.113   6.310  18.251  0.00  0.00    +0.000 NA
BRANCH  14  15
ATOM     15  C   UNL     1       7.293   6.667  17.444  0.00  0.00    +0.000 C 
BRANCH  15  16
ATOM     16  C   UNL     1       8.177   7.726  18.049  0.00  0.00    +0.000 C 
ATOM     17  C   UNL     1       8.015   9.033  17.802  0.00  0.00    +0.000 C 
BRANCH  17  18
ATOM     18  C   UNL     1       8.872  10.010  18.363  0.00  0.00    +0.000 C 
ATOM     19  C   UNL     1       9.588  10.858  18.840  0.00  0.00    +0.000 C 
BRANCH  19  20
ATOM     20  C   UNL     1      10.463  11.903  19.412  0.00  0.00    +0.000 C 
ATOM     21  C   UNL     1      10.060  13.275  18.854  0.00  0.00    +0.000 C 
ATOM     22  C   UNL     1      10.319  11.913  20.940  0.00  0.00    +0.000 C 
ATOM     23  C   UNL     1      11.922  11.609  19.038  0.00  0.00    +0.000 C 
ENDBRANCH  19  20
ENDBRANCH  17  18
ENDBRANCH  15  16
ENDBRANCH  14  15
ENDBRANCH   1  14
TORSDOF 6
ENDMDL
MODEL 9
REMARK VINA RESULT:      -8.0      1.129      1.528
REMARK  Name = 
REMARK  10 active torsions:
REMARK  status: ('A' for Active; 'I' for Inactive)
REMARK    1  A    between atoms: C_1  and  N_2
REMARK    2  A    between atoms: N_2  and  C_3
REMARK    3  A    between atoms: N_2  and  C_12
REMARK    4  A    between atoms: C_3  and  C_4
REMARK    5  A    between atoms: C_5  and  C_6
REMARK    6  A    between atoms: C_7  and  C_8
REMARK    7  A    between atoms: C_8  and  C_9
REMARK    8  A    between atoms: C_8  and  C_10
REMARK    9  A    between atoms: C_8  and  C_11
REMARK   10  A    between atoms: C_12  and  C_13
REMARK                            x       y       z     vdW  Elec       q    Type
REMARK                         _______ _______ _______ _____ _____    ______ ____
ROOT
ATOM      1  C   UNL     1       5.312   5.678  19.020  0.00  0.00    +0.000 C 
ENDROOT
BRANCH   1   2
ATOM      2  C   UNL     1       3.864   5.322  19.348  0.00  0.00    +0.000 A 
ATOM      3  C   UNL     1       3.096   6.289  20.032  0.00  0.00    +0.000 A 
ATOM      4  C   UNL     1       1.789   6.025  20.424  0.00  0.00    +0.000 A 
ATOM      5  C   UNL     1       1.217   4.796  20.117  0.00  0.00    +0.000 A 
ATOM      6  C   UNL     1       1.936   3.819  19.409  0.00  0.00    +0.000 A 
ATOM      7  C   UNL     1       1.344   2.585  19.094  0.00  0.00    +0.000 A 
ATOM      8  F   UNL     1       0.080   2.332  19.473  0.00  0.00    +0.000 F 
ATOM      9  C   UNL     1       2.028   1.598  18.395  0.00  0.00    +0.000 A 
ATOM     10  C   UNL     1       3.337   1.827  18.000  0.00  0.00    +0.000 A 
ATOM     11  C   UNL     1       3.954   3.040  18.314  0.00  0.00    +0.000 A 
ATOM     12  C   UNL     1       3.276   4.067  19.014  0.00  0.00    +0.000 A 
ENDBRANCH   1   2
BRANCH   1  14
ATOM     13  C   UNL     1       4.879   6.707  16.901  0.00  0.00    +0.000 C 
ATOM     14  N   UNL     1       5.641   5.650  17.574  0.00  0.00    +0.000 NA
BRANCH  14  15
ATOM     15  C   UNL     1       7.092   5.809  17.373  0.00  0.00    +0.000 C 
BRANCH  15  16
ATOM     16  C   UNL     1       7.705   6.986  18.085  0.00  0.00    +0.000 C 
ATOM     17  C   UNL     1       7.878   8.178  17.500  0.00  0.00    +0.000 C 
BRANCH  17  18
ATOM     18  C   UNL     1       8.477   9.264  18.182  0.00  0.00    +0.000 C 
ATOM     19  C   UNL     1       8.980  10.204  18.751  0.00  0.00    +0.000 C 
BRANCH  19  20
ATOM     20  C   UNL     1       9.601  11.358  19.435  0.00  0.00    +0.000 C 
ATOM     21  C   UNL     1       8.982  12.661  18.912  0.00  0.00    +0.000 C 
ATOM     22  C   UNL     1       9.358  11.250  20.947  0.00  0.00    +0.000 C 
ATOM     23  C   UNL     1      11.111  11.363  19.159  0.00  0.00    +0.000 C 
ENDBRANCH  19  20
ENDBRANCH  17  18
ENDBRANCH  15  16
ENDBRANCH  14  15
ENDBRANCH   1  14
TORSDOF 6
ENDMDL
