MODEL 1
REMARK VINA RESULT:      -7.2      0.000      0.000
REMARK  Name = 
REMARK  7 active torsions:
REMARK  status: ('A' for Active; 'I' for Inactive)
REMARK    1  A    between atoms: C_1  and  C_2
REMARK    2  A    between atoms: C_4  and  S_5
REMARK    3  A    between atoms: S_5  and  C_6
REMARK    4  A    between atoms: C_6  and  C_7
REMARK    5  A    between atoms: N_9  and  C_10
REMARK    6  A    between atoms: C_16  and  C_17
REMARK    7  A    between atoms: C_18  and  C_19
REMARK                            x       y       z     vdW  Elec       q    Type
REMARK                         _______ _______ _______ _____ _____    ______ ____
ROOT
ATOM      1  C   UNL     1       3.858   1.819  17.911  0.00  0.00    +0.000 C 
ATOM      2  C   UNL     1       3.590   3.271  18.178  0.00  0.00    +0.000 A 
ATOM      3  N   UNL     1       4.194   4.185  17.393  0.00  0.00    +0.000 NA
ATOM      4  C   UNL     1       3.935   5.496  17.604  0.00  0.00    +0.000 A 
ATOM      5  C   UNL     1       3.048   5.895  18.627  0.00  0.00    +0.000 A 
ATOM      6  C   UNL     1       2.503   7.166  19.116  0.00  0.00    +0.000 A 
ATOM      7  C   UNL     1       2.714   8.530  18.531  0.00  0.00    +0.000 C 
ATOM      8  C   UNL     1       1.735   6.982  20.259  0.00  0.00    +0.000 A 
ATOM      9  C   UNL     1       1.071   8.009  21.121  0.00  0.00    +0.000 C 
ATOM     10  S   UNL     1       1.560   5.336  20.669  0.00  0.00    +0.000 S 
ATOM     11  C   UNL     1       2.548   4.845  19.381  0.00  0.00    +0.000 A 
ATOM     12  N   UNL     1       2.777   3.535  19.200  0.00  0.00    +0.000 NA
ENDROOT
BRANCH   4  13
ATOM     13  S   UNL     1       4.759   6.723  16.636  0.00  0.00    +0.000 S 
BRANCH  13  14
ATOM     14  C   UNL     1       6.511   6.489  17.043  0.00  0.00    +0.000 C 
BRANCH  14  15
ATOM     15  C   UNL     1       7.043   5.418  16.098  0.00  0.00    +0.000 C 
ATOM     16  O   UNL     1       7.914   4.619  16.437  0.00  0.00    +0.000 OA
ATOM     17  N   UNL     1       6.442   5.388  14.848  0.00  0.00    +0.000 N 
ATOM     18  H   UNL     1       5.582   5.910  14.726  0.00  0.00    +0.000 HD
BRANCH  17  19
ATOM     19  C   UNL     1       6.738   4.326  13.909  0.00  0.00    +0.000 C 
ATOM     20  C   UNL     1       5.492   3.664  13.327  0.00  0.00    +0.000 C 
ATOM     21  C   UNL     1       6.037   2.886  12.135  0.00  0.00    +0.000 C 
ATOM     22  C   UNL     1       7.255   3.675  11.648  0.00  0.00    +0.000 C 
ATOM     23  C   UNL     1       7.457   4.809  12.654  0.00  0.00    +0.000 C 
ENDBRANCH  17  19
ENDBRANCH  14  15
ENDBRANCH  13  14
ENDBRANCH   4  13
TORSDOF 4
ENDMDL
MODEL 2
REMARK VINA RESULT:      -7.2      1.462      1.740
REMARK  Name = 
REMARK  7 active torsions:
REMARK  status: ('A' for Active; 'I' for Inactive)
REMARK    1  A    between atoms: C_1  and  C_2
REMARK    2  A    between atoms: C_4  and  S_5
REMARK    3  A    between atoms: S_5  and  C_6
REMARK    4  A    between atoms: C_6  and  C_7
REMARK    5  A    between atoms: N_9  and  C_10
REMARK    6  A    between atoms: C_16  and  C_17
REMARK    7  A    between atoms: C_18  and  C_19
REMARK                            x       y       z     vdW  Elec       q    Type
REMARK                         _______ _______ _______ _____ _____    ______ ____
ROOT
ATOM      1  C   UNL     1       2.706   2.997  21.266  0.00  0.00    +0.000 C 
ATOM      2  C   UNL     1       2.657   4.328  20.575  0.00  0.00    +0.000 A 
ATOM      3  N   UNL     1       3.385   4.491  19.452  0.00  0.00    +0.000 NA
ATOM      4  C   UNL     1       3.324   5.677  18.804  0.00  0.00    +0.000 A 
ATOM      5  C   UNL     1       2.512   6.721  19.296  0.00  0.00    +0.000 A 
ATOM      6  C   UNL     1       2.164   8.080  18.867  0.00  0.00    +0.000 A 
ATOM      7  C   UNL     1       2.570   8.764  17.598  0.00  0.00    +0.000 C 
ATOM      8  C   UNL     1       1.384   8.727  19.818  0.00  0.00    +0.000 A 
ATOM      9  C   UNL     1       0.884  10.137  19.821  0.00  0.00    +0.000 C 
ATOM     10  S   UNL     1       0.970   7.712  21.123  0.00  0.00    +0.000 S 
ATOM     11  C   UNL     1       1.866   6.420  20.486  0.00  0.00    +0.000 A 
ATOM     12  N   UNL     1       1.898   5.257  21.155  0.00  0.00    +0.000 NA
ENDROOT
BRANCH   4  13
ATOM     13  S   UNL     1       4.315   5.945  17.366  0.00  0.00    +0.000 S 
BRANCH  13  14
ATOM     14  C   UNL     1       5.993   5.531  17.914  0.00  0.00    +0.000 C 
BRANCH  14  15
ATOM     15  C   UNL     1       6.690   4.868  16.731  0.00  0.00    +0.000 C 
ATOM     16  O   UNL     1       7.789   4.327  16.838  0.00  0.00    +0.000 OA
ATOM     17  N   UNL     1       5.975   4.887  15.543  0.00  0.00    +0.000 N 
ATOM     18  H   UNL     1       4.993   5.133  15.588  0.00  0.00    +0.000 HD
BRANCH  17  19
ATOM     19  C   UNL     1       6.447   4.160  14.383  0.00  0.00    +0.000 C 
ATOM     20  C   UNL     1       5.326   3.720  13.444  0.00  0.00    +0.000 C 
ATOM     21  C   UNL     1       6.070   3.338  12.170  0.00  0.00    +0.000 C 
ATOM     22  C   UNL     1       7.316   4.225  12.138  0.00  0.00    +0.000 C 
ATOM     23  C   UNL     1       7.325   4.996  13.459  0.00  0.00    +0.000 C 
ENDBRANCH  17  19
ENDBRANCH  14  15
ENDBRANCH  13  14
ENDBRANCH   4  13
TORSDOF 4
ENDMDL
MODEL 3
REMARK VINA RESULT:      -7.1      3.962      7.277
REMARK  Name = 
REMARK  7 active torsions:
REMARK  status: ('A' for Active; 'I' for Inactive)
REMARK    1  A    between atoms: C_1  and  C_2
REMARK    2  A    between atoms: C_4  and  S_5
REMARK    3  A    between atoms: S_5  and  C_6
REMARK    4  A    between atoms: C_6  and  C_7
REMARK    5  A    between atoms: N_9  and  C_10
REMARK    6  A    between atoms: C_16  and  C_17
REMARK    7  A    between atoms: C_18  and  C_19
REMARK                            x       y       z     vdW  Elec       q    Type
REMARK                         _______ _______ _______ _____ _____    ______ ____
ROOT
ATOM      1  C   UNL     1       7.964   5.765  19.121  0.00  0.00    +0.000 C 
ATOM      2  C   UNL     1       6.518   5.430  18.899  0.00  0.00    +0.000 A 
ATOM      3  N   UNL     1       5.733   6.355  18.312  0.00  0.00    +0.000 NA
ATOM      4  C   UNL     1       4.435   6.052  18.078  0.00  0.00    +0.000 A 
ATOM      5  C   UNL     1       3.917   4.791  18.444  0.00  0.00    +0.000 A 
ATOM      6  C   UNL     1       2.627   4.103  18.321  0.00  0.00    +0.000 A 
ATOM      7  C   UNL     1       1.398   4.595  17.619  0.00  0.00    +0.000 C 
ATOM      8  C   UNL     1       2.643   2.877  18.975  0.00  0.00    +0.000 A 
ATOM      9  C   UNL     1       1.525   1.901  19.169  0.00  0.00    +0.000 C 
ATOM     10  S   UNL     1       4.179   2.494  19.607  0.00  0.00    +0.000 S 
ATOM     11  C   UNL     1       4.832   3.969  19.084  0.00  0.00    +0.000 A 
ATOM     12  N   UNL     1       6.126   4.232  19.329  0.00  0.00    +0.000 NA
ENDROOT
BRANCH   4  13
ATOM     13  S   UNL     1       3.362   7.263  17.369  0.00  0.00    +0.000 S 
BRANCH  13  14
ATOM     14  C   UNL     1       2.377   7.845  18.776  0.00  0.00    +0.000 C 
BRANCH  14  15
ATOM     15  C   UNL     1       1.701   9.139  18.334  0.00  0.00    +0.000 C 
ATOM     16  O   UNL     1       2.054   9.750  17.327  0.00  0.00    +0.000 OA
ATOM     17  N   UNL     1       0.640   9.547  19.128  0.00  0.00    +0.000 N 
ATOM     18  H   UNL     1       0.261   8.879  19.789  0.00  0.00    +0.000 HD
BRANCH  17  19
ATOM     19  C   UNL     1      -0.188  10.669  18.737  0.00  0.00    +0.000 C 
ATOM     20  C   UNL     1      -1.394  10.269  17.891  0.00  0.00    +0.000 C 
ATOM     21  C   UNL     1      -2.276  11.511  17.934  0.00  0.00    +0.000 C 
ATOM     22  C   UNL     1      -1.986  12.177  19.281  0.00  0.00    +0.000 C 
ATOM     23  C   UNL     1      -0.848  11.376  19.915  0.00  0.00    +0.000 C 
ENDBRANCH  17  19
ENDBRANCH  14  15
ENDBRANCH  13  14
ENDBRANCH   4  13
TORSDOF 4
ENDMDL
MODEL 4
REMARK VINA RESULT:      -6.8      3.755      7.605
REMARK  Name = 
REMARK  7 active torsions:
REMARK  status: ('A' for Active; 'I' for Inactive)
REMARK    1  A    between atoms: C_1  and  C_2
REMARK    2  A    between atoms: C_4  and  S_5
REMARK    3  A    between atoms: S_5  and  C_6
REMARK    4  A    between atoms: C_6  and  C_7
REMARK    5  A    between atoms: N_9  and  C_10
REMARK    6  A    between atoms: C_16  and  C_17
REMARK    7  A    between atoms: C_18  and  C_19
REMARK                            x       y       z     vdW  Elec       q    Type
REMARK                         _______ _______ _______ _____ _____    ______ ____
ROOT
ATOM      1  C   UNL     1       1.514   2.866  21.720  0.00  0.00    +0.000 C 
ATOM      2  C   UNL     1       2.118   3.671  20.607  0.00  0.00    +0.000 A 
ATOM      3  N   UNL     1       1.929   5.006  20.611  0.00  0.00    +0.000 NA
ATOM      4  C   UNL     1       2.496   5.745  19.630  0.00  0.00    +0.000 A 
ATOM      5  C   UNL     1       3.270   5.128  18.623  0.00  0.00    +0.000 A 
ATOM      6  C   UNL     1       4.049   5.577  17.465  0.00  0.00    +0.000 A 
ATOM      7  C   UNL     1       4.320   6.990  17.046  0.00  0.00    +0.000 C 
ATOM      8  C   UNL     1       4.530   4.501  16.730  0.00  0.00    +0.000 A 
ATOM      9  C   UNL     1       5.291   4.509  15.442  0.00  0.00    +0.000 C 
ATOM     10  S   UNL     1       4.177   3.002  17.460  0.00  0.00    +0.000 S 
ATOM     11  C   UNL     1       3.328   3.746  18.726  0.00  0.00    +0.000 A 
ATOM     12  N   UNL     1       2.785   2.980  19.684  0.00  0.00    +0.000 NA
ENDROOT
BRANCH   4  13
ATOM     13  S   UNL     1       2.215   7.488  19.568  0.00  0.00    +0.000 S 
BRANCH  13  14
ATOM     14  C   UNL     1       1.246   7.823  21.065  0.00  0.00    +0.000 C 
BRANCH  14  15
ATOM     15  C   UNL     1       0.952   9.320  21.071  0.00  0.00    +0.000 C 
ATOM     16  O   UNL     1       1.237  10.038  22.028  0.00  0.00    +0.000 OA
ATOM     17  N   UNL     1       0.382   9.810  19.907  0.00  0.00    +0.000 N 
ATOM     18  H   UNL     1       0.398   9.215  19.087  0.00  0.00    +0.000 HD
BRANCH  17  19
ATOM     19  C   UNL     1       0.195  11.234  19.717  0.00  0.00    +0.000 C 
ATOM     20  C   UNL     1       1.424  11.938  19.148  0.00  0.00    +0.000 C 
ATOM     21  C   UNL     1       0.874  13.286  18.696  0.00  0.00    +0.000 C 
ATOM     22  C   UNL     1      -0.585  13.028  18.312  0.00  0.00    +0.000 C 
ATOM     23  C   UNL     1      -0.872  11.572  18.682  0.00  0.00    +0.000 C 
ENDBRANCH  17  19
ENDBRANCH  14  15
ENDBRANCH  13  14
ENDBRANCH   4  13
TORSDOF 4
ENDMDL
MODEL 5
REMARK VINA RESULT:      -6.8      1.794      3.298
REMARK  Name = 
REMARK  7 active torsions:
REMARK  status: ('A' for Active; 'I' for Inactive)
REMARK    1  A    between atoms: C_1  and  C_2
REMARK    2  A    between atoms: C_4  and  S_5
REMARK    3  A    between atoms: S_5  and  C_6
REMARK    4  A    between atoms: C_6  and  C_7
REMARK    5  A    between atoms: N_9  and  C_10
REMARK    6  A    between atoms: C_16  and  C_17
REMARK    7  A    between atoms: C_18  and  C_19
REMARK                            x       y       z     vdW  Elec       q    Type
REMARK                         _______ _______ _______ _____ _____    ______ ____
ROOT
ATOM      1  C   UNL     1       2.280   8.402  17.597  0.00  0.00    +0.000 C 
ATOM      2  C   UNL     1       2.698   7.024  18.020  0.00  0.00    +0.000 A 
ATOM      3  N   UNL     1       3.990   6.822  18.347  0.00  0.00    +0.000 NA
ATOM      4  C   UNL     1       4.371   5.591  18.760  0.00  0.00    +0.000 A 
ATOM      5  C   UNL     1       3.431   4.541  18.845  0.00  0.00    +0.000 A 
ATOM      6  C   UNL     1       3.451   3.138  19.271  0.00  0.00    +0.000 A 
ATOM      7  C   UNL     1       4.599   2.388  19.876  0.00  0.00    +0.000 C 
ATOM      8  C   UNL     1       2.230   2.519  19.031  0.00  0.00    +0.000 A 
ATOM      9  C   UNL     1       1.847   1.087  19.235  0.00  0.00    +0.000 C 
ATOM     10  S   UNL     1       1.055   3.601  18.436  0.00  0.00    +0.000 S 
ATOM     11  C   UNL     1       2.157   4.891  18.425  0.00  0.00    +0.000 A 
ATOM     12  N   UNL     1       1.740   6.098  18.014  0.00  0.00    +0.000 NA
ENDROOT
BRANCH   4  13
ATOM     13  S   UNL     1       6.068   5.275  19.136  0.00  0.00    +0.000 S 
BRANCH  13  14
ATOM     14  C   UNL     1       6.972   6.205  17.868  0.00  0.00    +0.000 C 
BRANCH  14  15
ATOM     15  C   UNL     1       7.310   5.217  16.757  0.00  0.00    +0.000 C 
ATOM     16  O   UNL     1       8.081   4.276  16.930  0.00  0.00    +0.000 OA
ATOM     17  N   UNL     1       6.652   5.438  15.556  0.00  0.00    +0.000 N 
ATOM     18  H   UNL     1       5.865   6.076  15.560  0.00  0.00    +0.000 HD
BRANCH  17  19
ATOM     19  C   UNL     1       6.759   4.487  14.468  0.00  0.00    +0.000 C 
ATOM     20  C   UNL     1       5.407   4.044  13.914  0.00  0.00    +0.000 C 
ATOM     21  C   UNL     1       5.775   3.382  12.591  0.00  0.00    +0.000 C 
ATOM     22  C   UNL     1       7.038   4.099  12.107  0.00  0.00    +0.000 C 
ATOM     23  C   UNL     1       7.438   5.059  13.229  0.00  0.00    +0.000 C 
ENDBRANCH  17  19
ENDBRANCH  14  15
ENDBRANCH  13  14
ENDBRANCH   4  13
TORSDOF 4
ENDMDL
MODEL 6
REMARK VINA RESULT:      -6.6      3.392      7.860
REMARK  Name = 
REMARK  7 active torsions:
REMARK  status: ('A' for Active; 'I' for Inactive)
REMARK    1  A    between atoms: C_1  and  C_2
REMARK    2  A    between atoms: C_4  and  S_5
REMARK    3  A    between atoms: S_5  and  C_6
REMARK    4  A    between atoms: C_6  and  C_7
REMARK    5  A    between atoms: N_9  and  C_10
REMARK    6  A    between atoms: C_16  and  C_17
REMARK    7  A    between atoms: C_18  and  C_19
REMARK                            x       y       z     vdW  Elec       q    Type
REMARK                         _______ _______ _______ _____ _____    ______ ____
ROOT
ATOM      1  C   UNL     1       5.706   5.980  15.322  0.00  0.00    +0.000 C 
ATOM      2  C   UNL     1       4.765   5.580  16.419  0.00  0.00    +0.000 A 
ATOM      3  N   UNL     1       4.200   6.553  17.161  0.00  0.00    +0.000 NA
ATOM      4  C   UNL     1       3.325   6.204  18.133  0.00  0.00    +0.000 A 
ATOM      5  C   UNL     1       3.013   4.846  18.363  0.00  0.00    +0.000 A 
ATOM      6  C   UNL     1       2.118   4.105  19.258  0.00  0.00    +0.000 A 
ATOM      7  C   UNL     1       1.124   4.674  20.223  0.00  0.00    +0.000 C 
ATOM      8  C   UNL     1       2.300   2.733  19.133  0.00  0.00    +0.000 A 
ATOM      9  C   UNL     1       1.659   1.627  19.910  0.00  0.00    +0.000 C 
ATOM     10  S   UNL     1       3.407   2.331  17.901  0.00  0.00    +0.000 S 
ATOM     11  C   UNL     1       3.713   3.963  17.555  0.00  0.00    +0.000 A 
ATOM     12  N   UNL     1       4.583   4.270  16.580  0.00  0.00    +0.000 NA
ENDROOT
BRANCH   4  13
ATOM     13  S   UNL     1       2.615   7.449  19.166  0.00  0.00    +0.000 S 
BRANCH  13  14
ATOM     14  C   UNL     1       1.964   8.667  17.990  0.00  0.00    +0.000 C 
BRANCH  14  15
ATOM     15  C   UNL     1       0.874   9.444  18.721  0.00  0.00    +0.000 C 
ATOM     16  O   UNL     1      -0.051   9.992  18.124  0.00  0.00    +0.000 OA
ATOM     17  N   UNL     1       0.985   9.448  20.103  0.00  0.00    +0.000 N 
ATOM     18  H   UNL     1       1.624   8.787  20.527  0.00  0.00    +0.000 HD
BRANCH  17  19
ATOM     19  C   UNL     1      -0.064  10.014  20.927  0.00  0.00    +0.000 C 
ATOM     20  C   UNL     1      -0.083   9.460  22.350  0.00  0.00    +0.000 C 
ATOM     21  C   UNL     1      -0.978  10.445  23.093  0.00  0.00    +0.000 C 
ATOM     22  C   UNL     1      -0.793  11.788  22.383  0.00  0.00    +0.000 C 
ATOM     23  C   UNL     1       0.096  11.510  21.171  0.00  0.00    +0.000 C 
ENDBRANCH  17  19
ENDBRANCH  14  15
ENDBRANCH  13  14
ENDBRANCH   4  13
TORSDOF 4
ENDMDL
MODEL 7
REMARK VINA RESULT:      -6.6      3.881      8.607
REMARK  Name = 
REMARK  7 active torsions:
REMARK  status: ('A' for Active; 'I' for Inactive)
REMARK    1  A    between atoms: C_1  and  C_2
REMARK    2  A    between atoms: C_4  and  S_5
REMARK    3  A    between atoms: S_5  and  C_6
REMARK    4  A    between atoms: C_6  and  C_7
REMARK    5  A    between atoms: N_9  and  C_10
REMARK    6  A    between atoms: C_16  and  C_17
REMARK    7  A    between atoms: C_18  and  C_19
REMARK                            x       y       z     vdW  Elec       q    Type
REMARK                         _______ _______ _______ _____ _____    ______ ____
ROOT
ATOM      1  C   UNL     1       1.654   2.751  21.747  0.00  0.00    +0.000 C 
ATOM      2  C   UNL     1       2.190   3.688  20.704  0.00  0.00    +0.000 A 
ATOM      3  N   UNL     1       1.895   4.998  20.813  0.00  0.00    +0.000 NA
ATOM      4  C   UNL     1       2.400   5.856  19.896  0.00  0.00    +0.000 A 
ATOM      5  C   UNL     1       3.220   5.384  18.848  0.00  0.00    +0.000 A 
ATOM      6  C   UNL     1       3.959   5.984  17.732  0.00  0.00    +0.000 A 
ATOM      7  C   UNL     1       4.117   7.443  17.428  0.00  0.00    +0.000 C 
ATOM      8  C   UNL     1       4.524   5.011  16.917  0.00  0.00    +0.000 A 
ATOM      9  C   UNL     1       5.280   5.182  15.638  0.00  0.00    +0.000 C 
ATOM     10  S   UNL     1       4.293   3.436  17.525  0.00  0.00    +0.000 S 
ATOM     11  C   UNL     1       3.388   4.008  18.841  0.00  0.00    +0.000 A 
ATOM     12  N   UNL     1       2.909   3.127  19.733  0.00  0.00    +0.000 NA
ENDROOT
BRANCH   4  13
ATOM     13  S   UNL     1       1.981   7.571  19.971  0.00  0.00    +0.000 S 
BRANCH  13  14
ATOM     14  C   UNL     1       0.741   7.655  21.292  0.00  0.00    +0.000 C 
BRANCH  14  15
ATOM     15  C   UNL     1       0.778   9.078  21.839  0.00  0.00    +0.000 C 
ATOM     16  O   UNL     1       1.719   9.495  22.513  0.00  0.00    +0.000 OA
ATOM     17  N   UNL     1      -0.302   9.871  21.485  0.00  0.00    +0.000 N 
ATOM     18  H   UNL     1      -0.908   9.540  20.743  0.00  0.00    +0.000 HD
BRANCH  17  19
ATOM     19  C   UNL     1      -0.320  11.284  21.803  0.00  0.00    +0.000 C 
ATOM     20  C   UNL     1      -0.911  12.150  20.694  0.00  0.00    +0.000 C 
ATOM     21  C   UNL     1      -1.166  13.481  21.392  0.00  0.00    +0.000 C 
ATOM     22  C   UNL     1      -1.449  13.134  22.855  0.00  0.00    +0.000 C 
ATOM     23  C   UNL     1      -1.217  11.628  22.987  0.00  0.00    +0.000 C 
ENDBRANCH  17  19
ENDBRANCH  14  15
ENDBRANCH  13  14
ENDBRANCH   4  13
TORSDOF 4
ENDMDL
MODEL 8
REMARK VINA RESULT:      -6.5      3.168      7.260
REMARK  Name = 
REMARK  7 active torsions:
REMARK  status: ('A' for Active; 'I' for Inactive)
REMARK    1  A    between atoms: C_1  and  C_2
REMARK    2  A    between atoms: C_4  and  S_5
REMARK    3  A    between atoms: S_5  and  C_6
REMARK    4  A    between atoms: C_6  and  C_7
REMARK    5  A    between atoms: N_9  and  C_10
REMARK    6  A    between atoms: C_16  and  C_17
REMARK    7  A    between atoms: C_18  and  C_19
REMARK                            x       y       z     vdW  Elec       q    Type
REMARK                         _______ _______ _______ _____ _____    ______ ____
ROOT
ATOM      1  C   UNL     1       5.683   3.987  15.169  0.00  0.00    +0.000 C 
ATOM      2  C   UNL     1       4.855   4.244  16.394  0.00  0.00    +0.000 A 
ATOM      3  N   UNL     1       4.656   5.522  16.773  0.00  0.00    +0.000 NA
ATOM      4  C   UNL     1       3.885   5.766  17.857  0.00  0.00    +0.000 A 
ATOM      5  C   UNL     1       3.301   4.700  18.576  0.00  0.00    +0.000 A 
ATOM      6  C   UNL     1       2.405   4.569  19.730  0.00  0.00    +0.000 A 
ATOM      7  C   UNL     1       1.735   5.674  20.489  0.00  0.00    +0.000 C 
ATOM      8  C   UNL     1       2.237   3.239  20.092  0.00  0.00    +0.000 A 
ATOM      9  C   UNL     1       1.482   2.670  21.252  0.00  0.00    +0.000 C 
ATOM     10  S   UNL     1       3.015   2.167  19.019  0.00  0.00    +0.000 S 
ATOM     11  C   UNL     1       3.639   3.445  18.095  0.00  0.00    +0.000 A 
ATOM     12  N   UNL     1       4.396   3.163  17.023  0.00  0.00    +0.000 NA
ENDROOT
BRANCH   4  13
ATOM     13  S   UNL     1       3.656   7.425  18.419  0.00  0.00    +0.000 S 
BRANCH  13  14
ATOM     14  C   UNL     1       2.112   7.943  17.622  0.00  0.00    +0.000 C 
BRANCH  14  15
ATOM     15  C   UNL     1       1.771   9.321  18.178  0.00  0.00    +0.000 C 
ATOM     16  O   UNL     1       2.105  10.358  17.608  0.00  0.00    +0.000 OA
ATOM     17  N   UNL     1       1.025   9.313  19.347  0.00  0.00    +0.000 N 
ATOM     18  H   UNL     1       0.590   8.441  19.623  0.00  0.00    +0.000 HD
BRANCH  17  19
ATOM     19  C   UNL     1       0.500  10.546  19.899  0.00  0.00    +0.000 C 
ATOM     20  C   UNL     1      -0.980  10.766  19.593  0.00  0.00    +0.000 C 
ATOM     21  C   UNL     1      -1.372  11.876  20.561  0.00  0.00    +0.000 C 
ATOM     22  C   UNL     1      -0.462  11.703  21.779  0.00  0.00    +0.000 C 
ATOM     23  C   UNL     1       0.518  10.584  21.422  0.00  0.00    +0.000 C 
ENDBRANCH  17  19
ENDBRANCH  14  15
ENDBRANCH  13  14
ENDBRANCH   4  13
TORSDOF 4
ENDMDL
MODEL 9
REMARK VINA RESULT:      -6.4      3.221      7.989
REMARK  Name = 
REMARK  7 active torsions:
REMARK  status: ('A' for Active; 'I' for Inactive)
REMARK    1  A    between atoms: C_1  and  C_2
REMARK    2  A    between atoms: C_4  and  S_5
REMARK    3  A    between atoms: S_5  and  C_6
REMARK    4  A    between atoms: C_6  and  C_7
REMARK    5  A    between atoms: N_9  and  C_10
REMARK    6  A    between atoms: C_16  and  C_17
REMARK    7  A    between atoms: C_18  and  C_19
REMARK                            x       y       z     vdW  Elec       q    Type
REMARK                         _______ _______ _______ _____ _____    ______ ____
ROOT
ATOM      1  C   UNL     1       1.818   4.711  21.125  0.00  0.00    +0.000 C 
ATOM      2  C   UNL     1       2.550   5.044  19.858  0.00  0.00    +0.000 A 
ATOM      3  N   UNL     1       2.529   6.321  19.427  0.00  0.00    +0.000 NA
ATOM      4  C   UNL     1       3.212   6.637  18.303  0.00  0.00    +0.000 A 
ATOM      5  C   UNL     1       3.932   5.648  17.598  0.00  0.00    +0.000 A 
ATOM      6  C   UNL     1       4.794   5.613  16.412  0.00  0.00    +0.000 A 
ATOM      7  C   UNL     1       5.253   6.777  15.588  0.00  0.00    +0.000 C 
ATOM      8  C   UNL     1       5.159   4.311  16.090  0.00  0.00    +0.000 A 
ATOM      9  C   UNL     1       5.953   3.821  14.921  0.00  0.00    +0.000 C 
ATOM     10  S   UNL     1       4.601   3.175  17.232  0.00  0.00    +0.000 S 
ATOM     11  C   UNL     1       3.814   4.376  18.136  0.00  0.00    +0.000 A 
ATOM     12  N   UNL     1       3.152   4.023  19.249  0.00  0.00    +0.000 NA
ENDROOT
BRANCH   4  13
ATOM     13  S   UNL     1       3.153   8.288  17.674  0.00  0.00    +0.000 S 
BRANCH  13  14
ATOM     14  C   UNL     1       1.394   8.721  17.760  0.00  0.00    +0.000 C 
BRANCH  14  15
ATOM     15  C   UNL     1       1.242   9.713  18.908  0.00  0.00    +0.000 C 
ATOM     16  O   UNL     1       1.507  10.907  18.780  0.00  0.00    +0.000 OA
ATOM     17  N   UNL     1       0.747   9.176  20.086  0.00  0.00    +0.000 N 
ATOM     18  H   UNL     1       0.333   8.252  20.046  0.00  0.00    +0.000 HD
BRANCH  17  19
ATOM     19  C   UNL     1       0.407  10.031  21.205  0.00  0.00    +0.000 C 
ATOM     20  C   UNL     1      -0.730  11.004  20.902  0.00  0.00    +0.000 C 
ATOM     21  C   UNL     1      -1.143  11.496  22.284  0.00  0.00    +0.000 C 
ATOM     22  C   UNL     1      -0.841  10.341  23.242  0.00  0.00    +0.000 C 
ATOM     23  C   UNL     1      -0.139   9.269  22.407  0.00  0.00    +0.000 C 
ENDBRANCH  17  19
ENDBRANCH  14  15
ENDBRANCH  13  14
ENDBRANCH   4  13
TORSDOF 4
ENDMDL
