MODEL 1
REMARK VINA RESULT:      -7.3      0.000      0.000
REMARK  Name = 
REMARK  11 active torsions:
REMARK  status: ('A' for Active; 'I' for Inactive)
REMARK    1  A    between atoms: C_1  and  C_2
REMARK    2  A    between atoms: C_6  and  C_7
REMARK    3  A    between atoms: C_7  and  N_8
REMARK    4  A    between atoms: N_8  and  C_9
REMARK    5  A    between atoms: C_9  and  C_10
REMARK    6  A    between atoms: C_10  and  C_11
REMARK    7  A    between atoms: C_10  and  C_12
REMARK    8  A    between atoms: C_13  and  C_15
REMARK    9  A    between atoms: C_20  and  C_21
REMARK   10  A    between atoms: C_21  and  C_22
REMARK   11  A    between atoms: C_22  and  O_23
REMARK                            x       y       z     vdW  Elec       q    Type
REMARK                         _______ _______ _______ _____ _____    ______ ____
ROOT
ATOM      1  N   UNL     1       3.438   4.772  17.854  0.00  0.00    +0.000 N 
ATOM      2  C   UNL     1       3.834   5.872  18.691  0.00  0.00    +0.000 C 
ATOM      3  O   UNL     1       4.918   5.910  19.236  0.00  0.00    +0.000 OA
ENDROOT
BRANCH   2   4
ATOM      4  C   UNL     1       2.851   6.972  18.912  0.00  0.00    +0.000 A 
ATOM      5  C   UNL     1       2.416   7.959  17.972  0.00  0.00    +0.000 A 
ATOM      6  C   UNL     1       1.730   8.898  18.712  0.00  0.00    +0.000 A 
ATOM      7  N   UNL     1       1.261  10.144  18.404  0.00  0.00    +0.000 NA
ATOM      8  C   UNL     1       0.666  10.787  19.364  0.00  0.00    +0.000 A 
ATOM      9  C   UNL     1       0.373  10.260  20.738  0.00  0.00    +0.000 A 
ATOM     10  C   UNL     1       0.876   9.033  20.967  0.00  0.00    +0.000 A 
ATOM     11  N   UNL     1       1.590   8.351  19.981  0.00  0.00    +0.000 N 
ATOM     12  N   UNL     1       2.242   7.175  20.091  0.00  0.00    +0.000 NA
BRANCH   9  13
ATOM     13  C   UNL     1      -0.370  11.094  21.750  0.00  0.00    +0.000 C 
BRANCH  13  14
ATOM     14  C   UNL     1      -0.911  10.336  22.967  0.00  0.00    +0.000 C 
BRANCH  14  15
ATOM     15  O   UNL     1       0.142   9.944  23.835  0.00  0.00    +0.000 OA
ATOM     16  H   UNL     1       0.853  10.603  23.756  0.00  0.00    +0.000 HD
ENDBRANCH  14  15
ENDBRANCH  13  14
ENDBRANCH   9  13
ENDBRANCH   2   4
BRANCH   1  17
ATOM     17  C   UNL     1       4.478   3.729  17.670  0.00  0.00    +0.000 C 
BRANCH  17  23
ATOM     18  C   UNL     1       7.711   4.614  17.936  0.00  0.00    +0.000 C 
ATOM     19  C   UNL     1       6.864   4.493  16.710  0.00  0.00    +0.000 A 
ATOM     20  C   UNL     1       7.234   5.113  15.461  0.00  0.00    +0.000 A 
ATOM     21  C   UNL     1       6.312   4.935  14.458  0.00  0.00    +0.000 A 
ATOM     22  S   UNL     1       5.049   3.911  14.971  0.00  0.00    +0.000 S 
ATOM     23  C   UNL     1       5.550   4.026  16.633  0.00  0.00    +0.000 A 
ENDBRANCH  17  23
ENDBRANCH   1  17
BRANCH   1  24
ATOM     24  C   UNL     1       1.988   4.427  17.591  0.00  0.00    +0.000 C 
BRANCH  24  25
ATOM     25  C   UNL     1       1.298   3.481  18.622  0.00  0.00    +0.000 C 
ATOM     26  C   UNL     1       1.646   2.014  18.414  0.00  0.00    +0.000 C 
ATOM     27  C   UNL     1       1.429   3.873  20.118  0.00  0.00    +0.000 C 
ENDBRANCH  24  25
ENDBRANCH   1  24
TORSDOF 8
ENDMDL
MODEL 2
REMARK VINA RESULT:      -7.0      0.885      1.214
REMARK  Name = 
REMARK  11 active torsions:
REMARK  status: ('A' for Active; 'I' for Inactive)
REMARK    1  A    between atoms: C_1  and  C_2
REMARK    2  A    between atoms: C_6  and  C_7
REMARK    3  A    between atoms: C_7  and  N_8
REMARK    4  A    between atoms: N_8  and  C_9
REMARK    5  A    between atoms: C_9  and  C_10
REMARK    6  A    between atoms: C_10  and  C_11
REMARK    7  A    between atoms: C_10  and  C_12
REMARK    8  A    between atoms: C_13  and  C_15
REMARK    9  A    between atoms: C_20  and  C_21
REMARK   10  A    between atoms: C_21  and  C_22
REMARK   11  A    between atoms: C_22  and  O_23
REMARK                            x       y       z     vdW  Elec       q    Type
REMARK                         _______ _______ _______ _____ _____    ______ ____
ROOT
ATOM      1  N   UNL     1       3.474   4.772  18.041  0.00  0.00    +0.000 N 
ATOM      2  C   UNL     1       3.870   5.996  18.683  0.00  0.00    +0.000 C 
ATOM      3  O   UNL     1       4.997   6.172  19.099  0.00  0.00    +0.000 OA
ENDROOT
BRANCH   2   4
ATOM      4  C   UNL     1       2.837   7.057  18.865  0.00  0.00    +0.000 A 
ATOM      5  C   UNL     1       2.347   7.978  17.885  0.00  0.00    +0.000 A 
ATOM      6  C   UNL     1       1.622   8.916  18.589  0.00  0.00    +0.000 A 
ATOM      7  N   UNL     1       1.090  10.122  18.230  0.00  0.00    +0.000 NA
ATOM      8  C   UNL     1       0.473  10.778  19.167  0.00  0.00    +0.000 A 
ATOM      9  C   UNL     1       0.217  10.301  20.566  0.00  0.00    +0.000 A 
ATOM     10  C   UNL     1       0.781   9.112  20.845  0.00  0.00    +0.000 A 
ATOM     11  N   UNL     1       1.519   8.421  19.883  0.00  0.00    +0.000 N 
ATOM     12  N   UNL     1       2.228   7.284  20.040  0.00  0.00    +0.000 NA
BRANCH   9  13
ATOM     13  C   UNL     1      -0.558  11.144  21.547  0.00  0.00    +0.000 C 
BRANCH  13  14
ATOM     14  C   UNL     1      -0.451  12.659  21.352  0.00  0.00    +0.000 C 
BRANCH  14  15
ATOM     15  O   UNL     1       0.825  13.138  21.751  0.00  0.00    +0.000 OA
ATOM     16  H   UNL     1       1.063  12.690  22.581  0.00  0.00    +0.000 HD
ENDBRANCH  14  15
ENDBRANCH  13  14
ENDBRANCH   9  13
ENDBRANCH   2   4
BRANCH   1  17
ATOM     17  C   UNL     1       4.564   3.776  17.883  0.00  0.00    +0.000 C 
BRANCH  17  23
ATOM     18  C   UNL     1       7.822   4.604  17.970  0.00  0.00    +0.000 C 
ATOM     19  C   UNL     1       6.905   4.507  16.794  0.00  0.00    +0.000 A 
ATOM     20  C   UNL     1       7.214   5.129  15.530  0.00  0.00    +0.000 A 
ATOM     21  C   UNL     1       6.233   4.974  14.580  0.00  0.00    +0.000 A 
ATOM     22  S   UNL     1       4.984   3.968  15.157  0.00  0.00    +0.000 S 
ATOM     23  C   UNL     1       5.580   4.063  16.789  0.00  0.00    +0.000 A 
ENDBRANCH  17  23
ENDBRANCH   1  17
BRANCH   1  24
ATOM     24  C   UNL     1       2.035   4.310  17.982  0.00  0.00    +0.000 C 
BRANCH  24  25
ATOM     25  C   UNL     1       1.562   3.350  19.117  0.00  0.00    +0.000 C 
ATOM     26  C   UNL     1       0.956   4.081  20.307  0.00  0.00    +0.000 C 
ATOM     27  C   UNL     1       0.666   2.157  18.688  0.00  0.00    +0.000 C 
ENDBRANCH  24  25
ENDBRANCH   1  24
TORSDOF 8
ENDMDL
MODEL 3
REMARK VINA RESULT:      -6.7      3.775      8.995
REMARK  Name = 
REMARK  11 active torsions:
REMARK  status: ('A' for Active; 'I' for Inactive)
REMARK    1  A    between atoms: C_1  and  C_2
REMARK    2  A    between atoms: C_6  and  C_7
REMARK    3  A    between atoms: C_7  and  N_8
REMARK    4  A    between atoms: N_8  and  C_9
REMARK    5  A    between atoms: C_9  and  C_10
REMARK    6  A    between atoms: C_10  and  C_11
REMARK    7  A    between atoms: C_10  and  C_12
REMARK    8  A    between atoms: C_13  and  C_15
REMARK    9  A    between atoms: C_20  and  C_21
REMARK   10  A    between atoms: C_21  and  C_22
REMARK   11  A    between atoms: C_22  and  O_23
REMARK                            x       y       z     vdW  Elec       q    Type
REMARK                         _______ _______ _______ _____ _____    ______ ____
ROOT
ATOM      1  N   UNL     1      -0.831  11.215  19.268  0.00  0.00    +0.000 N 
ATOM      2  C   UNL     1       0.587  11.062  19.447  0.00  0.00    +0.000 C 
ATOM      3  O   UNL     1       1.304  11.996  19.743  0.00  0.00    +0.000 OA
ENDROOT
BRANCH   2   4
ATOM      4  C   UNL     1       1.180   9.712  19.221  0.00  0.00    +0.000 A 
ATOM      5  C   UNL     1       1.119   8.574  20.086  0.00  0.00    +0.000 A 
ATOM      6  C   UNL     1       2.030   7.673  19.577  0.00  0.00    +0.000 A 
ATOM      7  N   UNL     1       2.546   6.510  20.074  0.00  0.00    +0.000 NA
ATOM      8  C   UNL     1       3.422   5.905  19.329  0.00  0.00    +0.000 A 
ATOM      9  C   UNL     1       3.848   6.314  17.950  0.00  0.00    +0.000 A 
ATOM     10  C   UNL     1       3.305   7.473  17.536  0.00  0.00    +0.000 A 
ATOM     11  N   UNL     1       2.424   8.187  18.348  0.00  0.00    +0.000 N 
ATOM     12  N   UNL     1       1.887   9.404  18.122  0.00  0.00    +0.000 NA
BRANCH   9  13
ATOM     13  C   UNL     1       4.843   5.495  17.166  0.00  0.00    +0.000 C 
BRANCH  13  14
ATOM     14  C   UNL     1       6.188   5.246  17.856  0.00  0.00    +0.000 C 
BRANCH  14  15
ATOM     15  O   UNL     1       6.249   3.937  18.403  0.00  0.00    +0.000 OA
ATOM     16  H   UNL     1       5.842   3.329  17.761  0.00  0.00    +0.000 HD
ENDBRANCH  14  15
ENDBRANCH  13  14
ENDBRANCH   9  13
ENDBRANCH   2   4
BRANCH   1  17
ATOM     17  C   UNL     1      -1.344  12.583  19.529  0.00  0.00    +0.000 C 
BRANCH  17  23
ATOM     18  C   UNL     1      -0.800  11.581  22.692  0.00  0.00    +0.000 C 
ATOM     19  C   UNL     1      -1.988  12.281  22.117  0.00  0.00    +0.000 A 
ATOM     20  C   UNL     1      -3.264  12.301  22.789  0.00  0.00    +0.000 A 
ATOM     21  C   UNL     1      -4.251  12.951  22.088  0.00  0.00    +0.000 A 
ATOM     22  S   UNL     1      -3.622  13.657  20.670  0.00  0.00    +0.000 S 
ATOM     23  C   UNL     1      -2.133  12.769  20.815  0.00  0.00    +0.000 A 
ENDBRANCH  17  23
ENDBRANCH   1  17
BRANCH   1  24
ATOM     24  C   UNL     1      -1.655  10.263  18.429  0.00  0.00    +0.000 C 
BRANCH  24  25
ATOM     25  C   UNL     1      -2.676  10.907  17.442  0.00  0.00    +0.000 C 
ATOM     26  C   UNL     1      -2.522  10.410  16.011  0.00  0.00    +0.000 C 
ATOM     27  C   UNL     1      -4.167  10.888  17.875  0.00  0.00    +0.000 C 
ENDBRANCH  24  25
ENDBRANCH   1  24
TORSDOF 8
ENDMDL
MODEL 4
REMARK VINA RESULT:      -6.7      1.966      2.498
REMARK  Name = 
REMARK  11 active torsions:
REMARK  status: ('A' for Active; 'I' for Inactive)
REMARK    1  A    between atoms: C_1  and  C_2
REMARK    2  A    between atoms: C_6  and  C_7
REMARK    3  A    between atoms: C_7  and  N_8
REMARK    4  A    between atoms: N_8  and  C_9
REMARK    5  A    between atoms: C_9  and  C_10
REMARK    6  A    between atoms: C_10  and  C_11
REMARK    7  A    between atoms: C_10  and  C_12
REMARK    8  A    between atoms: C_13  and  C_15
REMARK    9  A    between atoms: C_20  and  C_21
REMARK   10  A    between atoms: C_21  and  C_22
REMARK   11  A    between atoms: C_22  and  O_23
REMARK                            x       y       z     vdW  Elec       q    Type
REMARK                         _______ _______ _______ _____ _____    ______ ____
ROOT
ATOM      1  N   UNL     1       3.485   4.808  18.168  0.00  0.00    +0.000 N 
ATOM      2  C   UNL     1       3.979   5.948  18.893  0.00  0.00    +0.000 C 
ATOM      3  O   UNL     1       5.126   6.016  19.285  0.00  0.00    +0.000 OA
ENDROOT
BRANCH   2   4
ATOM      4  C   UNL     1       3.025   7.055  19.191  0.00  0.00    +0.000 A 
ATOM      5  C   UNL     1       2.348   7.319  20.424  0.00  0.00    +0.000 A 
ATOM      6  C   UNL     1       1.388   8.262  20.126  0.00  0.00    +0.000 A 
ATOM      7  N   UNL     1       0.329   8.750  20.837  0.00  0.00    +0.000 NA
ATOM      8  C   UNL     1      -0.407   9.636  20.236  0.00  0.00    +0.000 A 
ATOM      9  C   UNL     1      -0.155  10.230  18.881  0.00  0.00    +0.000 A 
ATOM     10  C   UNL     1       0.897   9.690  18.240  0.00  0.00    +0.000 A 
ATOM     11  N   UNL     1       1.659   8.679  18.828  0.00  0.00    +0.000 N 
ATOM     12  N   UNL     1       2.666   7.970  18.277  0.00  0.00    +0.000 NA
BRANCH   9  13
ATOM     13  C   UNL     1      -1.064  11.290  18.313  0.00  0.00    +0.000 C 
BRANCH  13  14
ATOM     14  C   UNL     1      -2.290  10.776  17.553  0.00  0.00    +0.000 C 
BRANCH  14  15
ATOM     15  O   UNL     1      -2.111  10.898  16.149  0.00  0.00    +0.000 OA
ATOM     16  H   UNL     1      -2.573  11.705  15.861  0.00  0.00    +0.000 HD
ENDBRANCH  14  15
ENDBRANCH  13  14
ENDBRANCH   9  13
ENDBRANCH   2   4
BRANCH   1  17
ATOM     17  C   UNL     1       4.501   3.761  17.896  0.00  0.00    +0.000 C 
BRANCH  17  23
ATOM     18  C   UNL     1       7.766   4.566  17.915  0.00  0.00    +0.000 C 
ATOM     19  C   UNL     1       6.818   4.496  16.761  0.00  0.00    +0.000 A 
ATOM     20  C   UNL     1       7.099   5.139  15.501  0.00  0.00    +0.000 A 
ATOM     21  C   UNL     1       6.094   5.007  14.574  0.00  0.00    +0.000 A 
ATOM     22  S   UNL     1       4.853   3.999  15.164  0.00  0.00    +0.000 S 
ATOM     23  C   UNL     1       5.491   4.060  16.782  0.00  0.00    +0.000 A 
ENDBRANCH  17  23
ENDBRANCH   1  17
BRANCH   1  24
ATOM     24  C   UNL     1       2.017   4.447  18.119  0.00  0.00    +0.000 C 
BRANCH  24  25
ATOM     25  C   UNL     1       1.515   3.418  19.178  0.00  0.00    +0.000 C 
ATOM     26  C   UNL     1       0.877   4.075  20.395  0.00  0.00    +0.000 C 
ATOM     27  C   UNL     1       0.631   2.255  18.652  0.00  0.00    +0.000 C 
ENDBRANCH  24  25
ENDBRANCH   1  24
TORSDOF 8
ENDMDL
MODEL 5
REMARK VINA RESULT:      -6.6      1.684      2.156
REMARK  Name = 
REMARK  11 active torsions:
REMARK  status: ('A' for Active; 'I' for Inactive)
REMARK    1  A    between atoms: C_1  and  C_2
REMARK    2  A    between atoms: C_6  and  C_7
REMARK    3  A    between atoms: C_7  and  N_8
REMARK    4  A    between atoms: N_8  and  C_9
REMARK    5  A    between atoms: C_9  and  C_10
REMARK    6  A    between atoms: C_10  and  C_11
REMARK    7  A    between atoms: C_10  and  C_12
REMARK    8  A    between atoms: C_13  and  C_15
REMARK    9  A    between atoms: C_20  and  C_21
REMARK   10  A    between atoms: C_21  and  C_22
REMARK   11  A    between atoms: C_22  and  O_23
REMARK                            x       y       z     vdW  Elec       q    Type
REMARK                         _______ _______ _______ _____ _____    ______ ____
ROOT
ATOM      1  N   UNL     1       3.409   4.882  18.054  0.00  0.00    +0.000 N 
ATOM      2  C   UNL     1       3.841   5.888  18.987  0.00  0.00    +0.000 C 
ATOM      3  O   UNL     1       4.908   5.819  19.561  0.00  0.00    +0.000 OA
ENDROOT
BRANCH   2   4
ATOM      4  C   UNL     1       2.916   7.024  19.268  0.00  0.00    +0.000 A 
ATOM      5  C   UNL     1       2.242   7.321  20.495  0.00  0.00    +0.000 A 
ATOM      6  C   UNL     1       1.310   8.287  20.181  0.00  0.00    +0.000 A 
ATOM      7  N   UNL     1       0.262   8.813  20.882  0.00  0.00    +0.000 NA
ATOM      8  C   UNL     1      -0.447   9.712  20.267  0.00  0.00    +0.000 A 
ATOM      9  C   UNL     1      -0.171  10.284  18.907  0.00  0.00    +0.000 A 
ATOM     10  C   UNL     1       0.869   9.707  18.277  0.00  0.00    +0.000 A 
ATOM     11  N   UNL     1       1.599   8.683  18.880  0.00  0.00    +0.000 N 
ATOM     12  N   UNL     1       2.588   7.939  18.342  0.00  0.00    +0.000 NA
BRANCH   9  13
ATOM     13  C   UNL     1      -1.047  11.363  18.323  0.00  0.00    +0.000 C 
BRANCH  13  14
ATOM     14  C   UNL     1      -0.659  12.800  18.681  0.00  0.00    +0.000 C 
BRANCH  14  15
ATOM     15  O   UNL     1       0.498  13.212  17.967  0.00  0.00    +0.000 OA
ATOM     16  H   UNL     1       1.244  12.668  18.273  0.00  0.00    +0.000 HD
ENDBRANCH  14  15
ENDBRANCH  13  14
ENDBRANCH   9  13
ENDBRANCH   2   4
BRANCH   1  17
ATOM     17  C   UNL     1       4.392   3.796  17.816  0.00  0.00    +0.000 C 
BRANCH  17  23
ATOM     18  C   UNL     1       7.635   4.653  18.058  0.00  0.00    +0.000 C 
ATOM     19  C   UNL     1       6.780   4.533  16.838  0.00  0.00    +0.000 A 
ATOM     20  C   UNL     1       7.148   5.141  15.583  0.00  0.00    +0.000 A 
ATOM     21  C   UNL     1       6.219   4.965  14.586  0.00  0.00    +0.000 A 
ATOM     22  S   UNL     1       4.950   3.956  15.113  0.00  0.00    +0.000 S 
ATOM     23  C   UNL     1       5.461   4.077  16.771  0.00  0.00    +0.000 A 
ENDBRANCH  17  23
ENDBRANCH   1  17
BRANCH   1  24
ATOM     24  C   UNL     1       1.951   4.646  17.727  0.00  0.00    +0.000 C 
BRANCH  24  25
ATOM     25  C   UNL     1       1.197   3.603  18.609  0.00  0.00    +0.000 C 
ATOM     26  C   UNL     1       1.681   2.176  18.394  0.00  0.00    +0.000 C 
ATOM     27  C   UNL     1       1.088   3.926  20.124  0.00  0.00    +0.000 C 
ENDBRANCH  24  25
ENDBRANCH   1  24
TORSDOF 8
ENDMDL
MODEL 6
REMARK VINA RESULT:      -6.6      1.954      2.486
REMARK  Name = 
REMARK  11 active torsions:
REMARK  status: ('A' for Active; 'I' for Inactive)
REMARK    1  A    between atoms: C_1  and  C_2
REMARK    2  A    between atoms: C_6  and  C_7
REMARK    3  A    between atoms: C_7  and  N_8
REMARK    4  A    between atoms: N_8  and  C_9
REMARK    5  A    between atoms: C_9  and  C_10
REMARK    6  A    between atoms: C_10  and  C_11
REMARK    7  A    between atoms: C_10  and  C_12
REMARK    8  A    between atoms: C_13  and  C_15
REMARK    9  A    between atoms: C_20  and  C_21
REMARK   10  A    between atoms: C_21  and  C_22
REMARK   11  A    between atoms: C_22  and  O_23
REMARK                            x       y       z     vdW  Elec       q    Type
REMARK                         _______ _______ _______ _____ _____    ______ ____
ROOT
ATOM      1  N   UNL     1       3.243   4.945  18.503  0.00  0.00    +0.000 N 
ATOM      2  C   UNL     1       3.221   6.274  17.955  0.00  0.00    +0.000 C 
ATOM      3  O   UNL     1       3.772   6.550  16.909  0.00  0.00    +0.000 OA
ENDROOT
BRANCH   2   4
ATOM      4  C   UNL     1       2.523   7.339  18.731  0.00  0.00    +0.000 A 
ATOM      5  C   UNL     1       2.131   7.306  20.107  0.00  0.00    +0.000 A 
ATOM      6  C   UNL     1       1.294   8.387  20.280  0.00  0.00    +0.000 A 
ATOM      7  N   UNL     1       0.472   8.756  21.307  0.00  0.00    +0.000 NA
ATOM      8  C   UNL     1      -0.213   9.846  21.131  0.00  0.00    +0.000 A 
ATOM      9  C   UNL     1      -0.120  10.775  19.956  0.00  0.00    +0.000 A 
ATOM     10  C   UNL     1       0.701  10.338  18.984  0.00  0.00    +0.000 A 
ATOM     11  N   UNL     1       1.387   9.129  19.109  0.00  0.00    +0.000 N 
ATOM     12  N   UNL     1       2.153   8.510  18.187  0.00  0.00    +0.000 NA
BRANCH   9  13
ATOM     13  C   UNL     1      -0.938  12.039  19.896  0.00  0.00    +0.000 C 
BRANCH  13  14
ATOM     14  C   UNL     1      -0.925  12.775  18.552  0.00  0.00    +0.000 C 
BRANCH  14  15
ATOM     15  O   UNL     1      -2.010  12.366  17.733  0.00  0.00    +0.000 OA
ATOM     16  H   UNL     1      -1.778  12.569  16.810  0.00  0.00    +0.000 HD
ENDBRANCH  14  15
ENDBRANCH  13  14
ENDBRANCH   9  13
ENDBRANCH   2   4
BRANCH   1  17
ATOM     17  C   UNL     1       3.941   3.940  17.662  0.00  0.00    +0.000 C 
BRANCH  17  23
ATOM     18  C   UNL     1       6.521   5.287  19.346  0.00  0.00    +0.000 C 
ATOM     19  C   UNL     1       6.423   4.931  17.898  0.00  0.00    +0.000 A 
ATOM     20  C   UNL     1       7.331   5.471  16.915  0.00  0.00    +0.000 A 
ATOM     21  C   UNL     1       7.060   5.068  15.630  0.00  0.00    +0.000 A 
ATOM     22  S   UNL     1       5.788   3.934  15.604  0.00  0.00    +0.000 S 
ATOM     23  C   UNL     1       5.366   4.280  17.256  0.00  0.00    +0.000 A 
ENDBRANCH  17  23
ENDBRANCH   1  17
BRANCH   1  24
ATOM     24  C   UNL     1       3.042   4.666  19.976  0.00  0.00    +0.000 C 
BRANCH  24  25
ATOM     25  C   UNL     1       2.228   3.387  20.340  0.00  0.00    +0.000 C 
ATOM     26  C   UNL     1       2.153   3.131  21.839  0.00  0.00    +0.000 C 
ATOM     27  C   UNL     1       0.827   3.247  19.686  0.00  0.00    +0.000 C 
ENDBRANCH  24  25
ENDBRANCH   1  24
TORSDOF 8
ENDMDL
MODEL 7
REMARK VINA RESULT:      -6.5      2.184      3.065
REMARK  Name = 
REMARK  11 active torsions:
REMARK  status: ('A' for Active; 'I' for Inactive)
REMARK    1  A    between atoms: C_1  and  C_2
REMARK    2  A    between atoms: C_6  and  C_7
REMARK    3  A    between atoms: C_7  and  N_8
REMARK    4  A    between atoms: N_8  and  C_9
REMARK    5  A    between atoms: C_9  and  C_10
REMARK    6  A    between atoms: C_10  and  C_11
REMARK    7  A    between atoms: C_10  and  C_12
REMARK    8  A    between atoms: C_13  and  C_15
REMARK    9  A    between atoms: C_20  and  C_21
REMARK   10  A    between atoms: C_21  and  C_22
REMARK   11  A    between atoms: C_22  and  O_23
REMARK                            x       y       z     vdW  Elec       q    Type
REMARK                         _______ _______ _______ _____ _____    ______ ____
ROOT
ATOM      1  N   UNL     1       2.536   6.099  18.902  0.00  0.00    +0.000 N 
ATOM      2  C   UNL     1       2.440   7.510  18.641  0.00  0.00    +0.000 C 
ATOM      3  O   UNL     1       2.913   8.015  17.644  0.00  0.00    +0.000 OA
ENDROOT
BRANCH   2   4
ATOM      4  C   UNL     1       1.763   8.366  19.658  0.00  0.00    +0.000 A 
ATOM      5  C   UNL     1       1.649   8.129  21.064  0.00  0.00    +0.000 A 
ATOM      6  C   UNL     1       0.719   9.040  21.519  0.00  0.00    +0.000 A 
ATOM      7  N   UNL     1       0.065   9.166  22.712  0.00  0.00    +0.000 NA
ATOM      8  C   UNL     1      -0.784  10.146  22.800  0.00  0.00    +0.000 A 
ATOM      9  C   UNL     1      -1.045  11.192  21.758  0.00  0.00    +0.000 A 
ATOM     10  C   UNL     1      -0.373  10.993  20.610  0.00  0.00    +0.000 A 
ATOM     11  N   UNL     1       0.484   9.904  20.456  0.00  0.00    +0.000 N 
ATOM     12  N   UNL     1       1.138   9.511  19.342  0.00  0.00    +0.000 NA
BRANCH   9  13
ATOM     13  C   UNL     1      -2.026  12.310  22.004  0.00  0.00    +0.000 C 
BRANCH  13  14
ATOM     14  C   UNL     1      -1.973  13.473  21.008  0.00  0.00    +0.000 C 
BRANCH  14  15
ATOM     15  O   UNL     1      -3.063  13.419  20.099  0.00  0.00    +0.000 OA
ATOM     16  H   UNL     1      -3.756  14.016  20.432  0.00  0.00    +0.000 HD
ENDBRANCH  14  15
ENDBRANCH  13  14
ENDBRANCH   9  13
ENDBRANCH   2   4
BRANCH   1  17
ATOM     17  C   UNL     1       3.207   5.317  17.835  0.00  0.00    +0.000 C 
BRANCH  17  23
ATOM     18  C   UNL     1       5.113   6.561  15.359  0.00  0.00    +0.000 C 
ATOM     19  C   UNL     1       5.534   5.936  16.650  0.00  0.00    +0.000 A 
ATOM     20  C   UNL     1       6.871   5.434  16.856  0.00  0.00    +0.000 A 
ATOM     21  C   UNL     1       7.061   4.851  18.085  0.00  0.00    +0.000 A 
ATOM     22  S   UNL     1       5.670   5.014  19.056  0.00  0.00    +0.000 S 
ATOM     23  C   UNL     1       4.708   5.520  17.697  0.00  0.00    +0.000 A 
ENDBRANCH  17  23
ENDBRANCH   1  17
BRANCH   1  24
ATOM     24  C   UNL     1       2.441   5.520  20.297  0.00  0.00    +0.000 C 
BRANCH  24  25
ATOM     25  C   UNL     1       2.093   4.003  20.400  0.00  0.00    +0.000 C 
ATOM     26  C   UNL     1       2.232   3.451  21.812  0.00  0.00    +0.000 C 
ATOM     27  C   UNL     1       0.751   3.553  19.761  0.00  0.00    +0.000 C 
ENDBRANCH  24  25
ENDBRANCH   1  24
TORSDOF 8
ENDMDL
MODEL 8
REMARK VINA RESULT:      -6.5      2.162      3.139
REMARK  Name = 
REMARK  11 active torsions:
REMARK  status: ('A' for Active; 'I' for Inactive)
REMARK    1  A    between atoms: C_1  and  C_2
REMARK    2  A    between atoms: C_6  and  C_7
REMARK    3  A    between atoms: C_7  and  N_8
REMARK    4  A    between atoms: N_8  and  C_9
REMARK    5  A    between atoms: C_9  and  C_10
REMARK    6  A    between atoms: C_10  and  C_11
REMARK    7  A    between atoms: C_10  and  C_12
REMARK    8  A    between atoms: C_13  and  C_15
REMARK    9  A    between atoms: C_20  and  C_21
REMARK   10  A    between atoms: C_21  and  C_22
REMARK   11  A    between atoms: C_22  and  O_23
REMARK                            x       y       z     vdW  Elec       q    Type
REMARK                         _______ _______ _______ _____ _____    ______ ____
ROOT
ATOM      1  N   UNL     1       2.314   6.378  18.969  0.00  0.00    +0.000 N 
ATOM      2  C   UNL     1       2.118   7.787  18.759  0.00  0.00    +0.000 C 
ATOM      3  O   UNL     1       2.443   8.337  17.727  0.00  0.00    +0.000 OA
ENDROOT
BRANCH   2   4
ATOM      4  C   UNL     1       1.526   8.584  19.872  0.00  0.00    +0.000 A 
ATOM      5  C   UNL     1       1.348   8.186  21.235  0.00  0.00    +0.000 A 
ATOM      6  C   UNL     1       0.527   9.142  21.796  0.00  0.00    +0.000 A 
ATOM      7  N   UNL     1      -0.137   9.196  22.989  0.00  0.00    +0.000 NA
ATOM      8  C   UNL     1      -0.860  10.256  23.196  0.00  0.00    +0.000 A 
ATOM      9  C   UNL     1      -0.962  11.451  22.296  0.00  0.00    +0.000 A 
ATOM     10  C   UNL     1      -0.290  11.317  21.138  0.00  0.00    +0.000 A 
ATOM     11  N   UNL     1       0.429  10.157  20.852  0.00  0.00    +0.000 N 
ATOM     12  N   UNL     1       1.057   9.831  19.703  0.00  0.00    +0.000 NA
BRANCH   9  13
ATOM     13  C   UNL     1      -1.803  12.644  22.677  0.00  0.00    +0.000 C 
BRANCH  13  14
ATOM     14  C   UNL     1      -3.259  12.607  22.205  0.00  0.00    +0.000 C 
BRANCH  14  15
ATOM     15  O   UNL     1      -3.387  13.139  20.895  0.00  0.00    +0.000 OA
ATOM     16  H   UNL     1      -2.617  12.844  20.379  0.00  0.00    +0.000 HD
ENDBRANCH  14  15
ENDBRANCH  13  14
ENDBRANCH   9  13
ENDBRANCH   2   4
BRANCH   1  17
ATOM     17  C   UNL     1       2.890   5.654  17.808  0.00  0.00    +0.000 C 
BRANCH  17  23
ATOM     18  C   UNL     1       4.780   3.290  19.274  0.00  0.00    +0.000 C 
ATOM     19  C   UNL     1       5.209   4.510  18.525  0.00  0.00    +0.000 A 
ATOM     20  C   UNL     1       6.541   5.051  18.643  0.00  0.00    +0.000 A 
ATOM     21  C   UNL     1       6.740   6.201  17.918  0.00  0.00    +0.000 A 
ATOM     22  S   UNL     1       5.364   6.574  16.984  0.00  0.00    +0.000 S 
ATOM     23  C   UNL     1       4.392   5.416  17.845  0.00  0.00    +0.000 A 
ENDBRANCH  17  23
ENDBRANCH   1  17
BRANCH   1  24
ATOM     24  C   UNL     1       2.416   5.765  20.349  0.00  0.00    +0.000 C 
BRANCH  24  25
ATOM     25  C   UNL     1       1.517   4.520  20.627  0.00  0.00    +0.000 C 
ATOM     26  C   UNL     1       1.079   3.803  19.358  0.00  0.00    +0.000 C 
ATOM     27  C   UNL     1       2.041   3.508  21.681  0.00  0.00    +0.000 C 
ENDBRANCH  24  25
ENDBRANCH   1  24
TORSDOF 8
ENDMDL
MODEL 9
REMARK VINA RESULT:      -6.5      1.819      2.545
REMARK  Name = 
REMARK  11 active torsions:
REMARK  status: ('A' for Active; 'I' for Inactive)
REMARK    1  A    between atoms: C_1  and  C_2
REMARK    2  A    between atoms: C_6  and  C_7
REMARK    3  A    between atoms: C_7  and  N_8
REMARK    4  A    between atoms: N_8  and  C_9
REMARK    5  A    between atoms: C_9  and  C_10
REMARK    6  A    between atoms: C_10  and  C_11
REMARK    7  A    between atoms: C_10  and  C_12
REMARK    8  A    between atoms: C_13  and  C_15
REMARK    9  A    between atoms: C_20  and  C_21
REMARK   10  A    between atoms: C_21  and  C_22
REMARK   11  A    between atoms: C_22  and  O_23
REMARK                            x       y       z     vdW  Elec       q    Type
REMARK                         _______ _______ _______ _____ _____    ______ ____
ROOT
ATOM      1  N   UNL     1       2.905   5.443  18.758  0.00  0.00    +0.000 N 
ATOM      2  C   UNL     1       2.791   6.828  18.385  0.00  0.00    +0.000 C 
ATOM      3  O   UNL     1       3.247   7.255  17.345  0.00  0.00    +0.000 OA
ENDROOT
BRANCH   2   4
ATOM      4  C   UNL     1       2.118   7.756  19.339  0.00  0.00    +0.000 A 
ATOM      5  C   UNL     1       1.942   7.587  20.749  0.00  0.00    +0.000 A 
ATOM      6  C   UNL     1       1.040   8.557  21.129  0.00  0.00    +0.000 A 
ATOM      7  N   UNL     1       0.350   8.764  22.290  0.00  0.00    +0.000 NA
ATOM      8  C   UNL     1      -0.456   9.783  22.305  0.00  0.00    +0.000 A 
ATOM      9  C   UNL     1      -0.631  10.794  21.210  0.00  0.00    +0.000 A 
ATOM     10  C   UNL     1       0.073  10.515  20.098  0.00  0.00    +0.000 A 
ATOM     11  N   UNL     1       0.884   9.383  20.023  0.00  0.00    +0.000 N 
ATOM     12  N   UNL     1       1.558   8.914  18.952  0.00  0.00    +0.000 NA
BRANCH   9  13
ATOM     13  C   UNL     1      -1.567  11.964  21.372  0.00  0.00    +0.000 C 
BRANCH  13  14
ATOM     14  C   UNL     1      -2.250  12.085  22.738  0.00  0.00    +0.000 C 
BRANCH  14  15
ATOM     15  O   UNL     1      -3.658  12.207  22.599  0.00  0.00    +0.000 OA
ATOM     16  H   UNL     1      -3.832  12.944  21.987  0.00  0.00    +0.000 HD
ENDBRANCH  14  15
ENDBRANCH  13  14
ENDBRANCH   9  13
ENDBRANCH   2   4
BRANCH   1  17
ATOM     17  C   UNL     1       3.570   4.583  17.748  0.00  0.00    +0.000 C 
BRANCH  17  23
ATOM     18  C   UNL     1       5.376   4.771  14.917  0.00  0.00    +0.000 C 
ATOM     19  C   UNL     1       5.836   4.857  16.337  0.00  0.00    +0.000 A 
ATOM     20  C   UNL     1       7.217   4.663  16.706  0.00  0.00    +0.000 A 
ATOM     21  C   UNL     1       7.445   4.733  18.059  0.00  0.00    +0.000 A 
ATOM     22  S   UNL     1       6.021   5.158  18.892  0.00  0.00    +0.000 S 
ATOM     23  C   UNL     1       5.039   4.873  17.484  0.00  0.00    +0.000 A 
ENDBRANCH  17  23
ENDBRANCH   1  17
BRANCH   1  24
ATOM     24  C   UNL     1       2.832   4.977  20.196  0.00  0.00    +0.000 C 
BRANCH  24  25
ATOM     25  C   UNL     1       1.611   4.085  20.579  0.00  0.00    +0.000 C 
ATOM     26  C   UNL     1       0.893   3.501  19.370  0.00  0.00    +0.000 C 
ATOM     27  C   UNL     1       1.861   2.993  21.654  0.00  0.00    +0.000 C 
ENDBRANCH  24  25
ENDBRANCH   1  24
TORSDOF 8
ENDMDL
