MODEL 1
REMARK VINA RESULT:      -7.6      0.000      0.000
REMARK  Name = 
REMARK  3 active torsions:
REMARK  status: ('A' for Active; 'I' for Inactive)
REMARK    1  A    between atoms: C_4  and  C_5
REMARK    2  A    between atoms: C_15  and  C_16
REMARK    3  A    between atoms: C_16  and  N_17
REMARK                            x       y       z     vdW  Elec       q    Type
REMARK                         _______ _______ _______ _____ _____    ______ ____
ROOT
ATOM      1  O   UNL     1       7.186   4.366  18.663  0.00  0.00    +0.000 OA
ATOM      2  C   UNL     1       6.181   4.671  18.030  0.00  0.00    +0.000 C 
ATOM      3  C   UNL     1       6.290   5.077  16.597  0.00  0.00    +0.000 C 
ATOM      4  C   UNL     1       6.742   4.131  15.754  0.00  0.00    +0.000 C 
ATOM      5  C   UNL     1       5.852   6.475  16.270  0.00  0.00    +0.000 C 
ATOM      6  C   UNL     1       4.334   6.635  16.373  0.00  0.00    +0.000 C 
ATOM      7  C   UNL     1       3.803   6.918  17.784  0.00  0.00    +0.000 C 
ATOM      8  C   UNL     1       4.416   6.142  18.955  0.00  0.00    +0.000 C 
ATOM      9  C   UNL     1       4.774   4.689  18.619  0.00  0.00    +0.000 C 
ENDROOT
BRANCH   4  10
ATOM     10  C   UNL     1       6.869   4.307  14.306  0.00  0.00    +0.000 A 
ATOM     11  C   UNL     1       7.758   5.256  13.794  0.00  0.00    +0.000 A 
ATOM     12  C   UNL     1       7.898   5.414  12.412  0.00  0.00    +0.000 A 
ATOM     13  C   UNL     1       7.148   4.628  11.540  0.00  0.00    +0.000 A 
ATOM     14  C   UNL     1       6.254   3.685  12.044  0.00  0.00    +0.000 A 
ATOM     15  C   UNL     1       6.112   3.524  13.426  0.00  0.00    +0.000 A 
ENDBRANCH   4  10
BRANCH   9  16
ATOM     16  C   UNL     1       4.703   3.748  19.839  0.00  0.00    +0.000 C 
BRANCH  16  17
ATOM     17  N   UNL     1       3.416   3.021  19.999  0.00  0.00    +0.000 NA
ATOM     18  C   UNL     1       2.505   3.696  20.940  0.00  0.00    +0.000 C 
ATOM     19  C   UNL     1       1.162   2.973  21.070  0.00  0.00    +0.000 C 
ATOM     20  C   UNL     1       0.492   2.812  19.713  0.00  0.00    +0.000 C 
ATOM     21  C   UNL     1       1.447   2.116  18.754  0.00  0.00    +0.000 C 
ATOM     22  C   UNL     1       2.784   2.856  18.676  0.00  0.00    +0.000 C 
ENDBRANCH  16  17
ENDBRANCH   9  16
TORSDOF 3
ENDMDL
MODEL 2
REMARK VINA RESULT:      -7.6      2.706      7.156
REMARK  Name = 
REMARK  3 active torsions:
REMARK  status: ('A' for Active; 'I' for Inactive)
REMARK    1  A    between atoms: C_4  and  C_5
REMARK    2  A    between atoms: C_15  and  C_16
REMARK    3  A    between atoms: C_16  and  N_17
REMARK                            x       y       z     vdW  Elec       q    Type
REMARK                         _______ _______ _______ _____ _____    ______ ____
ROOT
ATOM      1  O   UNL     1       5.672   5.674  18.764  0.00  0.00    +0.000 OA
ATOM      2  C   UNL     1       4.657   5.475  18.105  0.00  0.00    +0.000 C 
ATOM      3  C   UNL     1       3.367   6.119  18.497  0.00  0.00    +0.000 C 
ATOM      4  C   UNL     1       3.345   7.463  18.444  0.00  0.00    +0.000 C 
ATOM      5  C   UNL     1       2.250   5.189  18.871  0.00  0.00    +0.000 C 
ATOM      6  C   UNL     1       1.699   4.444  17.654  0.00  0.00    +0.000 C 
ATOM      7  C   UNL     1       2.472   3.178  17.260  0.00  0.00    +0.000 C 
ATOM      8  C   UNL     1       4.004   3.224  17.307  0.00  0.00    +0.000 C 
ATOM      9  C   UNL     1       4.599   4.570  16.879  0.00  0.00    +0.000 C 
ENDROOT
BRANCH   4  10
ATOM     10  C   UNL     1       2.167   8.282  18.734  0.00  0.00    +0.000 A 
ATOM     11  C   UNL     1       1.702   8.396  20.048  0.00  0.00    +0.000 A 
ATOM     12  C   UNL     1       0.590   9.193  20.332  0.00  0.00    +0.000 A 
ATOM     13  C   UNL     1      -0.063   9.873  19.307  0.00  0.00    +0.000 A 
ATOM     14  C   UNL     1       0.390   9.757  17.994  0.00  0.00    +0.000 A 
ATOM     15  C   UNL     1       1.503   8.961  17.705  0.00  0.00    +0.000 A 
ENDBRANCH   4  10
BRANCH   9  16
ATOM     16  C   UNL     1       6.003   4.442  16.253  0.00  0.00    +0.000 C 
BRANCH  16  17
ATOM     17  N   UNL     1       6.058   4.646  14.782  0.00  0.00    +0.000 NA
ATOM     18  C   UNL     1       7.414   4.978  14.312  0.00  0.00    +0.000 C 
ATOM     19  C   UNL     1       7.479   5.143  12.791  0.00  0.00    +0.000 C 
ATOM     20  C   UNL     1       6.967   3.898  12.082  0.00  0.00    +0.000 C 
ATOM     21  C   UNL     1       5.567   3.569  12.580  0.00  0.00    +0.000 C 
ATOM     22  C   UNL     1       5.543   3.440  14.104  0.00  0.00    +0.000 C 
ENDBRANCH  16  17
ENDBRANCH   9  16
TORSDOF 3
ENDMDL
MODEL 3
REMARK VINA RESULT:      -7.6      0.075      1.033
REMARK  Name = 
REMARK  3 active torsions:
REMARK  status: ('A' for Active; 'I' for Inactive)
REMARK    1  A    between atoms: C_4  and  C_5
REMARK    2  A    between atoms: C_15  and  C_16
REMARK    3  A    between atoms: C_16  and  N_17
REMARK                            x       y       z     vdW  Elec       q    Type
REMARK                         _______ _______ _______ _____ _____    ______ ____
ROOT
ATOM      1  O   UNL     1       7.195   4.387  18.685  0.00  0.00    +0.000 OA
ATOM      2  C   UNL     1       6.195   4.683  18.041  0.00  0.00    +0.000 C 
ATOM      3  C   UNL     1       6.316   5.092  16.610  0.00  0.00    +0.000 C 
ATOM      4  C   UNL     1       6.787   4.152  15.771  0.00  0.00    +0.000 C 
ATOM      5  C   UNL     1       5.868   6.487  16.280  0.00  0.00    +0.000 C 
ATOM      6  C   UNL     1       4.347   6.631  16.365  0.00  0.00    +0.000 C 
ATOM      7  C   UNL     1       3.797   6.907  17.771  0.00  0.00    +0.000 C 
ATOM      8  C   UNL     1       4.405   6.134  18.948  0.00  0.00    +0.000 C 
ATOM      9  C   UNL     1       4.781   4.686  18.614  0.00  0.00    +0.000 C 
ENDROOT
BRANCH   4  10
ATOM     10  C   UNL     1       6.929   4.331  14.325  0.00  0.00    +0.000 A 
ATOM     11  C   UNL     1       6.190   3.533  13.447  0.00  0.00    +0.000 A 
ATOM     12  C   UNL     1       6.307   3.714  12.066  0.00  0.00    +0.000 A 
ATOM     13  C   UNL     1       7.165   4.688  11.559  0.00  0.00    +0.000 A 
ATOM     14  C   UNL     1       7.911   5.481  12.428  0.00  0.00    +0.000 A 
ATOM     15  C   UNL     1       7.796   5.304  13.811  0.00  0.00    +0.000 A 
ENDBRANCH   4  10
BRANCH   9  16
ATOM     16  C   UNL     1       4.705   3.742  19.832  0.00  0.00    +0.000 C 
BRANCH  16  17
ATOM     17  N   UNL     1       3.410   3.030  19.996  0.00  0.00    +0.000 NA
ATOM     18  C   UNL     1       2.459   3.784  20.831  0.00  0.00    +0.000 C 
ATOM     19  C   UNL     1       1.110   3.071  20.963  0.00  0.00    +0.000 C 
ATOM     20  C   UNL     1       0.503   2.790  19.596  0.00  0.00    +0.000 C 
ATOM     21  C   UNL     1       1.499   2.014  18.747  0.00  0.00    +0.000 C 
ATOM     22  C   UNL     1       2.839   2.747  18.665  0.00  0.00    +0.000 C 
ENDBRANCH  16  17
ENDBRANCH   9  16
TORSDOF 3
ENDMDL
MODEL 4
REMARK VINA RESULT:      -7.6      2.702      7.148
REMARK  Name = 
REMARK  3 active torsions:
REMARK  status: ('A' for Active; 'I' for Inactive)
REMARK    1  A    between atoms: C_4  and  C_5
REMARK    2  A    between atoms: C_15  and  C_16
REMARK    3  A    between atoms: C_16  and  N_17
REMARK                            x       y       z     vdW  Elec       q    Type
REMARK                         _______ _______ _______ _____ _____    ______ ____
ROOT
ATOM      1  O   UNL     1       5.606   5.571  18.842  0.00  0.00    +0.000 OA
ATOM      2  C   UNL     1       4.594   5.406  18.171  0.00  0.00    +0.000 C 
ATOM      3  C   UNL     1       3.318   6.083  18.553  0.00  0.00    +0.000 C 
ATOM      4  C   UNL     1       3.334   7.427  18.510  0.00  0.00    +0.000 C 
ATOM      5  C   UNL     1       2.171   5.181  18.907  0.00  0.00    +0.000 C 
ATOM      6  C   UNL     1       1.614   4.461  17.678  0.00  0.00    +0.000 C 
ATOM      7  C   UNL     1       2.355   3.177  17.283  0.00  0.00    +0.000 C 
ATOM      8  C   UNL     1       3.888   3.180  17.347  0.00  0.00    +0.000 C 
ATOM      9  C   UNL     1       4.525   4.512  16.936  0.00  0.00    +0.000 C 
ENDROOT
BRANCH   4  10
ATOM     10  C   UNL     1       2.175   8.276  18.793  0.00  0.00    +0.000 A 
ATOM     11  C   UNL     1       1.547   8.968  17.754  0.00  0.00    +0.000 A 
ATOM     12  C   UNL     1       0.428   9.764  18.016  0.00  0.00    +0.000 A 
ATOM     13  C   UNL     1      -0.062   9.875  19.315  0.00  0.00    +0.000 A 
ATOM     14  C   UNL     1       0.565   9.195  20.357  0.00  0.00    +0.000 A 
ATOM     15  C   UNL     1       1.684   8.397  20.099  0.00  0.00    +0.000 A 
ENDBRANCH   4  10
BRANCH   9  16
ATOM     16  C   UNL     1       5.932   4.350  16.326  0.00  0.00    +0.000 C 
BRANCH  16  17
ATOM     17  N   UNL     1       6.020   4.621  14.867  0.00  0.00    +0.000 NA
ATOM     18  C   UNL     1       7.393   4.946  14.440  0.00  0.00    +0.000 C 
ATOM     19  C   UNL     1       7.491   5.179  12.930  0.00  0.00    +0.000 C 
ATOM     20  C   UNL     1       6.969   3.980  12.153  0.00  0.00    +0.000 C 
ATOM     21  C   UNL     1       5.553   3.657  12.609  0.00  0.00    +0.000 C 
ATOM     22  C   UNL     1       5.495   3.458  14.124  0.00  0.00    +0.000 C 
ENDBRANCH  16  17
ENDBRANCH   9  16
TORSDOF 3
ENDMDL
MODEL 5
REMARK VINA RESULT:      -7.4      2.313      3.449
REMARK  Name = 
REMARK  3 active torsions:
REMARK  status: ('A' for Active; 'I' for Inactive)
REMARK    1  A    between atoms: C_4  and  C_5
REMARK    2  A    between atoms: C_15  and  C_16
REMARK    3  A    between atoms: C_16  and  N_17
REMARK                            x       y       z     vdW  Elec       q    Type
REMARK                         _______ _______ _______ _____ _____    ______ ____
ROOT
ATOM      1  O   UNL     1       3.812   3.308  17.728  0.00  0.00    +0.000 OA
ATOM      2  C   UNL     1       4.584   4.248  17.575  0.00  0.00    +0.000 C 
ATOM      3  C   UNL     1       5.595   4.221  16.477  0.00  0.00    +0.000 C 
ATOM      4  C   UNL     1       5.100   4.203  15.227  0.00  0.00    +0.000 C 
ATOM      5  C   UNL     1       7.035   4.248  16.902  0.00  0.00    +0.000 C 
ATOM      6  C   UNL     1       7.436   5.614  17.462  0.00  0.00    +0.000 C 
ATOM      7  C   UNL     1       7.111   5.830  18.946  0.00  0.00    +0.000 C 
ATOM      8  C   UNL     1       5.760   5.329  19.469  0.00  0.00    +0.000 C 
ATOM      9  C   UNL     1       4.609   5.485  18.469  0.00  0.00    +0.000 C 
ENDROOT
BRANCH   4  10
ATOM     10  C   UNL     1       5.918   4.231  14.013  0.00  0.00    +0.000 A 
ATOM     11  C   UNL     1       7.004   5.106  13.924  0.00  0.00    +0.000 A 
ATOM     12  C   UNL     1       7.801   5.122  12.775  0.00  0.00    +0.000 A 
ATOM     13  C   UNL     1       7.511   4.269  11.713  0.00  0.00    +0.000 A 
ATOM     14  C   UNL     1       6.424   3.400  11.791  0.00  0.00    +0.000 A 
ATOM     15  C   UNL     1       5.626   3.381  12.939  0.00  0.00    +0.000 A 
ENDBRANCH   4  10
BRANCH   9  16
ATOM     16  C   UNL     1       3.235   5.672  19.146  0.00  0.00    +0.000 C 
BRANCH  16  17
ATOM     17  N   UNL     1       2.820   7.084  19.349  0.00  0.00    +0.000 NA
ATOM     18  C   UNL     1       2.342   7.712  18.105  0.00  0.00    +0.000 C 
ATOM     19  C   UNL     1       1.872   9.152  18.323  0.00  0.00    +0.000 C 
ATOM     20  C   UNL     1       0.794   9.221  19.395  0.00  0.00    +0.000 C 
ATOM     21  C   UNL     1       1.303   8.566  20.671  0.00  0.00    +0.000 C 
ATOM     22  C   UNL     1       1.788   7.141  20.402  0.00  0.00    +0.000 C 
ENDBRANCH  16  17
ENDBRANCH   9  16
TORSDOF 3
ENDMDL
MODEL 6
REMARK VINA RESULT:      -7.4      2.172      3.245
REMARK  Name = 
REMARK  3 active torsions:
REMARK  status: ('A' for Active; 'I' for Inactive)
REMARK    1  A    between atoms: C_4  and  C_5
REMARK    2  A    between atoms: C_15  and  C_16
REMARK    3  A    between atoms: C_16  and  N_17
REMARK                            x       y       z     vdW  Elec       q    Type
REMARK                         _______ _______ _______ _____ _____    ______ ____
ROOT
ATOM      1  O   UNL     1       4.156   3.086  17.930  0.00  0.00    +0.000 OA
ATOM      2  C   UNL     1       4.806   4.107  17.735  0.00  0.00    +0.000 C 
ATOM      3  C   UNL     1       5.761   4.185  16.590  0.00  0.00    +0.000 C 
ATOM      4  C   UNL     1       5.214   4.096  15.365  0.00  0.00    +0.000 C 
ATOM      5  C   UNL     1       7.206   4.385  16.946  0.00  0.00    +0.000 C 
ATOM      6  C   UNL     1       7.471   5.795  17.478  0.00  0.00    +0.000 C 
ATOM      7  C   UNL     1       7.191   5.989  18.974  0.00  0.00    +0.000 C 
ATOM      8  C   UNL     1       5.933   5.339  19.564  0.00  0.00    +0.000 C 
ATOM      9  C   UNL     1       4.727   5.349  18.618  0.00  0.00    +0.000 C 
ENDROOT
BRANCH   4  10
ATOM     10  C   UNL     1       5.966   4.204  14.113  0.00  0.00    +0.000 A 
ATOM     11  C   UNL     1       7.026   5.110  14.013  0.00  0.00    +0.000 A 
ATOM     12  C   UNL     1       7.760   5.203  12.827  0.00  0.00    +0.000 A 
ATOM     13  C   UNL     1       7.434   4.396  11.739  0.00  0.00    +0.000 A 
ATOM     14  C   UNL     1       6.373   3.497  11.829  0.00  0.00    +0.000 A 
ATOM     15  C   UNL     1       5.637   3.401  13.014  0.00  0.00    +0.000 A 
ENDBRANCH   4  10
BRANCH   9  16
ATOM     16  C   UNL     1       3.374   5.383  19.359  0.00  0.00    +0.000 C 
BRANCH  16  17
ATOM     17  N   UNL     1       2.489   6.523  19.003  0.00  0.00    +0.000 NA
ATOM     18  C   UNL     1       2.125   7.337  20.175  0.00  0.00    +0.000 C 
ATOM     19  C   UNL     1       1.251   8.537  19.801  0.00  0.00    +0.000 C 
ATOM     20  C   UNL     1       1.930   9.403  18.750  0.00  0.00    +0.000 C 
ATOM     21  C   UNL     1       2.301   8.547  17.548  0.00  0.00    +0.000 C 
ATOM     22  C   UNL     1       3.149   7.345  17.970  0.00  0.00    +0.000 C 
ENDBRANCH  16  17
ENDBRANCH   9  16
TORSDOF 3
ENDMDL
MODEL 7
REMARK VINA RESULT:      -7.4      2.163      3.384
REMARK  Name = 
REMARK  3 active torsions:
REMARK  status: ('A' for Active; 'I' for Inactive)
REMARK    1  A    between atoms: C_4  and  C_5
REMARK    2  A    between atoms: C_15  and  C_16
REMARK    3  A    between atoms: C_16  and  N_17
REMARK                            x       y       z     vdW  Elec       q    Type
REMARK                         _______ _______ _______ _____ _____    ______ ____
ROOT
ATOM      1  O   UNL     1       4.195   3.060  17.924  0.00  0.00    +0.000 OA
ATOM      2  C   UNL     1       4.833   4.088  17.725  0.00  0.00    +0.000 C 
ATOM      3  C   UNL     1       5.789   4.172  16.580  0.00  0.00    +0.000 C 
ATOM      4  C   UNL     1       5.244   4.069  15.355  0.00  0.00    +0.000 C 
ATOM      5  C   UNL     1       7.230   4.391  16.937  0.00  0.00    +0.000 C 
ATOM      6  C   UNL     1       7.477   5.806  17.462  0.00  0.00    +0.000 C 
ATOM      7  C   UNL     1       7.194   6.005  18.957  0.00  0.00    +0.000 C 
ATOM      8  C   UNL     1       5.943   5.343  19.548  0.00  0.00    +0.000 C 
ATOM      9  C   UNL     1       4.738   5.334  18.601  0.00  0.00    +0.000 C 
ENDROOT
BRANCH   4  10
ATOM     10  C   UNL     1       5.996   4.180  14.104  0.00  0.00    +0.000 A 
ATOM     11  C   UNL     1       5.648   3.386  13.007  0.00  0.00    +0.000 A 
ATOM     12  C   UNL     1       6.351   3.504  11.805  0.00  0.00    +0.000 A 
ATOM     13  C   UNL     1       7.404   4.409  11.696  0.00  0.00    +0.000 A 
ATOM     14  C   UNL     1       7.762   5.197  12.788  0.00  0.00    +0.000 A 
ATOM     15  C   UNL     1       7.061   5.083  13.993  0.00  0.00    +0.000 A 
ENDBRANCH   4  10
BRANCH   9  16
ATOM     16  C   UNL     1       3.384   5.355  19.340  0.00  0.00    +0.000 C 
BRANCH  16  17
ATOM     17  N   UNL     1       2.496   6.496  18.995  0.00  0.00    +0.000 NA
ATOM     18  C   UNL     1       2.133   7.300  20.176  0.00  0.00    +0.000 C 
ATOM     19  C   UNL     1       1.257   8.502  19.813  0.00  0.00    +0.000 C 
ATOM     20  C   UNL     1       1.931   9.377  18.768  0.00  0.00    +0.000 C 
ATOM     21  C   UNL     1       2.301   8.532  17.558  0.00  0.00    +0.000 C 
ATOM     22  C   UNL     1       3.152   7.328  17.968  0.00  0.00    +0.000 C 
ENDBRANCH  16  17
ENDBRANCH   9  16
TORSDOF 3
ENDMDL
MODEL 8
REMARK VINA RESULT:      -7.3      2.370      3.804
REMARK  Name = 
REMARK  3 active torsions:
REMARK  status: ('A' for Active; 'I' for Inactive)
REMARK    1  A    between atoms: C_4  and  C_5
REMARK    2  A    between atoms: C_15  and  C_16
REMARK    3  A    between atoms: C_16  and  N_17
REMARK                            x       y       z     vdW  Elec       q    Type
REMARK                         _______ _______ _______ _____ _____    ______ ____
ROOT
ATOM      1  O   UNL     1       3.378   3.567  17.589  0.00  0.00    +0.000 OA
ATOM      2  C   UNL     1       4.262   4.414  17.522  0.00  0.00    +0.000 C 
ATOM      3  C   UNL     1       5.341   4.296  16.496  0.00  0.00    +0.000 C 
ATOM      4  C   UNL     1       4.939   4.367  15.215  0.00  0.00    +0.000 C 
ATOM      5  C   UNL     1       6.739   4.144  17.021  0.00  0.00    +0.000 C 
ATOM      6  C   UNL     1       7.253   5.439  17.653  0.00  0.00    +0.000 C 
ATOM      7  C   UNL     1       6.847   5.655  19.117  0.00  0.00    +0.000 C 
ATOM      8  C   UNL     1       5.413   5.302  19.527  0.00  0.00    +0.000 C 
ATOM      9  C   UNL     1       4.363   5.617  18.455  0.00  0.00    +0.000 C 
ENDROOT
BRANCH   4  10
ATOM     10  C   UNL     1       5.842   4.330  14.062  0.00  0.00    +0.000 A 
ATOM     11  C   UNL     1       5.583   3.456  13.002  0.00  0.00    +0.000 A 
ATOM     12  C   UNL     1       6.431   3.431  11.890  0.00  0.00    +0.000 A 
ATOM     13  C   UNL     1       7.538   4.273  11.837  0.00  0.00    +0.000 A 
ATOM     14  C   UNL     1       7.807   5.141  12.895  0.00  0.00    +0.000 A 
ATOM     15  C   UNL     1       6.961   5.169  14.008  0.00  0.00    +0.000 A 
ENDBRANCH   4  10
BRANCH   9  16
ATOM     16  C   UNL     1       2.975   5.946  19.041  0.00  0.00    +0.000 C 
BRANCH  16  17
ATOM     17  N   UNL     1       2.669   7.396  19.160  0.00  0.00    +0.000 NA
ATOM     18  C   UNL     1       2.219   7.979  17.884  0.00  0.00    +0.000 C 
ATOM     19  C   UNL     1       1.860   9.462  18.018  0.00  0.00    +0.000 C 
ATOM     20  C   UNL     1       0.808   9.677  19.095  0.00  0.00    +0.000 C 
ATOM     21  C   UNL     1       1.288   9.066  20.404  0.00  0.00    +0.000 C 
ATOM     22  C   UNL     1       1.661   7.594  20.219  0.00  0.00    +0.000 C 
ENDBRANCH  16  17
ENDBRANCH   9  16
TORSDOF 3
ENDMDL
MODEL 9
REMARK VINA RESULT:      -7.2      2.756      7.025
REMARK  Name = 
REMARK  3 active torsions:
REMARK  status: ('A' for Active; 'I' for Inactive)
REMARK    1  A    between atoms: C_4  and  C_5
REMARK    2  A    between atoms: C_15  and  C_16
REMARK    3  A    between atoms: C_16  and  N_17
REMARK                            x       y       z     vdW  Elec       q    Type
REMARK                         _______ _______ _______ _____ _____    ______ ____
ROOT
ATOM      1  O   UNL     1       5.081   5.476  19.760  0.00  0.00    +0.000 OA
ATOM      2  C   UNL     1       3.938   5.162  19.446  0.00  0.00    +0.000 C 
ATOM      3  C   UNL     1       2.793   6.063  19.773  0.00  0.00    +0.000 C 
ATOM      4  C   UNL     1       2.808   7.268  19.177  0.00  0.00    +0.000 C 
ATOM      5  C   UNL     1       1.753   5.502  20.700  0.00  0.00    +0.000 C 
ATOM      6  C   UNL     1       0.918   4.412  20.025  0.00  0.00    +0.000 C 
ATOM      7  C   UNL     1       1.537   3.008  20.050  0.00  0.00    +0.000 C 
ATOM      8  C   UNL     1       3.041   2.878  19.784  0.00  0.00    +0.000 C 
ATOM      9  C   UNL     1       3.575   3.861  18.736  0.00  0.00    +0.000 C 
ENDROOT
BRANCH   4  10
ATOM     10  C   UNL     1       1.755   8.275  19.320  0.00  0.00    +0.000 A 
ATOM     11  C   UNL     1       1.304   8.977  18.199  0.00  0.00    +0.000 A 
ATOM     12  C   UNL     1       0.284   9.925  18.327  0.00  0.00    +0.000 A 
ATOM     13  C   UNL     1      -0.283  10.176  19.574  0.00  0.00    +0.000 A 
ATOM     14  C   UNL     1       0.167   9.485  20.698  0.00  0.00    +0.000 A 
ATOM     15  C   UNL     1       1.186   8.536  20.573  0.00  0.00    +0.000 A 
ENDBRANCH   4  10
BRANCH   9  16
ATOM     16  C   UNL     1       4.799   3.323  17.966  0.00  0.00    +0.000 C 
BRANCH  16  17
ATOM     17  N   UNL     1       5.312   4.218  16.895  0.00  0.00    +0.000 NA
ATOM     18  C   UNL     1       6.754   4.488  17.034  0.00  0.00    +0.000 C 
ATOM     19  C   UNL     1       7.291   5.372  15.905  0.00  0.00    +0.000 C 
ATOM     20  C   UNL     1       6.998   4.760  14.542  0.00  0.00    +0.000 C 
ATOM     21  C   UNL     1       5.507   4.486  14.418  0.00  0.00    +0.000 C 
ATOM     22  C   UNL     1       5.008   3.624  15.579  0.00  0.00    +0.000 C 
ENDBRANCH  16  17
ENDBRANCH   9  16
TORSDOF 3
ENDMDL
