MODEL 1
REMARK VINA RESULT:      -7.1      0.000      0.000
REMARK  Name = 
REMARK  11 active torsions:
REMARK  status: ('A' for Active; 'I' for Inactive)
REMARK    1  A    between atoms: C_1  and  C_2
REMARK    2  A    between atoms: C_2  and  C_3
REMARK    3  A    between atoms: C_2  and  C_4
REMARK    4  A    between atoms: C_2  and  O_5
REMARK    5  A    between atoms: O_5  and  C_6
REMARK    6  A    between atoms: N_8  and  C_9
REMARK    7  A    between atoms: C_9  and  C_10
REMARK    8  A    between atoms: C_10  and  C_11
REMARK    9  A    between atoms: C_11  and  N_12
REMARK   10  A    between atoms: C_14  and  C_15
REMARK   11  A    between atoms: C_16  and  C_17
REMARK                            x       y       z     vdW  Elec       q    Type
REMARK                         _______ _______ _______ _____ _____    ______ ____
ROOT
ATOM      1  N   UNL     1       9.559  12.296  18.867  0.00  0.00    +0.000 N 
ATOM      2  C   UNL     1      10.923  12.226  19.249  0.00  0.00    +0.000 A 
ATOM      3  C   UNL     1      11.178  13.565  19.469  0.00  0.00    +0.000 A 
ATOM      4  C   UNL     1      10.173  13.676  20.461  0.00  0.00    +0.000 A 
ATOM      5  C   UNL     1      10.077  14.206  21.747  0.00  0.00    +0.000 A 
ATOM      6  C   UNL     1       8.822  14.608  22.172  0.00  0.00    +0.000 A 
ATOM      7  C   UNL     1       7.765  14.629  21.255  0.00  0.00    +0.000 A 
ATOM      8  C   UNL     1       7.819  13.929  20.020  0.00  0.00    +0.000 A 
ATOM      9  C   UNL     1       9.020  13.265  19.738  0.00  0.00    +0.000 A 
ENDROOT
BRANCH   3  10
ATOM     10  C   UNL     1      11.252  14.564  18.412  0.00  0.00    +0.000 C 
ATOM     11  C   UNL     1      11.132  15.891  18.515  0.00  0.00    +0.000 C 
ATOM     12  C   UNL     1      11.080  16.466  17.152  0.00  0.00    +0.000 C 
ATOM     13  O   UNL     1      11.011  17.649  16.844  0.00  0.00    +0.000 OA
ATOM     14  N   UNL     1      11.108  15.442  16.285  0.00  0.00    +0.000 N 
ATOM     15  C   UNL     1      11.256  14.279  16.943  0.00  0.00    +0.000 C 
ATOM     16  O   UNL     1      11.375  13.206  16.381  0.00  0.00    +0.000 OA
ATOM     17  H   UNL     1      11.092  15.535  15.285  0.00  0.00    +0.000 HD
BRANCH  11  18
ATOM     18  C   UNL     1      11.174  16.749  19.637  0.00  0.00    +0.000 A 
ATOM     19  C   UNL     1      12.210  16.892  20.526  0.00  0.00    +0.000 A 
ATOM     20  N   UNL     1      11.723  17.611  21.589  0.00  0.00    +0.000 N 
ATOM     21  C   UNL     1      10.381  17.903  21.399  0.00  0.00    +0.000 A 
ATOM     22  C   UNL     1       9.447  18.498  22.254  0.00  0.00    +0.000 A 
ATOM     23  C   UNL     1       8.135  18.625  21.783  0.00  0.00    +0.000 A 
ATOM     24  C   UNL     1       7.775  18.209  20.503  0.00  0.00    +0.000 A 
ATOM     25  C   UNL     1       8.724  17.617  19.665  0.00  0.00    +0.000 A 
ATOM     26  C   UNL     1      10.043  17.439  20.135  0.00  0.00    +0.000 A 
ATOM     27  H   UNL     1      12.235  17.810  22.445  0.00  0.00    +0.000 HD
ENDBRANCH  11  18
ENDBRANCH   3  10
BRANCH   1  28
ATOM     28  C   UNL     1       9.025  11.248  18.000  0.00  0.00    +0.000 C 
BRANCH  28  29
ATOM     29  C   UNL     1       8.650   9.874  18.695  0.00  0.00    +0.000 C 
BRANCH  29  30
ATOM     30  C   UNL     1       8.394   8.570  17.894  0.00  0.00    +0.000 C 
BRANCH  30  33
ATOM     31  C   UNL     1       6.693   7.041  17.014  0.00  0.00    +0.000 C 
ATOM     32  O   UNL     1       7.513   6.363  16.410  0.00  0.00    +0.000 OA
ATOM     33  N   UNL     1       7.011   8.202  17.668  0.00  0.00    +0.000 N 
ATOM     34  H   UNL     1       6.296   8.542  18.293  0.00  0.00    +0.000 HD
BRANCH  31  35
ATOM     35  O   UNL     1       5.366   6.762  17.133  0.00  0.00    +0.000 OA
BRANCH  35  37
ATOM     36  C   UNL     1       3.758   5.883  18.829  0.00  0.00    +0.000 C 
ATOM     37  C   UNL     1       4.963   5.592  17.921  0.00  0.00    +0.000 C 
ATOM     38  C   UNL     1       6.143   5.034  18.696  0.00  0.00    +0.000 C 
ATOM     39  C   UNL     1       4.510   4.534  16.891  0.00  0.00    +0.000 C 
ENDBRANCH  35  37
ENDBRANCH  31  35
ENDBRANCH  30  33
ENDBRANCH  29  30
ENDBRANCH  28  29
ENDBRANCH   1  28
TORSDOF 8
ENDMDL
MODEL 2
REMARK VINA RESULT:      -7.1      8.241     10.252
REMARK  Name = 
REMARK  11 active torsions:
REMARK  status: ('A' for Active; 'I' for Inactive)
REMARK    1  A    between atoms: C_1  and  C_2
REMARK    2  A    between atoms: C_2  and  C_3
REMARK    3  A    between atoms: C_2  and  C_4
REMARK    4  A    between atoms: C_2  and  O_5
REMARK    5  A    between atoms: O_5  and  C_6
REMARK    6  A    between atoms: N_8  and  C_9
REMARK    7  A    between atoms: C_9  and  C_10
REMARK    8  A    between atoms: C_10  and  C_11
REMARK    9  A    between atoms: C_11  and  N_12
REMARK   10  A    between atoms: C_14  and  C_15
REMARK   11  A    between atoms: C_16  and  C_17
REMARK                            x       y       z     vdW  Elec       q    Type
REMARK                         _______ _______ _______ _____ _____    ______ ____
ROOT
ATOM      1  N   UNL     1       1.470  10.314  18.511  0.00  0.00    +0.000 N 
ATOM      2  C   UNL     1       0.193   9.830  18.128  0.00  0.00    +0.000 A 
ATOM      3  C   UNL     1      -0.607  10.578  18.968  0.00  0.00    +0.000 A 
ATOM      4  C   UNL     1      -0.137  11.810  18.452  0.00  0.00    +0.000 A 
ATOM      5  C   UNL     1      -0.707  13.000  18.002  0.00  0.00    +0.000 A 
ATOM      6  C   UNL     1       0.068  14.145  18.092  0.00  0.00    +0.000 A 
ATOM      7  C   UNL     1       1.288  14.091  18.775  0.00  0.00    +0.000 A 
ATOM      8  C   UNL     1       1.940  12.863  19.067  0.00  0.00    +0.000 A 
ATOM      9  C   UNL     1       1.260  11.698  18.689  0.00  0.00    +0.000 A 
ENDROOT
BRANCH   3  10
ATOM     10  C   UNL     1      -0.676  10.387  20.411  0.00  0.00    +0.000 C 
ATOM     11  C   UNL     1      -1.078  11.255  21.344  0.00  0.00    +0.000 C 
ATOM     12  C   UNL     1      -0.783  10.683  22.677  0.00  0.00    +0.000 C 
ATOM     13  O   UNL     1      -1.043  11.169  23.770  0.00  0.00    +0.000 OA
ATOM     14  N   UNL     1      -0.153   9.515  22.479  0.00  0.00    +0.000 N 
ATOM     15  C   UNL     1      -0.087   9.238  21.167  0.00  0.00    +0.000 C 
ATOM     16  O   UNL     1       0.380   8.203  20.726  0.00  0.00    +0.000 OA
ATOM     17  H   UNL     1       0.162   8.901  23.210  0.00  0.00    +0.000 HD
BRANCH  11  18
ATOM     18  C   UNL     1      -1.796  12.469  21.245  0.00  0.00    +0.000 A 
ATOM     19  C   UNL     1      -3.032  12.650  20.676  0.00  0.00    +0.000 A 
ATOM     20  N   UNL     1      -3.218  14.005  20.558  0.00  0.00    +0.000 N 
ATOM     21  C   UNL     1      -2.102  14.687  21.018  0.00  0.00    +0.000 A 
ATOM     22  C   UNL     1      -1.786  16.050  20.983  0.00  0.00    +0.000 A 
ATOM     23  C   UNL     1      -0.544  16.434  21.502  0.00  0.00    +0.000 A 
ATOM     24  C   UNL     1       0.332  15.508  22.064  0.00  0.00    +0.000 A 
ATOM     25  C   UNL     1      -0.003  14.151  22.089  0.00  0.00    +0.000 A 
ATOM     26  C   UNL     1      -1.231  13.735  21.532  0.00  0.00    +0.000 A 
ATOM     27  H   UNL     1      -4.009  14.449  20.100  0.00  0.00    +0.000 HD
ENDBRANCH  11  18
ENDBRANCH   3  10
BRANCH   1  28
ATOM     28  C   UNL     1       2.628   9.441  18.332  0.00  0.00    +0.000 C 
BRANCH  28  29
ATOM     29  C   UNL     1       2.330   7.945  17.902  0.00  0.00    +0.000 C 
BRANCH  29  30
ATOM     30  C   UNL     1       3.441   6.869  17.780  0.00  0.00    +0.000 C 
BRANCH  30  33
ATOM     31  C   UNL     1       3.810   4.750  18.954  0.00  0.00    +0.000 C 
ATOM     32  O   UNL     1       4.917   5.083  19.354  0.00  0.00    +0.000 OA
ATOM     33  N   UNL     1       3.065   5.504  18.086  0.00  0.00    +0.000 N 
ATOM     34  H   UNL     1       2.099   5.222  18.006  0.00  0.00    +0.000 HD
BRANCH  31  35
ATOM     35  O   UNL     1       3.154   3.608  19.296  0.00  0.00    +0.000 OA
BRANCH  35  37
ATOM     36  C   UNL     1       0.745   3.146  19.764  0.00  0.00    +0.000 C 
ATOM     37  C   UNL     1       2.082   3.687  20.295  0.00  0.00    +0.000 C 
ATOM     38  C   UNL     1       1.954   5.100  20.835  0.00  0.00    +0.000 C 
ATOM     39  C   UNL     1       2.521   2.760  21.449  0.00  0.00    +0.000 C 
ENDBRANCH  35  37
ENDBRANCH  31  35
ENDBRANCH  30  33
ENDBRANCH  29  30
ENDBRANCH  28  29
ENDBRANCH   1  28
TORSDOF 8
ENDMDL
MODEL 3
REMARK VINA RESULT:      -7.1     12.008     14.982
REMARK  Name = 
REMARK  11 active torsions:
REMARK  status: ('A' for Active; 'I' for Inactive)
REMARK    1  A    between atoms: C_1  and  C_2
REMARK    2  A    between atoms: C_2  and  C_3
REMARK    3  A    between atoms: C_2  and  C_4
REMARK    4  A    between atoms: C_2  and  O_5
REMARK    5  A    between atoms: O_5  and  C_6
REMARK    6  A    between atoms: N_8  and  C_9
REMARK    7  A    between atoms: C_9  and  C_10
REMARK    8  A    between atoms: C_10  and  C_11
REMARK    9  A    between atoms: C_11  and  N_12
REMARK   10  A    between atoms: C_14  and  C_15
REMARK   11  A    between atoms: C_16  and  C_17
REMARK                            x       y       z     vdW  Elec       q    Type
REMARK                         _______ _______ _______ _____ _____    ______ ____
ROOT
ATOM      1  N   UNL     1      -5.238  12.457  19.028  0.00  0.00    +0.000 N 
ATOM      2  C   UNL     1      -6.386  13.218  18.692  0.00  0.00    +0.000 A 
ATOM      3  C   UNL     1      -6.672  13.775  19.922  0.00  0.00    +0.000 A 
ATOM      4  C   UNL     1      -5.409  14.409  20.019  0.00  0.00    +0.000 A 
ATOM      5  C   UNL     1      -4.941  15.683  20.338  0.00  0.00    +0.000 A 
ATOM      6  C   UNL     1      -3.657  15.773  20.849  0.00  0.00    +0.000 A 
ATOM      7  C   UNL     1      -2.969  14.600  21.178  0.00  0.00    +0.000 A 
ATOM      8  C   UNL     1      -3.366  13.326  20.692  0.00  0.00    +0.000 A 
ATOM      9  C   UNL     1      -4.529  13.299  19.910  0.00  0.00    +0.000 A 
ENDROOT
BRANCH   3  10
ATOM     10  C   UNL     1      -7.180  13.019  21.060  0.00  0.00    +0.000 C 
ATOM     11  C   UNL     1      -7.176  13.361  22.352  0.00  0.00    +0.000 C 
ATOM     12  C   UNL     1      -7.616  12.194  23.148  0.00  0.00    +0.000 C 
ATOM     13  O   UNL     1      -7.774  12.138  24.361  0.00  0.00    +0.000 OA
ATOM     14  N   UNL     1      -7.805  11.176  22.295  0.00  0.00    +0.000 N 
ATOM     15  C   UNL     1      -7.614  11.587  21.030  0.00  0.00    +0.000 C 
ATOM     16  O   UNL     1      -7.789  10.870  20.062  0.00  0.00    +0.000 OA
ATOM     17  H   UNL     1      -8.114  10.257  22.557  0.00  0.00    +0.000 HD
BRANCH  11  18
ATOM     18  C   UNL     1      -6.955  14.603  22.989  0.00  0.00    +0.000 A 
ATOM     19  C   UNL     1      -7.687  15.753  22.829  0.00  0.00    +0.000 A 
ATOM     20  N   UNL     1      -6.970  16.765  23.415  0.00  0.00    +0.000 N 
ATOM     21  C   UNL     1      -5.775  16.277  23.922  0.00  0.00    +0.000 A 
ATOM     22  C   UNL     1      -4.681  16.945  24.485  0.00  0.00    +0.000 A 
ATOM     23  C   UNL     1      -3.585  16.167  24.875  0.00  0.00    +0.000 A 
ATOM     24  C   UNL     1      -3.588  14.780  24.741  0.00  0.00    +0.000 A 
ATOM     25  C   UNL     1      -4.689  14.133  24.174  0.00  0.00    +0.000 A 
ATOM     26  C   UNL     1      -5.789  14.901  23.735  0.00  0.00    +0.000 A 
ATOM     27  H   UNL     1      -7.218  17.750  23.390  0.00  0.00    +0.000 HD
ENDBRANCH  11  18
ENDBRANCH   3  10
BRANCH   1  28
ATOM     28  C   UNL     1      -4.929  11.272  18.229  0.00  0.00    +0.000 C 
BRANCH  28  29
ATOM     29  C   UNL     1      -4.244  11.523  16.822  0.00  0.00    +0.000 C 
BRANCH  29  30
ATOM     30  C   UNL     1      -2.768  11.144  16.528  0.00  0.00    +0.000 C 
BRANCH  30  33
ATOM     31  C   UNL     1      -1.145  11.730  18.267  0.00  0.00    +0.000 C 
ATOM     32  O   UNL     1      -1.552  10.871  19.036  0.00  0.00    +0.000 OA
ATOM     33  N   UNL     1      -1.748  12.017  17.071  0.00  0.00    +0.000 N 
ATOM     34  H   UNL     1      -1.196  12.588  16.447  0.00  0.00    +0.000 HD
BRANCH  31  35
ATOM     35  O   UNL     1      -0.055  12.521  18.466  0.00  0.00    +0.000 OA
BRANCH  35  37
ATOM     36  C   UNL     1       1.449  10.527  18.447  0.00  0.00    +0.000 C 
ATOM     37  C   UNL     1       1.156  11.917  19.034  0.00  0.00    +0.000 C 
ATOM     38  C   UNL     1       1.084  11.895  20.550  0.00  0.00    +0.000 C 
ATOM     39  C   UNL     1       2.319  12.842  18.613  0.00  0.00    +0.000 C 
ENDBRANCH  35  37
ENDBRANCH  31  35
ENDBRANCH  30  33
ENDBRANCH  29  30
ENDBRANCH  28  29
ENDBRANCH   1  28
TORSDOF 8
ENDMDL
MODEL 4
REMARK VINA RESULT:      -7.0      8.100     11.343
REMARK  Name = 
REMARK  11 active torsions:
REMARK  status: ('A' for Active; 'I' for Inactive)
REMARK    1  A    between atoms: C_1  and  C_2
REMARK    2  A    between atoms: C_2  and  C_3
REMARK    3  A    between atoms: C_2  and  C_4
REMARK    4  A    between atoms: C_2  and  O_5
REMARK    5  A    between atoms: O_5  and  C_6
REMARK    6  A    between atoms: N_8  and  C_9
REMARK    7  A    between atoms: C_9  and  C_10
REMARK    8  A    between atoms: C_10  and  C_11
REMARK    9  A    between atoms: C_11  and  N_12
REMARK   10  A    between atoms: C_14  and  C_15
REMARK   11  A    between atoms: C_16  and  C_17
REMARK                            x       y       z     vdW  Elec       q    Type
REMARK                         _______ _______ _______ _____ _____    ______ ____
ROOT
ATOM      1  N   UNL     1      -1.305  11.379  22.594  0.00  0.00    +0.000 N 
ATOM      2  C   UNL     1      -0.635  12.415  21.894  0.00  0.00    +0.000 A 
ATOM      3  C   UNL     1      -1.722  13.123  21.421  0.00  0.00    +0.000 A 
ATOM      4  C   UNL     1      -2.231  13.366  22.720  0.00  0.00    +0.000 A 
ATOM      5  C   UNL     1      -2.712  14.467  23.427  0.00  0.00    +0.000 A 
ATOM      6  C   UNL     1      -3.609  14.216  24.452  0.00  0.00    +0.000 A 
ATOM      7  C   UNL     1      -4.115  12.922  24.614  0.00  0.00    +0.000 A 
ATOM      8  C   UNL     1      -3.499  11.787  24.023  0.00  0.00    +0.000 A 
ATOM      9  C   UNL     1      -2.386  12.041  23.211  0.00  0.00    +0.000 A 
ENDROOT
BRANCH   3  10
ATOM     10  C   UNL     1      -2.619  12.640  20.380  0.00  0.00    +0.000 C 
ATOM     11  C   UNL     1      -2.305  12.103  19.197  0.00  0.00    +0.000 C 
ATOM     12  C   UNL     1      -3.546  11.952  18.405  0.00  0.00    +0.000 C 
ATOM     13  O   UNL     1      -3.661  11.462  17.289  0.00  0.00    +0.000 OA
ATOM     14  N   UNL     1      -4.549  12.468  19.131  0.00  0.00    +0.000 N 
ATOM     15  C   UNL     1      -4.099  12.858  20.335  0.00  0.00    +0.000 C 
ATOM     16  O   UNL     1      -4.824  13.301  21.207  0.00  0.00    +0.000 OA
ATOM     17  H   UNL     1      -5.511  12.495  18.844  0.00  0.00    +0.000 HD
BRANCH  11  18
ATOM     18  C   UNL     1      -1.086  11.590  18.698  0.00  0.00    +0.000 A 
ATOM     19  C   UNL     1      -0.754  10.269  18.535  0.00  0.00    +0.000 A 
ATOM     20  N   UNL     1       0.595  10.227  18.288  0.00  0.00    +0.000 N 
ATOM     21  C   UNL     1       1.131  11.505  18.319  0.00  0.00    +0.000 A 
ATOM     22  C   UNL     1       2.459  11.941  18.249  0.00  0.00    +0.000 A 
ATOM     23  C   UNL     1       2.689  13.318  18.348  0.00  0.00    +0.000 A 
ATOM     24  C   UNL     1       1.641  14.227  18.479  0.00  0.00    +0.000 A 
ATOM     25  C   UNL     1       0.322  13.771  18.549  0.00  0.00    +0.000 A 
ATOM     26  C   UNL     1       0.069  12.383  18.493  0.00  0.00    +0.000 A 
ATOM     27  H   UNL     1       1.149   9.379  18.202  0.00  0.00    +0.000 HD
ENDBRANCH  11  18
ENDBRANCH   3  10
BRANCH   1  28
ATOM     28  C   UNL     1      -0.621  10.098  22.763  0.00  0.00    +0.000 C 
BRANCH  28  29
ATOM     29  C   UNL     1       0.690   9.874  21.900  0.00  0.00    +0.000 C 
BRANCH  29  30
ATOM     30  C   UNL     1       1.410   8.502  21.809  0.00  0.00    +0.000 C 
BRANCH  30  33
ATOM     31  C   UNL     1       1.874   6.819  20.090  0.00  0.00    +0.000 C 
ATOM     32  O   UNL     1       1.591   5.885  20.827  0.00  0.00    +0.000 OA
ATOM     33  N   UNL     1       1.929   8.121  20.511  0.00  0.00    +0.000 N 
ATOM     34  H   UNL     1       1.963   8.803  19.768  0.00  0.00    +0.000 HD
BRANCH  31  35
ATOM     35  O   UNL     1       2.172   6.722  18.765  0.00  0.00    +0.000 OA
BRANCH  35  37
ATOM     36  C   UNL     1       4.180   5.478  19.577  0.00  0.00    +0.000 C 
ATOM     37  C   UNL     1       3.362   5.960  18.368  0.00  0.00    +0.000 C 
ATOM     38  C   UNL     1       4.204   6.753  17.385  0.00  0.00    +0.000 C 
ATOM     39  C   UNL     1       2.828   4.701  17.650  0.00  0.00    +0.000 C 
ENDBRANCH  35  37
ENDBRANCH  31  35
ENDBRANCH  30  33
ENDBRANCH  29  30
ENDBRANCH  28  29
ENDBRANCH   1  28
TORSDOF 8
ENDMDL
MODEL 5
REMARK VINA RESULT:      -6.9      8.036     11.159
REMARK  Name = 
REMARK  11 active torsions:
REMARK  status: ('A' for Active; 'I' for Inactive)
REMARK    1  A    between atoms: C_1  and  C_2
REMARK    2  A    between atoms: C_2  and  C_3
REMARK    3  A    between atoms: C_2  and  C_4
REMARK    4  A    between atoms: C_2  and  O_5
REMARK    5  A    between atoms: O_5  and  C_6
REMARK    6  A    between atoms: N_8  and  C_9
REMARK    7  A    between atoms: C_9  and  C_10
REMARK    8  A    between atoms: C_10  and  C_11
REMARK    9  A    between atoms: C_11  and  N_12
REMARK   10  A    between atoms: C_14  and  C_15
REMARK   11  A    between atoms: C_16  and  C_17
REMARK                            x       y       z     vdW  Elec       q    Type
REMARK                         _______ _______ _______ _____ _____    ______ ____
ROOT
ATOM      1  N   UNL     1      -1.085  11.413  22.679  0.00  0.00    +0.000 N 
ATOM      2  C   UNL     1      -0.439  12.492  22.024  0.00  0.00    +0.000 A 
ATOM      3  C   UNL     1      -1.535  13.139  21.491  0.00  0.00    +0.000 A 
ATOM      4  C   UNL     1      -2.134  13.340  22.759  0.00  0.00    +0.000 A 
ATOM      5  C   UNL     1      -2.720  14.405  23.441  0.00  0.00    +0.000 A 
ATOM      6  C   UNL     1      -3.659  14.094  24.410  0.00  0.00    +0.000 A 
ATOM      7  C   UNL     1      -4.097  12.771  24.536  0.00  0.00    +0.000 A 
ATOM      8  C   UNL     1      -3.381  11.679  23.978  0.00  0.00    +0.000 A 
ATOM      9  C   UNL     1      -2.238  12.005  23.234  0.00  0.00    +0.000 A 
ENDROOT
BRANCH   3  10
ATOM     10  C   UNL     1      -2.340  12.612  20.397  0.00  0.00    +0.000 C 
ATOM     11  C   UNL     1      -1.934  12.204  19.190  0.00  0.00    +0.000 C 
ATOM     12  C   UNL     1      -3.128  11.942  18.357  0.00  0.00    +0.000 C 
ATOM     13  O   UNL     1      -3.156  11.518  17.208  0.00  0.00    +0.000 OA
ATOM     14  N   UNL     1      -4.205  12.268  19.087  0.00  0.00    +0.000 N 
ATOM     15  C   UNL     1      -3.834  12.632  20.326  0.00  0.00    +0.000 C 
ATOM     16  O   UNL     1      -4.629  12.913  21.205  0.00  0.00    +0.000 OA
ATOM     17  H   UNL     1      -5.157  12.185  18.776  0.00  0.00    +0.000 HD
BRANCH  11  18
ATOM     18  C   UNL     1      -0.648  11.894  18.692  0.00  0.00    +0.000 A 
ATOM     19  C   UNL     1      -0.126  10.643  18.480  0.00  0.00    +0.000 A 
ATOM     20  N   UNL     1       1.218  10.806  18.256  0.00  0.00    +0.000 N 
ATOM     21  C   UNL     1       1.563  12.146  18.352  0.00  0.00    +0.000 A 
ATOM     22  C   UNL     1       2.815  12.771  18.325  0.00  0.00    +0.000 A 
ATOM     23  C   UNL     1       2.842  14.160  18.487  0.00  0.00    +0.000 A 
ATOM     24  C   UNL     1       1.672  14.902  18.638  0.00  0.00    +0.000 A 
ATOM     25  C   UNL     1       0.433  14.259  18.664  0.00  0.00    +0.000 A 
ATOM     26  C   UNL     1       0.383  12.853  18.544  0.00  0.00    +0.000 A 
ATOM     27  H   UNL     1       1.889  10.052  18.144  0.00  0.00    +0.000 HD
ENDBRANCH  11  18
ENDBRANCH   3  10
BRANCH   1  28
ATOM     28  C   UNL     1      -0.338  10.173  22.883  0.00  0.00    +0.000 C 
BRANCH  28  29
ATOM     29  C   UNL     1      -0.224   9.200  21.637  0.00  0.00    +0.000 C 
BRANCH  29  30
ATOM     30  C   UNL     1       1.123   8.589  21.169  0.00  0.00    +0.000 C 
BRANCH  30  33
ATOM     31  C   UNL     1       2.106   6.476  20.412  0.00  0.00    +0.000 C 
ATOM     32  O   UNL     1       2.649   6.993  19.446  0.00  0.00    +0.000 OA
ATOM     33  N   UNL     1       1.248   7.147  21.242  0.00  0.00    +0.000 N 
ATOM     34  H   UNL     1       1.042   6.672  22.108  0.00  0.00    +0.000 HD
BRANCH  31  35
ATOM     35  O   UNL     1       2.260   5.183  20.812  0.00  0.00    +0.000 OA
BRANCH  35  37
ATOM     36  C   UNL     1       3.852   3.900  19.379  0.00  0.00    +0.000 C 
ATOM     37  C   UNL     1       2.390   4.143  19.786  0.00  0.00    +0.000 C 
ATOM     38  C   UNL     1       1.507   4.453  18.591  0.00  0.00    +0.000 C 
ATOM     39  C   UNL     1       1.882   2.842  20.447  0.00  0.00    +0.000 C 
ENDBRANCH  35  37
ENDBRANCH  31  35
ENDBRANCH  30  33
ENDBRANCH  29  30
ENDBRANCH  28  29
ENDBRANCH   1  28
TORSDOF 8
ENDMDL
MODEL 6
REMARK VINA RESULT:      -6.8      9.264     11.875
REMARK  Name = 
REMARK  11 active torsions:
REMARK  status: ('A' for Active; 'I' for Inactive)
REMARK    1  A    between atoms: C_1  and  C_2
REMARK    2  A    between atoms: C_2  and  C_3
REMARK    3  A    between atoms: C_2  and  C_4
REMARK    4  A    between atoms: C_2  and  O_5
REMARK    5  A    between atoms: O_5  and  C_6
REMARK    6  A    between atoms: N_8  and  C_9
REMARK    7  A    between atoms: C_9  and  C_10
REMARK    8  A    between atoms: C_10  and  C_11
REMARK    9  A    between atoms: C_11  and  N_12
REMARK   10  A    between atoms: C_14  and  C_15
REMARK   11  A    between atoms: C_16  and  C_17
REMARK                            x       y       z     vdW  Elec       q    Type
REMARK                         _______ _______ _______ _____ _____    ______ ____
ROOT
ATOM      1  N   UNL     1      -0.538  11.002  19.538  0.00  0.00    +0.000 N 
ATOM      2  C   UNL     1      -0.535  12.115  18.659  0.00  0.00    +0.000 A 
ATOM      3  C   UNL     1      -1.585  12.839  19.187  0.00  0.00    +0.000 A 
ATOM      4  C   UNL     1      -0.977  12.945  20.461  0.00  0.00    +0.000 A 
ATOM      5  C   UNL     1      -0.735  13.963  21.382  0.00  0.00    +0.000 A 
ATOM      6  C   UNL     1      -0.617  13.596  22.712  0.00  0.00    +0.000 A 
ATOM      7  C   UNL     1      -0.914  12.281  23.086  0.00  0.00    +0.000 A 
ATOM      8  C   UNL     1      -0.981  11.222  22.143  0.00  0.00    +0.000 A 
ATOM      9  C   UNL     1      -0.795  11.578  20.800  0.00  0.00    +0.000 A 
ENDROOT
BRANCH   3  10
ATOM     10  C   UNL     1      -2.982  12.434  19.093  0.00  0.00    +0.000 C 
ATOM     11  C   UNL     1      -4.005  12.796  19.873  0.00  0.00    +0.000 C 
ATOM     12  C   UNL     1      -5.184  11.978  19.512  0.00  0.00    +0.000 C 
ATOM     13  O   UNL     1      -6.312  12.050  19.982  0.00  0.00    +0.000 OA
ATOM     14  N   UNL     1      -4.793  11.109  18.567  0.00  0.00    +0.000 N 
ATOM     15  C   UNL     1      -3.514  11.338  18.224  0.00  0.00    +0.000 C 
ATOM     16  O   UNL     1      -2.941  10.727  17.341  0.00  0.00    +0.000 OA
ATOM     17  H   UNL     1      -5.390  10.430  18.128  0.00  0.00    +0.000 HD
BRANCH  11  18
ATOM     18  C   UNL     1      -4.138  13.843  20.813  0.00  0.00    +0.000 A 
ATOM     19  C   UNL     1      -4.008  15.188  20.573  0.00  0.00    +0.000 A 
ATOM     20  N   UNL     1      -3.947  15.805  21.797  0.00  0.00    +0.000 N 
ATOM     21  C   UNL     1      -4.007  14.865  22.814  0.00  0.00    +0.000 A 
ATOM     22  C   UNL     1      -3.858  15.006  24.199  0.00  0.00    +0.000 A 
ATOM     23  C   UNL     1      -3.935  13.844  24.975  0.00  0.00    +0.000 A 
ATOM     24  C   UNL     1      -4.184  12.598  24.402  0.00  0.00    +0.000 A 
ATOM     25  C   UNL     1      -4.329  12.479  23.018  0.00  0.00    +0.000 A 
ATOM     26  C   UNL     1      -4.212  13.631  22.211  0.00  0.00    +0.000 A 
ATOM     27  H   UNL     1      -3.771  16.795  21.946  0.00  0.00    +0.000 HD
ENDBRANCH  11  18
ENDBRANCH   3  10
BRANCH   1  28
ATOM     28  C   UNL     1      -0.014   9.728  19.051  0.00  0.00    +0.000 C 
BRANCH  28  29
ATOM     29  C   UNL     1       1.150   9.803  17.978  0.00  0.00    +0.000 C 
BRANCH  29  30
ATOM     30  C   UNL     1       2.321   8.786  17.938  0.00  0.00    +0.000 C 
BRANCH  30  33
ATOM     31  C   UNL     1       3.046   6.536  18.586  0.00  0.00    +0.000 C 
ATOM     32  O   UNL     1       3.868   6.464  17.683  0.00  0.00    +0.000 OA
ATOM     33  N   UNL     1       2.166   7.577  18.721  0.00  0.00    +0.000 N 
ATOM     34  H   UNL     1       1.696   7.618  19.613  0.00  0.00    +0.000 HD
BRANCH  31  35
ATOM     35  O   UNL     1       2.875   5.621  19.579  0.00  0.00    +0.000 OA
BRANCH  35  37
ATOM     36  C   UNL     1       1.622   4.350  17.833  0.00  0.00    +0.000 C 
ATOM     37  C   UNL     1       2.178   4.369  19.266  0.00  0.00    +0.000 C 
ATOM     38  C   UNL     1       1.105   4.078  20.300  0.00  0.00    +0.000 C 
ATOM     39  C   UNL     1       3.252   3.262  19.351  0.00  0.00    +0.000 C 
ENDBRANCH  35  37
ENDBRANCH  31  35
ENDBRANCH  30  33
ENDBRANCH  29  30
ENDBRANCH  28  29
ENDBRANCH   1  28
TORSDOF 8
ENDMDL
MODEL 7
REMARK VINA RESULT:      -6.8      9.864     12.424
REMARK  Name = 
REMARK  11 active torsions:
REMARK  status: ('A' for Active; 'I' for Inactive)
REMARK    1  A    between atoms: C_1  and  C_2
REMARK    2  A    between atoms: C_2  and  C_3
REMARK    3  A    between atoms: C_2  and  C_4
REMARK    4  A    between atoms: C_2  and  O_5
REMARK    5  A    between atoms: O_5  and  C_6
REMARK    6  A    between atoms: N_8  and  C_9
REMARK    7  A    between atoms: C_9  and  C_10
REMARK    8  A    between atoms: C_10  and  C_11
REMARK    9  A    between atoms: C_11  and  N_12
REMARK   10  A    between atoms: C_14  and  C_15
REMARK   11  A    between atoms: C_16  and  C_17
REMARK                            x       y       z     vdW  Elec       q    Type
REMARK                         _______ _______ _______ _____ _____    ______ ____
ROOT
ATOM      1  N   UNL     1      -1.059  11.131  22.608  0.00  0.00    +0.000 N 
ATOM      2  C   UNL     1      -0.260  12.097  21.946  0.00  0.00    +0.000 A 
ATOM      3  C   UNL     1      -1.247  12.927  21.455  0.00  0.00    +0.000 A 
ATOM      4  C   UNL     1      -1.766  13.206  22.743  0.00  0.00    +0.000 A 
ATOM      5  C   UNL     1      -2.144  14.343  23.455  0.00  0.00    +0.000 A 
ATOM      6  C   UNL     1      -3.094  14.178  24.450  0.00  0.00    +0.000 A 
ATOM      7  C   UNL     1      -3.743  12.945  24.575  0.00  0.00    +0.000 A 
ATOM      8  C   UNL     1      -3.238  11.758  23.982  0.00  0.00    +0.000 A 
ATOM      9  C   UNL     1      -2.079  11.900  23.207  0.00  0.00    +0.000 A 
ENDROOT
BRANCH   3  10
ATOM     10  C   UNL     1      -2.160  12.560  20.381  0.00  0.00    +0.000 C 
ATOM     11  C   UNL     1      -3.420  12.963  20.188  0.00  0.00    +0.000 C 
ATOM     12  C   UNL     1      -4.003  12.171  19.082  0.00  0.00    +0.000 C 
ATOM     13  O   UNL     1      -5.122  12.282  18.597  0.00  0.00    +0.000 OA
ATOM     14  N   UNL     1      -3.079  11.277  18.700  0.00  0.00    +0.000 N 
ATOM     15  C   UNL     1      -1.938  11.465  19.385  0.00  0.00    +0.000 C 
ATOM     16  O   UNL     1      -0.924  10.824  19.179  0.00  0.00    +0.000 OA
ATOM     17  H   UNL     1      -3.198  10.608  17.960  0.00  0.00    +0.000 HD
BRANCH  11  18
ATOM     18  C   UNL     1      -4.157  14.028  20.754  0.00  0.00    +0.000 A 
ATOM     19  C   UNL     1      -3.794  15.351  20.795  0.00  0.00    +0.000 A 
ATOM     20  N   UNL     1      -4.658  15.973  21.661  0.00  0.00    +0.000 N 
ATOM     21  C   UNL     1      -5.550  15.054  22.194  0.00  0.00    +0.000 A 
ATOM     22  C   UNL     1      -6.516  15.195  23.197  0.00  0.00    +0.000 A 
ATOM     23  C   UNL     1      -7.247  14.055  23.549  0.00  0.00    +0.000 A 
ATOM     24  C   UNL     1      -7.049  12.833  22.909  0.00  0.00    +0.000 A 
ATOM     25  C   UNL     1      -6.079  12.714  21.911  0.00  0.00    +0.000 A 
ATOM     26  C   UNL     1      -5.300  13.840  21.568  0.00  0.00    +0.000 A 
ATOM     27  H   UNL     1      -4.593  16.942  21.958  0.00  0.00    +0.000 HD
ENDBRANCH  11  18
ENDBRANCH   3  10
BRANCH   1  28
ATOM     28  C   UNL     1      -0.525   9.781  22.775  0.00  0.00    +0.000 C 
BRANCH  28  29
ATOM     29  C   UNL     1      -0.201   8.977  21.448  0.00  0.00    +0.000 C 
BRANCH  29  30
ATOM     30  C   UNL     1       1.240   8.811  20.897  0.00  0.00    +0.000 C 
BRANCH  30  33
ATOM     31  C   UNL     1       2.348   6.987  19.692  0.00  0.00    +0.000 C 
ATOM     32  O   UNL     1       2.280   7.563  18.615  0.00  0.00    +0.000 OA
ATOM     33  N   UNL     1       1.766   7.462  20.837  0.00  0.00    +0.000 N 
ATOM     34  H   UNL     1       2.074   7.009  21.685  0.00  0.00    +0.000 HD
BRANCH  31  35
ATOM     35  O   UNL     1       2.995   5.812  19.925  0.00  0.00    +0.000 OA
BRANCH  35  37
ATOM     36  C   UNL     1       1.018   4.343  20.334  0.00  0.00    +0.000 C 
ATOM     37  C   UNL     1       2.327   4.559  19.558  0.00  0.00    +0.000 C 
ATOM     38  C   UNL     1       3.276   3.382  19.698  0.00  0.00    +0.000 C 
ATOM     39  C   UNL     1       1.951   4.710  18.067  0.00  0.00    +0.000 C 
ENDBRANCH  35  37
ENDBRANCH  31  35
ENDBRANCH  30  33
ENDBRANCH  29  30
ENDBRANCH  28  29
ENDBRANCH   1  28
TORSDOF 8
ENDMDL
MODEL 8
REMARK VINA RESULT:      -6.8      7.894     10.144
REMARK  Name = 
REMARK  11 active torsions:
REMARK  status: ('A' for Active; 'I' for Inactive)
REMARK    1  A    between atoms: C_1  and  C_2
REMARK    2  A    between atoms: C_2  and  C_3
REMARK    3  A    between atoms: C_2  and  C_4
REMARK    4  A    between atoms: C_2  and  O_5
REMARK    5  A    between atoms: O_5  and  C_6
REMARK    6  A    between atoms: N_8  and  C_9
REMARK    7  A    between atoms: C_9  and  C_10
REMARK    8  A    between atoms: C_10  and  C_11
REMARK    9  A    between atoms: C_11  and  N_12
REMARK   10  A    between atoms: C_14  and  C_15
REMARK   11  A    between atoms: C_16  and  C_17
REMARK                            x       y       z     vdW  Elec       q    Type
REMARK                         _______ _______ _______ _____ _____    ______ ____
ROOT
ATOM      1  N   UNL     1       1.386  10.436  18.537  0.00  0.00    +0.000 N 
ATOM      2  C   UNL     1       0.076  10.066  18.141  0.00  0.00    +0.000 A 
ATOM      3  C   UNL     1      -0.664  10.840  19.012  0.00  0.00    +0.000 A 
ATOM      4  C   UNL     1      -0.102  12.051  18.541  0.00  0.00    +0.000 A 
ATOM      5  C   UNL     1      -0.580  13.298  18.139  0.00  0.00    +0.000 A 
ATOM      6  C   UNL     1       0.280  14.375  18.270  0.00  0.00    +0.000 A 
ATOM      7  C   UNL     1       1.493  14.203  18.945  0.00  0.00    +0.000 A 
ATOM      8  C   UNL     1       2.049  12.919  19.188  0.00  0.00    +0.000 A 
ATOM      9  C   UNL     1       1.282  11.824  18.768  0.00  0.00    +0.000 A 
ENDROOT
BRANCH   3  10
ATOM     10  C   UNL     1      -0.746  10.600  20.446  0.00  0.00    +0.000 C 
ATOM     11  C   UNL     1      -1.144  11.440  21.407  0.00  0.00    +0.000 C 
ATOM     12  C   UNL     1      -0.866  10.817  22.720  0.00  0.00    +0.000 C 
ATOM     13  O   UNL     1      -1.127  11.269  23.828  0.00  0.00    +0.000 OA
ATOM     14  N   UNL     1      -0.250   9.649  22.487  0.00  0.00    +0.000 N 
ATOM     15  C   UNL     1      -0.177   9.417  21.165  0.00  0.00    +0.000 C 
ATOM     16  O   UNL     1       0.279   8.392  20.692  0.00  0.00    +0.000 OA
ATOM     17  H   UNL     1       0.052   9.006  23.197  0.00  0.00    +0.000 HD
BRANCH  11  18
ATOM     18  C   UNL     1      -1.845  12.666  21.345  0.00  0.00    +0.000 A 
ATOM     19  C   UNL     1      -3.084  12.879  20.794  0.00  0.00    +0.000 A 
ATOM     20  N   UNL     1      -3.252  14.238  20.711  0.00  0.00    +0.000 N 
ATOM     21  C   UNL     1      -2.121  14.893  21.176  0.00  0.00    +0.000 A 
ATOM     22  C   UNL     1      -1.785  16.251  21.171  0.00  0.00    +0.000 A 
ATOM     23  C   UNL     1      -0.533  16.605  21.686  0.00  0.00    +0.000 A 
ATOM     24  C   UNL     1       0.335  15.653  22.215  0.00  0.00    +0.000 A 
ATOM     25  C   UNL     1      -0.019  14.301  22.210  0.00  0.00    +0.000 A 
ATOM     26  C   UNL     1      -1.259  13.916  21.657  0.00  0.00    +0.000 A 
ATOM     27  H   UNL     1      -4.040  14.705  20.273  0.00  0.00    +0.000 HD
ENDBRANCH  11  18
ENDBRANCH   3  10
BRANCH   1  28
ATOM     28  C   UNL     1       2.474   9.485  18.321  0.00  0.00    +0.000 C 
BRANCH  28  29
ATOM     29  C   UNL     1       2.060   8.024  17.868  0.00  0.00    +0.000 C 
BRANCH  29  30
ATOM     30  C   UNL     1       2.731   6.746  18.439  0.00  0.00    +0.000 C 
BRANCH  30  33
ATOM     31  C   UNL     1       4.731   5.355  18.169  0.00  0.00    +0.000 C 
ATOM     32  O   UNL     1       4.969   5.340  19.369  0.00  0.00    +0.000 OA
ATOM     33  N   UNL     1       3.732   6.107  17.609  0.00  0.00    +0.000 N 
ATOM     34  H   UNL     1       3.510   5.867  16.654  0.00  0.00    +0.000 HD
BRANCH  31  35
ATOM     35  O   UNL     1       5.400   4.646  17.219  0.00  0.00    +0.000 OA
BRANCH  35  37
ATOM     36  C   UNL     1       7.087   4.775  15.383  0.00  0.00    +0.000 C 
ATOM     37  C   UNL     1       6.757   5.067  16.856  0.00  0.00    +0.000 C 
ATOM     38  C   UNL     1       7.779   4.462  17.802  0.00  0.00    +0.000 C 
ATOM     39  C   UNL     1       6.777   6.601  17.029  0.00  0.00    +0.000 C 
ENDBRANCH  35  37
ENDBRANCH  31  35
ENDBRANCH  30  33
ENDBRANCH  29  30
ENDBRANCH  28  29
ENDBRANCH   1  28
TORSDOF 8
ENDMDL
MODEL 9
REMARK VINA RESULT:      -6.8      9.377     11.179
REMARK  Name = 
REMARK  11 active torsions:
REMARK  status: ('A' for Active; 'I' for Inactive)
REMARK    1  A    between atoms: C_1  and  C_2
REMARK    2  A    between atoms: C_2  and  C_3
REMARK    3  A    between atoms: C_2  and  C_4
REMARK    4  A    between atoms: C_2  and  O_5
REMARK    5  A    between atoms: O_5  and  C_6
REMARK    6  A    between atoms: N_8  and  C_9
REMARK    7  A    between atoms: C_9  and  C_10
REMARK    8  A    between atoms: C_10  and  C_11
REMARK    9  A    between atoms: C_11  and  N_12
REMARK   10  A    between atoms: C_14  and  C_15
REMARK   11  A    between atoms: C_16  and  C_17
REMARK                            x       y       z     vdW  Elec       q    Type
REMARK                         _______ _______ _______ _____ _____    ______ ____
ROOT
ATOM      1  N   UNL     1       0.193  10.253  21.729  0.00  0.00    +0.000 N 
ATOM      2  C   UNL     1       1.086  11.029  20.946  0.00  0.00    +0.000 A 
ATOM      3  C   UNL     1       0.209  11.973  20.450  0.00  0.00    +0.000 A 
ATOM      4  C   UNL     1      -0.168  12.419  21.740  0.00  0.00    +0.000 A 
ATOM      5  C   UNL     1      -0.311  13.648  22.381  0.00  0.00    +0.000 A 
ATOM      6  C   UNL     1      -1.203  13.708  23.439  0.00  0.00    +0.000 A 
ATOM      7  C   UNL     1      -2.028  12.609  23.699  0.00  0.00    +0.000 A 
ATOM      8  C   UNL     1      -1.759  11.317  23.173  0.00  0.00    +0.000 A 
ATOM      9  C   UNL     1      -0.650  11.216  22.323  0.00  0.00    +0.000 A 
ENDROOT
BRANCH   3  10
ATOM     10  C   UNL     1      -0.823  11.686  19.463  0.00  0.00    +0.000 C 
ATOM     11  C   UNL     1      -2.009  12.282  19.306  0.00  0.00    +0.000 C 
ATOM     12  C   UNL     1      -2.789  11.519  18.306  0.00  0.00    +0.000 C 
ATOM     13  O   UNL     1      -3.905  11.782  17.874  0.00  0.00    +0.000 OA
ATOM     14  N   UNL     1      -2.054  10.455  17.952  0.00  0.00    +0.000 N 
ATOM     15  C   UNL     1      -0.854  10.497  18.554  0.00  0.00    +0.000 C 
ATOM     16  O   UNL     1       0.025   9.679  18.349  0.00  0.00    +0.000 OA
ATOM     17  H   UNL     1      -2.332   9.762  17.280  0.00  0.00    +0.000 HD
BRANCH  11  18
ATOM     18  C   UNL     1      -2.520  13.496  19.818  0.00  0.00    +0.000 A 
ATOM     19  C   UNL     1      -1.933  14.734  19.740  0.00  0.00    +0.000 A 
ATOM     20  N   UNL     1      -2.629  15.557  20.591  0.00  0.00    +0.000 N 
ATOM     21  C   UNL     1      -3.635  14.848  21.230  0.00  0.00    +0.000 A 
ATOM     22  C   UNL     1      -4.506  15.226  22.258  0.00  0.00    +0.000 A 
ATOM     23  C   UNL     1      -5.402  14.259  22.728  0.00  0.00    +0.000 A 
ATOM     24  C   UNL     1      -5.453  12.980  22.177  0.00  0.00    +0.000 A 
ATOM     25  C   UNL     1      -4.573  12.623  21.152  0.00  0.00    +0.000 A 
ATOM     26  C   UNL     1      -3.632  13.568  20.691  0.00  0.00    +0.000 A 
ATOM     27  H   UNL     1      -2.382  16.518  20.809  0.00  0.00    +0.000 HD
ENDBRANCH  11  18
ENDBRANCH   3  10
BRANCH   1  28
ATOM     28  C   UNL     1       0.518   8.848  21.969  0.00  0.00    +0.000 C 
BRANCH  28  29
ATOM     29  C   UNL     1       1.450   8.142  20.900  0.00  0.00    +0.000 C 
BRANCH  29  30
ATOM     30  C   UNL     1       1.569   6.600  20.778  0.00  0.00    +0.000 C 
BRANCH  30  33
ATOM     31  C   UNL     1       3.000   4.750  20.047  0.00  0.00    +0.000 C 
ATOM     32  O   UNL     1       2.476   3.950  20.809  0.00  0.00    +0.000 OA
ATOM     33  N   UNL     1       2.707   6.088  20.042  0.00  0.00    +0.000 N 
ATOM     34  H   UNL     1       3.046   6.590  19.235  0.00  0.00    +0.000 HD
BRANCH  31  35
ATOM     35  O   UNL     1       3.935   4.452  19.103  0.00  0.00    +0.000 OA
BRANCH  35  37
ATOM     36  C   UNL     1       3.484   2.171  18.192  0.00  0.00    +0.000 C 
ATOM     37  C   UNL     1       3.521   3.684  17.924  0.00  0.00    +0.000 C 
ATOM     38  C   UNL     1       4.386   4.032  16.725  0.00  0.00    +0.000 C 
ATOM     39  C   UNL     1       2.072   4.128  17.627  0.00  0.00    +0.000 C 
ENDBRANCH  35  37
ENDBRANCH  31  35
ENDBRANCH  30  33
ENDBRANCH  29  30
ENDBRANCH  28  29
ENDBRANCH   1  28
TORSDOF 8
ENDMDL
