MODEL 1
REMARK VINA RESULT:      -7.3      0.000      0.000
REMARK  Name = 
REMARK  6 active torsions:
REMARK  status: ('A' for Active; 'I' for Inactive)
REMARK    1  A    between atoms: C_1  and  O_2
REMARK    2  A    between atoms: O_2  and  C_3
REMARK    3  A    between atoms: C_9  and  C_10
REMARK    4  A    between atoms: C_16  and  O_17
REMARK    5  A    between atoms: O_17  and  C_18
REMARK    6  A    between atoms: C_22  and  O_23
REMARK                            x       y       z     vdW  Elec       q    Type
REMARK                         _______ _______ _______ _____ _____    ______ ____
ROOT
ATOM      1  C   UNL     1       4.600   4.206  17.114  0.00  0.00    +0.000 A 
ATOM      2  O   UNL     1       4.238   5.424  17.638  0.00  0.00    +0.000 OA
ATOM      3  C   UNL     1       3.295   5.446  18.647  0.00  0.00    +0.000 A 
ATOM      4  C   UNL     1       2.968   6.736  19.081  0.00  0.00    +0.000 A 
ATOM      5  C   UNL     1       2.017   6.911  20.069  0.00  0.00    +0.000 A 
ATOM      6  C   UNL     1       1.396   5.791  20.615  0.00  0.00    +0.000 A 
ATOM      7  C   UNL     1       1.708   4.476  20.204  0.00  0.00    +0.000 A 
ATOM      8  C   UNL     1       2.690   4.295  19.210  0.00  0.00    +0.000 A 
ATOM      9  C   UNL     1       3.196   2.998  18.683  0.00  0.00    +0.000 A 
ATOM     10  O   UNL     1       2.901   1.878  19.081  0.00  0.00    +0.000 OA
ATOM     11  C   UNL     1       4.164   3.028  17.565  0.00  0.00    +0.000 A 
ENDROOT
BRANCH   1  18
ATOM     12  C   UNL     1       6.748   4.929  16.056  0.00  0.00    +0.000 A 
ATOM     13  C   UNL     1       7.521   5.119  14.906  0.00  0.00    +0.000 A 
ATOM     14  C   UNL     1       7.069   4.651  13.669  0.00  0.00    +0.000 A 
ATOM     15  C   UNL     1       5.856   3.971  13.584  0.00  0.00    +0.000 A 
ATOM     16 BR   UNL     1       5.245   3.360  11.902  0.00  0.00    +0.000 Br
ATOM     17  C   UNL     1       5.078   3.763  14.721  0.00  0.00    +0.000 A 
ATOM     18  C   UNL     1       5.514   4.251  15.963  0.00  0.00    +0.000 A 
BRANCH  12  20
ATOM     19  C   UNL     1       7.412   6.732  17.445  0.00  0.00    +0.000 C 
ATOM     20  O   UNL     1       7.126   5.346  17.307  0.00  0.00    +0.000 OA
ENDBRANCH  12  20
ENDBRANCH   1  18
BRANCH   7  21
ATOM     21  O   UNL     1       0.927   3.614  20.918  0.00  0.00    +0.000 OA
ATOM     22  C   UNL     1       1.429   2.746  21.911  0.00  0.00    +0.000 C 
ENDBRANCH   7  21
BRANCH  11  23
ATOM     23  O   UNL     1       4.573   1.808  17.050  0.00  0.00    +0.000 OA
ATOM     24  H   UNL     1       4.209   1.797  16.139  0.00  0.00    +0.000 HD
ENDBRANCH  11  23
TORSDOF 4
ENDMDL
MODEL 2
REMARK VINA RESULT:      -7.0      2.047      2.969
REMARK  Name = 
REMARK  6 active torsions:
REMARK  status: ('A' for Active; 'I' for Inactive)
REMARK    1  A    between atoms: C_1  and  O_2
REMARK    2  A    between atoms: O_2  and  C_3
REMARK    3  A    between atoms: C_9  and  C_10
REMARK    4  A    between atoms: C_16  and  O_17
REMARK    5  A    between atoms: O_17  and  C_18
REMARK    6  A    between atoms: C_22  and  O_23
REMARK                            x       y       z     vdW  Elec       q    Type
REMARK                         _______ _______ _______ _____ _____    ______ ____
ROOT
ATOM      1  C   UNL     1       4.151   5.832  18.163  0.00  0.00    +0.000 A 
ATOM      2  O   UNL     1       3.789   7.085  17.731  0.00  0.00    +0.000 OA
ATOM      3  C   UNL     1       2.791   7.750  18.417  0.00  0.00    +0.000 A 
ATOM      4  C   UNL     1       2.471   8.999  17.870  0.00  0.00    +0.000 A 
ATOM      5  C   UNL     1       1.471   9.765  18.439  0.00  0.00    +0.000 A 
ATOM      6  C   UNL     1       0.793   9.272  19.551  0.00  0.00    +0.000 A 
ATOM      7  C   UNL     1       1.096   8.019  20.130  0.00  0.00    +0.000 A 
ATOM      8  C   UNL     1       2.128   7.246  19.562  0.00  0.00    +0.000 A 
ATOM      9  C   UNL     1       2.631   5.935  20.054  0.00  0.00    +0.000 A 
ATOM     10  O   UNL     1       2.288   5.351  21.075  0.00  0.00    +0.000 OA
ATOM     11  C   UNL     1       3.662   5.238  19.254  0.00  0.00    +0.000 A 
ENDROOT
BRANCH   1  18
ATOM     12  C   UNL     1       6.440   4.895  17.795  0.00  0.00    +0.000 A 
ATOM     13  C   UNL     1       7.408   4.386  16.924  0.00  0.00    +0.000 A 
ATOM     14  C   UNL     1       7.083   4.115  15.592  0.00  0.00    +0.000 A 
ATOM     15  C   UNL     1       5.784   4.330  15.136  0.00  0.00    +0.000 A 
ATOM     16 BR   UNL     1       5.362   3.980  13.326  0.00  0.00    +0.000 Br
ATOM     17  C   UNL     1       4.805   4.826  15.993  0.00  0.00    +0.000 A 
ATOM     18  C   UNL     1       5.130   5.123  17.325  0.00  0.00    +0.000 A 
BRANCH  12  20
ATOM     19  C   UNL     1       7.876   5.881  19.405  0.00  0.00    +0.000 C 
ATOM     20  O   UNL     1       6.675   5.174  19.118  0.00  0.00    +0.000 OA
ENDBRANCH  12  20
ENDBRANCH   1  18
BRANCH   7  21
ATOM     21  O   UNL     1       0.255   7.829  21.188  0.00  0.00    +0.000 OA
ATOM     22  C   UNL     1      -0.249   8.881  21.983  0.00  0.00    +0.000 C 
ENDBRANCH   7  21
BRANCH  11  23
ATOM     23  O   UNL     1       4.070   3.990  19.698  0.00  0.00    +0.000 OA
ATOM     24  H   UNL     1       4.466   4.165  20.579  0.00  0.00    +0.000 HD
ENDBRANCH  11  23
TORSDOF 4
ENDMDL
MODEL 3
REMARK VINA RESULT:      -7.0      1.283      2.618
REMARK  Name = 
REMARK  6 active torsions:
REMARK  status: ('A' for Active; 'I' for Inactive)
REMARK    1  A    between atoms: C_1  and  O_2
REMARK    2  A    between atoms: O_2  and  C_3
REMARK    3  A    between atoms: C_9  and  C_10
REMARK    4  A    between atoms: C_16  and  O_17
REMARK    5  A    between atoms: O_17  and  C_18
REMARK    6  A    between atoms: C_22  and  O_23
REMARK                            x       y       z     vdW  Elec       q    Type
REMARK                         _______ _______ _______ _____ _____    ______ ____
ROOT
ATOM      1  C   UNL     1       4.554   4.942  17.168  0.00  0.00    +0.000 A 
ATOM      2  O   UNL     1       4.327   3.890  18.022  0.00  0.00    +0.000 OA
ATOM      3  C   UNL     1       3.456   4.081  19.077  0.00  0.00    +0.000 A 
ATOM      4  C   UNL     1       3.328   2.961  19.908  0.00  0.00    +0.000 A 
ATOM      5  C   UNL     1       2.509   3.018  21.020  0.00  0.00    +0.000 A 
ATOM      6  C   UNL     1       1.824   4.198  21.294  0.00  0.00    +0.000 A 
ATOM      7  C   UNL     1       1.926   5.343  20.472  0.00  0.00    +0.000 A 
ATOM      8  C   UNL     1       2.747   5.280  19.329  0.00  0.00    +0.000 A 
ATOM      9  C   UNL     1       2.943   6.352  18.315  0.00  0.00    +0.000 A 
ATOM     10  O   UNL     1       2.366   7.431  18.263  0.00  0.00    +0.000 OA
ATOM     11  C   UNL     1       3.928   6.120  17.236  0.00  0.00    +0.000 A 
ENDROOT
BRANCH   1  18
ATOM     12  C   UNL     1       6.871   5.271  16.286  0.00  0.00    +0.000 A 
ATOM     13  C   UNL     1       7.775   5.210  15.221  0.00  0.00    +0.000 A 
ATOM     14  C   UNL     1       7.398   4.618  14.011  0.00  0.00    +0.000 A 
ATOM     15  C   UNL     1       6.126   4.066  13.874  0.00  0.00    +0.000 A 
ATOM     16 BR   UNL     1       5.622   3.287  12.227  0.00  0.00    +0.000 Br
ATOM     17  C   UNL     1       5.217   4.109  14.929  0.00  0.00    +0.000 A 
ATOM     18  C   UNL     1       5.580   4.722  16.137  0.00  0.00    +0.000 A 
BRANCH  12  20
ATOM     19  C   UNL     1       7.515   7.201  17.504  0.00  0.00    +0.000 C 
ATOM     20  O   UNL     1       7.166   5.822  17.507  0.00  0.00    +0.000 OA
ENDBRANCH  12  20
ENDBRANCH   1  18
BRANCH   7  21
ATOM     21  O   UNL     1       1.147   6.323  21.016  0.00  0.00    +0.000 OA
ATOM     22  C   UNL     1       1.594   7.644  21.233  0.00  0.00    +0.000 C 
ENDBRANCH   7  21
BRANCH  11  23
ATOM     23  O   UNL     1       4.139   7.156  16.339  0.00  0.00    +0.000 OA
ATOM     24  H   UNL     1       4.682   6.752  15.628  0.00  0.00    +0.000 HD
ENDBRANCH  11  23
TORSDOF 4
ENDMDL
MODEL 4
REMARK VINA RESULT:      -7.0      1.156      1.373
REMARK  Name = 
REMARK  6 active torsions:
REMARK  status: ('A' for Active; 'I' for Inactive)
REMARK    1  A    between atoms: C_1  and  O_2
REMARK    2  A    between atoms: O_2  and  C_3
REMARK    3  A    between atoms: C_9  and  C_10
REMARK    4  A    between atoms: C_16  and  O_17
REMARK    5  A    between atoms: O_17  and  C_18
REMARK    6  A    between atoms: C_22  and  O_23
REMARK                            x       y       z     vdW  Elec       q    Type
REMARK                         _______ _______ _______ _____ _____    ______ ____
ROOT
ATOM      1  C   UNL     1       4.801   4.823  16.482  0.00  0.00    +0.000 A 
ATOM      2  O   UNL     1       4.405   6.130  16.639  0.00  0.00    +0.000 OA
ATOM      3  C   UNL     1       3.588   6.441  17.709  0.00  0.00    +0.000 A 
ATOM      4  C   UNL     1       3.210   7.788  17.752  0.00  0.00    +0.000 A 
ATOM      5  C   UNL     1       2.370   8.237  18.755  0.00  0.00    +0.000 A 
ATOM      6  C   UNL     1       1.911   7.330  19.706  0.00  0.00    +0.000 A 
ATOM      7  C   UNL     1       2.278   5.966  19.693  0.00  0.00    +0.000 A 
ATOM      8  C   UNL     1       3.148   5.512  18.683  0.00  0.00    +0.000 A 
ATOM      9  C   UNL     1       3.692   4.135  18.529  0.00  0.00    +0.000 A 
ATOM     10  O   UNL     1       3.539   3.193  19.297  0.00  0.00    +0.000 OA
ATOM     11  C   UNL     1       4.517   3.839  17.338  0.00  0.00    +0.000 A 
ENDROOT
BRANCH   1  18
ATOM     12  C   UNL     1       6.899   4.974  15.130  0.00  0.00    +0.000 A 
ATOM     13  C   UNL     1       7.552   4.847  13.900  0.00  0.00    +0.000 A 
ATOM     14  C   UNL     1       6.886   4.292  12.803  0.00  0.00    +0.000 A 
ATOM     15  C   UNL     1       5.574   3.842  12.942  0.00  0.00    +0.000 A 
ATOM     16 BR   UNL     1       4.676   3.112  11.447  0.00  0.00    +0.000 Br
ATOM     17  C   UNL     1       4.913   3.951  14.163  0.00  0.00    +0.000 A 
ATOM     18  C   UNL     1       5.567   4.529  15.262  0.00  0.00    +0.000 A 
BRANCH  12  20
ATOM     19  C   UNL     1       7.813   4.562  17.279  0.00  0.00    +0.000 C 
ATOM     20  O   UNL     1       7.487   5.495  16.255  0.00  0.00    +0.000 OA
ENDBRANCH  12  20
ENDBRANCH   1  18
BRANCH   7  21
ATOM     21  O   UNL     1       1.658   5.352  20.743  0.00  0.00    +0.000 OA
ATOM     22  C   UNL     1       0.805   4.236  20.602  0.00  0.00    +0.000 C 
ENDBRANCH   7  21
BRANCH  11  23
ATOM     23  O   UNL     1       4.961   2.535  17.184  0.00  0.00    +0.000 OA
ATOM     24  H   UNL     1       4.999   2.406  16.212  0.00  0.00    +0.000 HD
ENDBRANCH  11  23
TORSDOF 4
ENDMDL
MODEL 5
REMARK VINA RESULT:      -6.9      2.798      6.934
REMARK  Name = 
REMARK  6 active torsions:
REMARK  status: ('A' for Active; 'I' for Inactive)
REMARK    1  A    between atoms: C_1  and  O_2
REMARK    2  A    between atoms: O_2  and  C_3
REMARK    3  A    between atoms: C_9  and  C_10
REMARK    4  A    between atoms: C_16  and  O_17
REMARK    5  A    between atoms: O_17  and  C_18
REMARK    6  A    between atoms: C_22  and  O_23
REMARK                            x       y       z     vdW  Elec       q    Type
REMARK                         _______ _______ _______ _____ _____    ______ ____
ROOT
ATOM      1  C   UNL     1       4.708   5.126  17.323  0.00  0.00    +0.000 A 
ATOM      2  O   UNL     1       4.415   4.359  16.221  0.00  0.00    +0.000 OA
ATOM      3  C   UNL     1       5.301   4.371  15.162  0.00  0.00    +0.000 A 
ATOM      4  C   UNL     1       4.887   3.590  14.076  0.00  0.00    +0.000 A 
ATOM      5  C   UNL     1       5.665   3.529  12.934  0.00  0.00    +0.000 A 
ATOM      6  C   UNL     1       6.851   4.256  12.886  0.00  0.00    +0.000 A 
ATOM      7  C   UNL     1       7.299   5.048  13.967  0.00  0.00    +0.000 A 
ATOM      8  C   UNL     1       6.517   5.096  15.138  0.00  0.00    +0.000 A 
ATOM      9  C   UNL     1       6.841   5.823  16.396  0.00  0.00    +0.000 A 
ATOM     10  O   UNL     1       7.874   6.431  16.649  0.00  0.00    +0.000 OA
ATOM     11  C   UNL     1       5.835   5.825  17.480  0.00  0.00    +0.000 A 
ENDROOT
BRANCH   1  18
ATOM     12  C   UNL     1       2.997   6.376  18.652  0.00  0.00    +0.000 A 
ATOM     13  C   UNL     1       2.152   6.448  19.763  0.00  0.00    +0.000 A 
ATOM     14  C   UNL     1       1.986   5.337  20.595  0.00  0.00    +0.000 A 
ATOM     15  C   UNL     1       2.646   4.145  20.302  0.00  0.00    +0.000 A 
ATOM     16 BR   UNL     1       2.429   2.655  21.445  0.00  0.00    +0.000 Br
ATOM     17  C   UNL     1       3.483   4.052  19.192  0.00  0.00    +0.000 A 
ATOM     18  C   UNL     1       3.673   5.171  18.367  0.00  0.00    +0.000 A 
BRANCH  12  20
ATOM     19  C   UNL     1       2.288   8.501  17.874  0.00  0.00    +0.000 C 
ATOM     20  O   UNL     1       3.204   7.416  17.781  0.00  0.00    +0.000 OA
ENDBRANCH  12  20
ENDBRANCH   1  18
BRANCH   7  21
ATOM     21  O   UNL     1       8.479   5.632  13.602  0.00  0.00    +0.000 OA
ATOM     22  C   UNL     1       8.723   6.158  12.316  0.00  0.00    +0.000 C 
ENDBRANCH   7  21
BRANCH  11  23
ATOM     23  O   UNL     1       6.132   6.560  18.617  0.00  0.00    +0.000 OA
ATOM     24  H   UNL     1       5.256   6.747  19.019  0.00  0.00    +0.000 HD
ENDBRANCH  11  23
TORSDOF 4
ENDMDL
MODEL 6
REMARK VINA RESULT:      -6.8      2.617      6.909
REMARK  Name = 
REMARK  6 active torsions:
REMARK  status: ('A' for Active; 'I' for Inactive)
REMARK    1  A    between atoms: C_1  and  O_2
REMARK    2  A    between atoms: O_2  and  C_3
REMARK    3  A    between atoms: C_9  and  C_10
REMARK    4  A    between atoms: C_16  and  O_17
REMARK    5  A    between atoms: O_17  and  C_18
REMARK    6  A    between atoms: C_22  and  O_23
REMARK                            x       y       z     vdW  Elec       q    Type
REMARK                         _______ _______ _______ _____ _____    ______ ____
ROOT
ATOM      1  C   UNL     1       4.818   4.763  17.924  0.00  0.00    +0.000 A 
ATOM      2  O   UNL     1       4.387   4.177  16.758  0.00  0.00    +0.000 OA
ATOM      3  C   UNL     1       5.187   4.286  15.637  0.00  0.00    +0.000 A 
ATOM      4  C   UNL     1       4.636   3.691  14.496  0.00  0.00    +0.000 A 
ATOM      5  C   UNL     1       5.316   3.746  13.293  0.00  0.00    +0.000 A 
ATOM      6  C   UNL     1       6.543   4.401  13.241  0.00  0.00    +0.000 A 
ATOM      7  C   UNL     1       7.129   5.005  14.376  0.00  0.00    +0.000 A 
ATOM      8  C   UNL     1       6.445   4.934  15.606  0.00  0.00    +0.000 A 
ATOM      9  C   UNL     1       6.916   5.457  16.918  0.00  0.00    +0.000 A 
ATOM     10  O   UNL     1       8.005   5.961  17.160  0.00  0.00    +0.000 OA
ATOM     11  C   UNL     1       6.000   5.366  18.075  0.00  0.00    +0.000 A 
ENDROOT
BRANCH   1  18
ATOM     12  C   UNL     1       3.520   3.490  19.641  0.00  0.00    +0.000 A 
ATOM     13  C   UNL     1       2.488   3.447  20.584  0.00  0.00    +0.000 A 
ATOM     14  C   UNL     1       1.802   4.614  20.931  0.00  0.00    +0.000 A 
ATOM     15  C   UNL     1       2.163   5.830  20.353  0.00  0.00    +0.000 A 
ATOM     16 BR   UNL     1       1.214   7.399  20.815  0.00  0.00    +0.000 Br
ATOM     17  C   UNL     1       3.196   5.893  19.421  0.00  0.00    +0.000 A 
ATOM     18  C   UNL     1       3.873   4.721  19.050  0.00  0.00    +0.000 A 
BRANCH  12  20
ATOM     19  C   UNL     1       3.534   1.377  18.565  0.00  0.00    +0.000 C 
ATOM     20  O   UNL     1       4.249   2.394  19.257  0.00  0.00    +0.000 OA
ENDBRANCH  12  20
ENDBRANCH   1  18
BRANCH   7  21
ATOM     21  O   UNL     1       8.314   5.564  13.993  0.00  0.00    +0.000 OA
ATOM     22  C   UNL     1       8.610   5.929  12.662  0.00  0.00    +0.000 C 
ENDBRANCH   7  21
BRANCH  11  23
ATOM     23  O   UNL     1       6.435   5.915  19.271  0.00  0.00    +0.000 OA
ATOM     24  H   UNL     1       7.314   5.503  19.420  0.00  0.00    +0.000 HD
ENDBRANCH  11  23
TORSDOF 4
ENDMDL
MODEL 7
REMARK VINA RESULT:      -6.8      3.594      6.020
REMARK  Name = 
REMARK  6 active torsions:
REMARK  status: ('A' for Active; 'I' for Inactive)
REMARK    1  A    between atoms: C_1  and  O_2
REMARK    2  A    between atoms: O_2  and  C_3
REMARK    3  A    between atoms: C_9  and  C_10
REMARK    4  A    between atoms: C_16  and  O_17
REMARK    5  A    between atoms: O_17  and  C_18
REMARK    6  A    between atoms: C_22  and  O_23
REMARK                            x       y       z     vdW  Elec       q    Type
REMARK                         _______ _______ _______ _____ _____    ______ ____
ROOT
ATOM      1  C   UNL     1       2.543   7.135  19.116  0.00  0.00    +0.000 A 
ATOM      2  O   UNL     1       1.943   7.255  20.347  0.00  0.00    +0.000 OA
ATOM      3  C   UNL     1       1.268   8.426  20.633  0.00  0.00    +0.000 A 
ATOM      4  C   UNL     1       0.731   8.461  21.926  0.00  0.00    +0.000 A 
ATOM      5  C   UNL     1       0.050   9.584  22.359  0.00  0.00    +0.000 A 
ATOM      6  C   UNL     1      -0.085  10.666  21.495  0.00  0.00    +0.000 A 
ATOM      7  C   UNL     1       0.440  10.660  20.183  0.00  0.00    +0.000 A 
ATOM      8  C   UNL     1       1.118   9.509  19.734  0.00  0.00    +0.000 A 
ATOM      9  C   UNL     1       1.691   9.286  18.378  0.00  0.00    +0.000 A 
ATOM     10  O   UNL     1       1.599  10.029  17.409  0.00  0.00    +0.000 OA
ATOM     11  C   UNL     1       2.452   8.041  18.139  0.00  0.00    +0.000 A 
ENDROOT
BRANCH   1  18
ATOM     12  C   UNL     1       2.796   4.647  19.155  0.00  0.00    +0.000 A 
ATOM     13  C   UNL     1       3.623   3.520  19.133  0.00  0.00    +0.000 A 
ATOM     14  C   UNL     1       4.991   3.655  18.884  0.00  0.00    +0.000 A 
ATOM     15  C   UNL     1       5.530   4.915  18.631  0.00  0.00    +0.000 A 
ATOM     16 BR   UNL     1       7.387   5.088  18.314  0.00  0.00    +0.000 Br
ATOM     17  C   UNL     1       4.719   6.048  18.638  0.00  0.00    +0.000 A 
ATOM     18  C   UNL     1       3.349   5.922  18.911  0.00  0.00    +0.000 A 
BRANCH  12  20
ATOM     19  C   UNL     1       1.014   3.737  20.427  0.00  0.00    +0.000 C 
ATOM     20  O   UNL     1       1.443   4.598  19.379  0.00  0.00    +0.000 OA
ENDBRANCH  12  20
ENDBRANCH   1  18
BRANCH   7  21
ATOM     21  O   UNL     1       0.148  11.862  19.605  0.00  0.00    +0.000 OA
ATOM     22  C   UNL     1      -0.973  12.077  18.775  0.00  0.00    +0.000 C 
ENDBRANCH   7  21
BRANCH  11  23
ATOM     23  O   UNL     1       3.030   7.883  16.889  0.00  0.00    +0.000 OA
ATOM     24  H   UNL     1       3.240   6.925  16.839  0.00  0.00    +0.000 HD
ENDBRANCH  11  23
TORSDOF 4
ENDMDL
MODEL 8
REMARK VINA RESULT:      -6.8      5.073      8.245
REMARK  Name = 
REMARK  6 active torsions:
REMARK  status: ('A' for Active; 'I' for Inactive)
REMARK    1  A    between atoms: C_1  and  O_2
REMARK    2  A    between atoms: O_2  and  C_3
REMARK    3  A    between atoms: C_9  and  C_10
REMARK    4  A    between atoms: C_16  and  O_17
REMARK    5  A    between atoms: O_17  and  C_18
REMARK    6  A    between atoms: C_22  and  O_23
REMARK                            x       y       z     vdW  Elec       q    Type
REMARK                         _______ _______ _______ _____ _____    ______ ____
ROOT
ATOM      1  C   UNL     1       1.183   9.466  19.407  0.00  0.00    +0.000 A 
ATOM      2  O   UNL     1       1.125   8.440  20.319  0.00  0.00    +0.000 OA
ATOM      3  C   UNL     1       1.741   7.246  19.999  0.00  0.00    +0.000 A 
ATOM      4  C   UNL     1       1.587   6.256  20.978  0.00  0.00    +0.000 A 
ATOM      5  C   UNL     1       2.130   5.000  20.779  0.00  0.00    +0.000 A 
ATOM      6  C   UNL     1       2.821   4.742  19.599  0.00  0.00    +0.000 A 
ATOM      7  C   UNL     1       3.000   5.721  18.595  0.00  0.00    +0.000 A 
ATOM      8  C   UNL     1       2.462   7.007  18.804  0.00  0.00    +0.000 A 
ATOM      9  C   UNL     1       2.588   8.182  17.900  0.00  0.00    +0.000 A 
ATOM     10  O   UNL     1       3.243   8.249  16.867  0.00  0.00    +0.000 OA
ATOM     11  C   UNL     1       1.864   9.420  18.259  0.00  0.00    +0.000 A 
ENDROOT
BRANCH   1  18
ATOM     12  C   UNL     1      -0.886  10.859  19.217  0.00  0.00    +0.000 A 
ATOM     13  C   UNL     1      -1.534  12.084  19.398  0.00  0.00    +0.000 A 
ATOM     14  C   UNL     1      -0.900  13.121  20.089  0.00  0.00    +0.000 A 
ATOM     15  C   UNL     1       0.373  12.924  20.621  0.00  0.00    +0.000 A 
ATOM     16 BR   UNL     1       1.229  14.340  21.537  0.00  0.00    +0.000 Br
ATOM     17  C   UNL     1       1.029  11.706  20.460  0.00  0.00    +0.000 A 
ATOM     18  C   UNL     1       0.408  10.669  19.746  0.00  0.00    +0.000 A 
BRANCH  12  20
ATOM     19  C   UNL     1      -1.911  10.039  17.242  0.00  0.00    +0.000 C 
ATOM     20  O   UNL     1      -1.444   9.790  18.562  0.00  0.00    +0.000 OA
ENDBRANCH  12  20
ENDBRANCH   1  18
BRANCH   7  21
ATOM     21  O   UNL     1       3.705   5.154  17.573  0.00  0.00    +0.000 OA
ATOM     22  C   UNL     1       3.628   3.786  17.237  0.00  0.00    +0.000 C 
ENDBRANCH   7  21
BRANCH  11  23
ATOM     23  O   UNL     1       1.945  10.481  17.371  0.00  0.00    +0.000 OA
ATOM     24  H   UNL     1       2.681  11.030  17.717  0.00  0.00    +0.000 HD
ENDBRANCH  11  23
TORSDOF 4
ENDMDL
MODEL 9
REMARK VINA RESULT:      -6.8      1.577      2.840
REMARK  Name = 
REMARK  6 active torsions:
REMARK  status: ('A' for Active; 'I' for Inactive)
REMARK    1  A    between atoms: C_1  and  O_2
REMARK    2  A    between atoms: O_2  and  C_3
REMARK    3  A    between atoms: C_9  and  C_10
REMARK    4  A    between atoms: C_16  and  O_17
REMARK    5  A    between atoms: O_17  and  C_18
REMARK    6  A    between atoms: C_22  and  O_23
REMARK                            x       y       z     vdW  Elec       q    Type
REMARK                         _______ _______ _______ _____ _____    ______ ____
ROOT
ATOM      1  C   UNL     1       4.593   5.213  16.516  0.00  0.00    +0.000 A 
ATOM      2  O   UNL     1       4.058   4.261  17.349  0.00  0.00    +0.000 OA
ATOM      3  C   UNL     1       3.332   4.685  18.445  0.00  0.00    +0.000 A 
ATOM      4  C   UNL     1       2.868   3.637  19.250  0.00  0.00    +0.000 A 
ATOM      5  C   UNL     1       2.147   3.916  20.396  0.00  0.00    +0.000 A 
ATOM      6  C   UNL     1       1.900   5.243  20.733  0.00  0.00    +0.000 A 
ATOM      7  C   UNL     1       2.349   6.323  19.939  0.00  0.00    +0.000 A 
ATOM      8  C   UNL     1       3.067   6.040  18.760  0.00  0.00    +0.000 A 
ATOM      9  C   UNL     1       3.575   7.027  17.769  0.00  0.00    +0.000 A 
ATOM     10  O   UNL     1       3.385   8.237  17.771  0.00  0.00    +0.000 OA
ATOM     11  C   UNL     1       4.394   6.528  16.643  0.00  0.00    +0.000 A 
ENDROOT
BRANCH   1  18
ATOM     12  C   UNL     1       6.842   4.972  15.449  0.00  0.00    +0.000 A 
ATOM     13  C   UNL     1       7.618   4.647  14.332  0.00  0.00    +0.000 A 
ATOM     14  C   UNL     1       7.022   4.075  13.204  0.00  0.00    +0.000 A 
ATOM     15  C   UNL     1       5.655   3.806  13.202  0.00  0.00    +0.000 A 
ATOM     16 BR   UNL     1       4.856   3.052  11.663  0.00  0.00    +0.000 Br
ATOM     17  C   UNL     1       4.869   4.113  14.311  0.00  0.00    +0.000 A 
ATOM     18  C   UNL     1       5.457   4.709  15.437  0.00  0.00    +0.000 A 
BRANCH  12  20
ATOM     19  C   UNL     1       7.716   4.606  17.623  0.00  0.00    +0.000 C 
ATOM     20  O   UNL     1       7.352   5.523  16.598  0.00  0.00    +0.000 OA
ENDBRANCH  12  20
ENDBRANCH   1  18
BRANCH   7  21
ATOM     21  O   UNL     1       1.955   7.483  20.542  0.00  0.00    +0.000 OA
ATOM     22  C   UNL     1       0.740   7.622  21.246  0.00  0.00    +0.000 C 
ENDBRANCH   7  21
BRANCH  11  23
ATOM     23  O   UNL     1       4.908   7.471  15.767  0.00  0.00    +0.000 OA
ATOM     24  H   UNL     1       4.339   7.396  14.971  0.00  0.00    +0.000 HD
ENDBRANCH  11  23
TORSDOF 4
ENDMDL
