MODEL 1
REMARK VINA RESULT:      -7.3      0.000      0.000
REMARK  Name = 
REMARK  4 active torsions:
REMARK  status: ('A' for Active; 'I' for Inactive)
REMARK    1  A    between atoms: C_2  and  C_3
REMARK    2  A    between atoms: C_2  and  C_9
REMARK    3  A    between atoms: C_16  and  C_17
REMARK    4  A    between atoms: C_17  and  O_19
REMARK                            x       y       z     vdW  Elec       q    Type
REMARK                         _______ _______ _______ _____ _____    ______ ____
ROOT
ATOM      1  C   UNL     1       5.446   5.310  17.027  0.00  0.00    +0.000 A 
ATOM      2  C   UNL     1       6.150   5.690  18.183  0.00  0.00    +0.000 A 
ATOM      3  C   UNL     1       5.527   5.114  19.337  0.00  0.00    +0.000 A 
ATOM      4  C   UNL     1       4.520   4.317  18.874  0.00  0.00    +0.000 A 
ATOM      5  N   UNL     1       4.439   4.504  17.518  0.00  0.00    +0.000 N 
ATOM      6  C   UNL     1       3.330   3.743  16.948  0.00  0.00    +0.000 C 
ATOM      7  C   UNL     1       3.069   2.664  18.028  0.00  0.00    +0.000 C 
ATOM      8  C   UNL     1       3.500   3.335  19.358  0.00  0.00    +0.000 C 
ENDROOT
BRANCH   1  10
ATOM      9  O   UNL     1       5.185   6.827  15.325  0.00  0.00    +0.000 OA
ATOM     10  C   UNL     1       5.570   5.694  15.612  0.00  0.00    +0.000 C 
BRANCH  10  11
ATOM     11  C   UNL     1       6.033   4.859  14.421  0.00  0.00    +0.000 A 
ATOM     12  C   UNL     1       7.264   5.274  13.850  0.00  0.00    +0.000 A 
ATOM     13  C   UNL     1       7.759   4.769  12.639  0.00  0.00    +0.000 A 
ATOM     14  C   UNL     1       7.041   3.811  11.952  0.00  0.00    +0.000 A 
ATOM     15  C   UNL     1       5.841   3.342  12.497  0.00  0.00    +0.000 A 
ATOM     16  C   UNL     1       5.340   3.862  13.730  0.00  0.00    +0.000 A 
ENDBRANCH  10  11
ENDBRANCH   1  10
BRANCH   8  17
ATOM     17  C   UNL     1       4.114   2.352  20.345  0.00  0.00    +0.000 C 
ATOM     18  O   UNL     1       3.718   2.159  21.486  0.00  0.00    +0.000 OA
BRANCH  17  19
ATOM     19  O   UNL     1       5.161   1.659  19.830  0.00  0.00    +0.000 OA
ATOM     20  H   UNL     1       5.467   0.918  20.387  0.00  0.00    +0.000 HD
ENDBRANCH  17  19
ENDBRANCH   8  17
TORSDOF 4
ENDMDL
MODEL 2
REMARK VINA RESULT:      -7.3      2.819      6.325
REMARK  Name = 
REMARK  4 active torsions:
REMARK  status: ('A' for Active; 'I' for Inactive)
REMARK    1  A    between atoms: C_2  and  C_3
REMARK    2  A    between atoms: C_2  and  C_9
REMARK    3  A    between atoms: C_16  and  C_17
REMARK    4  A    between atoms: C_17  and  O_19
REMARK                            x       y       z     vdW  Elec       q    Type
REMARK                         _______ _______ _______ _____ _____    ______ ____
ROOT
ATOM      1  C   UNL     1       3.599   6.452  18.158  0.00  0.00    +0.000 A 
ATOM      2  C   UNL     1       3.555   7.251  17.002  0.00  0.00    +0.000 A 
ATOM      3  C   UNL     1       4.802   7.156  16.303  0.00  0.00    +0.000 A 
ATOM      4  C   UNL     1       5.551   6.235  16.978  0.00  0.00    +0.000 A 
ATOM      5  N   UNL     1       4.857   5.888  18.108  0.00  0.00    +0.000 N 
ATOM      6  C   UNL     1       5.626   4.959  18.932  0.00  0.00    +0.000 C 
ATOM      7  C   UNL     1       6.643   4.373  17.923  0.00  0.00    +0.000 C 
ATOM      8  C   UNL     1       6.854   5.505  16.884  0.00  0.00    +0.000 C 
ENDROOT
BRANCH   1  10
ATOM      9  O   UNL     1       2.395   7.276  19.931  0.00  0.00    +0.000 OA
ATOM     10  C   UNL     1       2.663   6.268  19.278  0.00  0.00    +0.000 C 
BRANCH  10  11
ATOM     11  C   UNL     1       2.032   4.982  19.808  0.00  0.00    +0.000 A 
ATOM     12  C   UNL     1       2.382   4.659  21.145  0.00  0.00    +0.000 A 
ATOM     13  C   UNL     1       2.071   3.430  21.745  0.00  0.00    +0.000 A 
ATOM     14  C   UNL     1       1.381   2.473  21.029  0.00  0.00    +0.000 A 
ATOM     15  C   UNL     1       0.981   2.763  19.720  0.00  0.00    +0.000 A 
ATOM     16  C   UNL     1       1.303   4.016  19.112  0.00  0.00    +0.000 A 
ENDBRANCH  10  11
ENDBRANCH   1  10
BRANCH   8  17
ATOM     17  C   UNL     1       7.086   4.979  15.474  0.00  0.00    +0.000 C 
ATOM     18  O   UNL     1       7.829   5.486  14.646  0.00  0.00    +0.000 OA
BRANCH  17  19
ATOM     19  O   UNL     1       6.395   3.842  15.207  0.00  0.00    +0.000 OA
ATOM     20  H   UNL     1       6.927   3.025  15.257  0.00  0.00    +0.000 HD
ENDBRANCH  17  19
ENDBRANCH   8  17
TORSDOF 4
ENDMDL
MODEL 3
REMARK VINA RESULT:      -7.3      2.018      3.126
REMARK  Name = 
REMARK  4 active torsions:
REMARK  status: ('A' for Active; 'I' for Inactive)
REMARK    1  A    between atoms: C_2  and  C_3
REMARK    2  A    between atoms: C_2  and  C_9
REMARK    3  A    between atoms: C_16  and  C_17
REMARK    4  A    between atoms: C_17  and  O_19
REMARK                            x       y       z     vdW  Elec       q    Type
REMARK                         _______ _______ _______ _____ _____    ______ ____
ROOT
ATOM      1  C   UNL     1       3.111   6.026  18.850  0.00  0.00    +0.000 A 
ATOM      2  C   UNL     1       2.452   6.633  19.934  0.00  0.00    +0.000 A 
ATOM      3  C   UNL     1       1.673   5.655  20.633  0.00  0.00    +0.000 A 
ATOM      4  C   UNL     1       1.937   4.455  20.036  0.00  0.00    +0.000 A 
ATOM      5  N   UNL     1       2.725   4.705  18.943  0.00  0.00    +0.000 N 
ATOM      6  C   UNL     1       2.994   3.477  18.198  0.00  0.00    +0.000 C 
ATOM      7  C   UNL     1       2.715   2.375  19.249  0.00  0.00    +0.000 C 
ATOM      8  C   UNL     1       1.646   2.995  20.186  0.00  0.00    +0.000 C 
ENDROOT
BRANCH   1  10
ATOM      9  O   UNL     1       3.531   7.610  17.244  0.00  0.00    +0.000 OA
ATOM     10  C   UNL     1       3.931   6.564  17.754  0.00  0.00    +0.000 C 
BRANCH  10  11
ATOM     11  C   UNL     1       5.173   5.969  17.094  0.00  0.00    +0.000 A 
ATOM     12  C   UNL     1       5.117   5.906  15.678  0.00  0.00    +0.000 A 
ATOM     13  C   UNL     1       6.062   5.219  14.901  0.00  0.00    +0.000 A 
ATOM     14  C   UNL     1       7.114   4.573  15.516  0.00  0.00    +0.000 A 
ATOM     15  C   UNL     1       7.232   4.640  16.908  0.00  0.00    +0.000 A 
ATOM     16  C   UNL     1       6.265   5.340  17.695  0.00  0.00    +0.000 A 
ENDBRANCH  10  11
ENDBRANCH   1  10
BRANCH   8  17
ATOM     17  C   UNL     1       1.801   2.553  21.635  0.00  0.00    +0.000 C 
ATOM     18  O   UNL     1       0.884   2.423  22.434  0.00  0.00    +0.000 OA
BRANCH  17  19
ATOM     19  O   UNL     1       3.085   2.278  21.976  0.00  0.00    +0.000 OA
ATOM     20  H   UNL     1       3.180   1.660  22.726  0.00  0.00    +0.000 HD
ENDBRANCH  17  19
ENDBRANCH   8  17
TORSDOF 4
ENDMDL
MODEL 4
REMARK VINA RESULT:      -7.2      1.860      2.371
REMARK  Name = 
REMARK  4 active torsions:
REMARK  status: ('A' for Active; 'I' for Inactive)
REMARK    1  A    between atoms: C_2  and  C_3
REMARK    2  A    between atoms: C_2  and  C_9
REMARK    3  A    between atoms: C_16  and  C_17
REMARK    4  A    between atoms: C_17  and  O_19
REMARK                            x       y       z     vdW  Elec       q    Type
REMARK                         _______ _______ _______ _____ _____    ______ ____
ROOT
ATOM      1  C   UNL     1       5.066   5.157  16.926  0.00  0.00    +0.000 A 
ATOM      2  C   UNL     1       4.523   6.416  17.239  0.00  0.00    +0.000 A 
ATOM      3  C   UNL     1       3.243   6.248  17.859  0.00  0.00    +0.000 A 
ATOM      4  C   UNL     1       3.061   4.903  18.006  0.00  0.00    +0.000 A 
ATOM      5  N   UNL     1       4.109   4.275  17.384  0.00  0.00    +0.000 N 
ATOM      6  C   UNL     1       3.953   2.823  17.427  0.00  0.00    +0.000 C 
ATOM      7  C   UNL     1       2.961   2.624  18.599  0.00  0.00    +0.000 C 
ATOM      8  C   UNL     1       2.108   3.919  18.610  0.00  0.00    +0.000 C 
ENDROOT
BRANCH   1  10
ATOM      9  O   UNL     1       7.242   4.429  16.884  0.00  0.00    +0.000 OA
ATOM     10  C   UNL     1       6.274   4.746  16.194  0.00  0.00    +0.000 C 
BRANCH  10  11
ATOM     11  C   UNL     1       6.534   4.733  14.689  0.00  0.00    +0.000 A 
ATOM     12  C   UNL     1       5.751   3.800  13.961  0.00  0.00    +0.000 A 
ATOM     13  C   UNL     1       5.977   3.495  12.611  0.00  0.00    +0.000 A 
ATOM     14  C   UNL     1       6.996   4.126  11.927  0.00  0.00    +0.000 A 
ATOM     15  C   UNL     1       7.769   5.083  12.593  0.00  0.00    +0.000 A 
ATOM     16  C   UNL     1       7.536   5.388  13.970  0.00  0.00    +0.000 A 
ENDBRANCH  10  11
ENDBRANCH   1  10
BRANCH   8  17
ATOM     17  C   UNL     1       1.697   4.346  20.012  0.00  0.00    +0.000 C 
ATOM     18  O   UNL     1       2.379   5.019  20.772  0.00  0.00    +0.000 OA
BRANCH  17  19
ATOM     19  O   UNL     1       0.453   3.926  20.356  0.00  0.00    +0.000 OA
ATOM     20  H   UNL     1      -0.254   4.576  20.183  0.00  0.00    +0.000 HD
ENDBRANCH  17  19
ENDBRANCH   8  17
TORSDOF 4
ENDMDL
MODEL 5
REMARK VINA RESULT:      -7.1      1.824      2.061
REMARK  Name = 
REMARK  4 active torsions:
REMARK  status: ('A' for Active; 'I' for Inactive)
REMARK    1  A    between atoms: C_2  and  C_3
REMARK    2  A    between atoms: C_2  and  C_9
REMARK    3  A    between atoms: C_16  and  C_17
REMARK    4  A    between atoms: C_17  and  O_19
REMARK                            x       y       z     vdW  Elec       q    Type
REMARK                         _______ _______ _______ _____ _____    ______ ____
ROOT
ATOM      1  C   UNL     1       5.265   5.360  16.884  0.00  0.00    +0.000 A 
ATOM      2  C   UNL     1       4.714   6.631  17.127  0.00  0.00    +0.000 A 
ATOM      3  C   UNL     1       3.431   6.489  17.747  0.00  0.00    +0.000 A 
ATOM      4  C   UNL     1       3.254   5.153  17.964  0.00  0.00    +0.000 A 
ATOM      5  N   UNL     1       4.309   4.499  17.382  0.00  0.00    +0.000 N 
ATOM      6  C   UNL     1       4.159   3.050  17.501  0.00  0.00    +0.000 C 
ATOM      7  C   UNL     1       3.161   2.908  18.676  0.00  0.00    +0.000 C 
ATOM      8  C   UNL     1       2.302   4.198  18.612  0.00  0.00    +0.000 C 
ENDROOT
BRANCH   1  10
ATOM      9  O   UNL     1       7.522   4.949  16.835  0.00  0.00    +0.000 OA
ATOM     10  C   UNL     1       6.479   4.918  16.182  0.00  0.00    +0.000 C 
BRANCH  10  11
ATOM     11  C   UNL     1       6.655   4.498  14.724  0.00  0.00    +0.000 A 
ATOM     12  C   UNL     1       7.602   5.266  13.998  0.00  0.00    +0.000 A 
ATOM     13  C   UNL     1       7.764   5.172  12.607  0.00  0.00    +0.000 A 
ATOM     14  C   UNL     1       6.986   4.289  11.886  0.00  0.00    +0.000 A 
ATOM     15  C   UNL     1       6.066   3.483  12.565  0.00  0.00    +0.000 A 
ATOM     16  C   UNL     1       5.903   3.585  13.981  0.00  0.00    +0.000 A 
ENDBRANCH  10  11
ENDBRANCH   1  10
BRANCH   8  17
ATOM     17  C   UNL     1       1.880   4.696  19.988  0.00  0.00    +0.000 C 
ATOM     18  O   UNL     1       0.756   4.593  20.460  0.00  0.00    +0.000 OA
BRANCH  17  19
ATOM     19  O   UNL     1       2.895   5.263  20.687  0.00  0.00    +0.000 OA
ATOM     20  H   UNL     1       2.608   5.864  21.400  0.00  0.00    +0.000 HD
ENDBRANCH  17  19
ENDBRANCH   8  17
TORSDOF 4
ENDMDL
MODEL 6
REMARK VINA RESULT:      -7.1      2.744      6.278
REMARK  Name = 
REMARK  4 active torsions:
REMARK  status: ('A' for Active; 'I' for Inactive)
REMARK    1  A    between atoms: C_2  and  C_3
REMARK    2  A    between atoms: C_2  and  C_9
REMARK    3  A    between atoms: C_16  and  C_17
REMARK    4  A    between atoms: C_17  and  O_19
REMARK                            x       y       z     vdW  Elec       q    Type
REMARK                         _______ _______ _______ _____ _____    ______ ____
ROOT
ATOM      1  C   UNL     1       4.061   6.110  17.586  0.00  0.00    +0.000 A 
ATOM      2  C   UNL     1       4.865   7.241  17.360  0.00  0.00    +0.000 A 
ATOM      3  C   UNL     1       6.076   6.847  16.705  0.00  0.00    +0.000 A 
ATOM      4  C   UNL     1       5.959   5.511  16.451  0.00  0.00    +0.000 A 
ATOM      5  N   UNL     1       4.800   5.080  17.043  0.00  0.00    +0.000 N 
ATOM      6  C   UNL     1       4.635   3.637  16.886  0.00  0.00    +0.000 C 
ATOM      7  C   UNL     1       5.557   3.320  15.683  0.00  0.00    +0.000 C 
ATOM      8  C   UNL     1       6.673   4.394  15.756  0.00  0.00    +0.000 C 
ENDROOT
BRANCH   1  10
ATOM      9  O   UNL     1       1.945   6.795  18.155  0.00  0.00    +0.000 OA
ATOM     10  C   UNL     1       2.793   5.916  18.307  0.00  0.00    +0.000 C 
BRANCH  10  11
ATOM     11  C   UNL     1       2.400   4.817  19.292  0.00  0.00    +0.000 A 
ATOM     12  C   UNL     1       1.455   3.884  18.791  0.00  0.00    +0.000 A 
ATOM     13  C   UNL     1       0.821   2.925  19.594  0.00  0.00    +0.000 A 
ATOM     14  C   UNL     1       1.120   2.853  20.940  0.00  0.00    +0.000 A 
ATOM     15  C   UNL     1       2.075   3.727  21.470  0.00  0.00    +0.000 A 
ATOM     16  C   UNL     1       2.716   4.704  20.647  0.00  0.00    +0.000 A 
ENDBRANCH  10  11
ENDBRANCH   1  10
BRANCH   8  17
ATOM     17  C   UNL     1       7.165   4.831  14.383  0.00  0.00    +0.000 C 
ATOM     18  O   UNL     1       8.059   5.640  14.179  0.00  0.00    +0.000 OA
BRANCH  17  19
ATOM     19  O   UNL     1       6.525   4.207  13.362  0.00  0.00    +0.000 OA
ATOM     20  H   UNL     1       6.903   3.341  13.118  0.00  0.00    +0.000 HD
ENDBRANCH  17  19
ENDBRANCH   8  17
TORSDOF 4
ENDMDL
MODEL 7
REMARK VINA RESULT:      -7.1      2.772      6.412
REMARK  Name = 
REMARK  4 active torsions:
REMARK  status: ('A' for Active; 'I' for Inactive)
REMARK    1  A    between atoms: C_2  and  C_3
REMARK    2  A    between atoms: C_2  and  C_9
REMARK    3  A    between atoms: C_16  and  C_17
REMARK    4  A    between atoms: C_17  and  O_19
REMARK                            x       y       z     vdW  Elec       q    Type
REMARK                         _______ _______ _______ _____ _____    ______ ____
ROOT
ATOM      1  C   UNL     1       3.724   6.394  18.120  0.00  0.00    +0.000 A 
ATOM      2  C   UNL     1       3.607   7.185  16.963  0.00  0.00    +0.000 A 
ATOM      3  C   UNL     1       4.825   7.123  16.213  0.00  0.00    +0.000 A 
ATOM      4  C   UNL     1       5.630   6.228  16.858  0.00  0.00    +0.000 A 
ATOM      5  N   UNL     1       4.995   5.867  18.018  0.00  0.00    +0.000 N 
ATOM      6  C   UNL     1       5.825   4.965  18.813  0.00  0.00    +0.000 C 
ATOM      7  C   UNL     1       6.816   4.404  17.763  0.00  0.00    +0.000 C 
ATOM      8  C   UNL     1       6.948   5.536  16.712  0.00  0.00    +0.000 C 
ENDROOT
BRANCH   1  10
ATOM      9  O   UNL     1       2.453   7.205  19.851  0.00  0.00    +0.000 OA
ATOM     10  C   UNL     1       2.843   6.187  19.280  0.00  0.00    +0.000 C 
BRANCH  10  11
ATOM     11  C   UNL     1       2.402   4.881  19.938  0.00  0.00    +0.000 A 
ATOM     12  C   UNL     1       1.540   4.081  19.144  0.00  0.00    +0.000 A 
ATOM     13  C   UNL     1       0.870   2.951  19.636  0.00  0.00    +0.000 A 
ATOM     14  C   UNL     1       1.048   2.567  20.950  0.00  0.00    +0.000 A 
ATOM     15  C   UNL     1       1.919   3.304  21.759  0.00  0.00    +0.000 A 
ATOM     16  C   UNL     1       2.597   4.456  21.253  0.00  0.00    +0.000 A 
ENDBRANCH  10  11
ENDBRANCH   1  10
BRANCH   8  17
ATOM     17  C   UNL     1       7.135   5.010  15.295  0.00  0.00    +0.000 C 
ATOM     18  O   UNL     1       7.834   5.530  14.437  0.00  0.00    +0.000 OA
BRANCH  17  19
ATOM     19  O   UNL     1       6.459   3.858  15.059  0.00  0.00    +0.000 OA
ATOM     20  H   UNL     1       5.843   3.598  15.771  0.00  0.00    +0.000 HD
ENDBRANCH  17  19
ENDBRANCH   8  17
TORSDOF 4
ENDMDL
MODEL 8
REMARK VINA RESULT:      -7.0      2.818      6.102
REMARK  Name = 
REMARK  4 active torsions:
REMARK  status: ('A' for Active; 'I' for Inactive)
REMARK    1  A    between atoms: C_2  and  C_3
REMARK    2  A    between atoms: C_2  and  C_9
REMARK    3  A    between atoms: C_16  and  C_17
REMARK    4  A    between atoms: C_17  and  O_19
REMARK                            x       y       z     vdW  Elec       q    Type
REMARK                         _______ _______ _______ _____ _____    ______ ____
ROOT
ATOM      1  C   UNL     1       3.977   6.272  17.679  0.00  0.00    +0.000 A 
ATOM      2  C   UNL     1       4.890   7.328  17.505  0.00  0.00    +0.000 A 
ATOM      3  C   UNL     1       6.086   6.834  16.891  0.00  0.00    +0.000 A 
ATOM      4  C   UNL     1       5.858   5.517  16.609  0.00  0.00    +0.000 A 
ATOM      5  N   UNL     1       4.642   5.186  17.147  0.00  0.00    +0.000 N 
ATOM      6  C   UNL     1       4.352   3.767  16.958  0.00  0.00    +0.000 C 
ATOM      7  C   UNL     1       5.289   3.384  15.786  0.00  0.00    +0.000 C 
ATOM      8  C   UNL     1       6.495   4.350  15.923  0.00  0.00    +0.000 C 
ENDROOT
BRANCH   1  10
ATOM      9  O   UNL     1       1.995   7.215  18.349  0.00  0.00    +0.000 OA
ATOM     10  C   UNL     1       2.669   6.185  18.346  0.00  0.00    +0.000 C 
BRANCH  10  11
ATOM     11  C   UNL     1       2.052   5.019  19.114  0.00  0.00    +0.000 A 
ATOM     12  C   UNL     1       2.386   4.976  20.493  0.00  0.00    +0.000 A 
ATOM     13  C   UNL     1       2.086   3.885  21.323  0.00  0.00    +0.000 A 
ATOM     14  C   UNL     1       1.424   2.791  20.803  0.00  0.00    +0.000 A 
ATOM     15  C   UNL     1       1.040   2.806  19.459  0.00  0.00    +0.000 A 
ATOM     16  C   UNL     1       1.350   3.919  18.617  0.00  0.00    +0.000 A 
ENDBRANCH  10  11
ENDBRANCH   1  10
BRANCH   8  17
ATOM     17  C   UNL     1       7.080   4.759  14.578  0.00  0.00    +0.000 C 
ATOM     18  O   UNL     1       8.006   5.542  14.422  0.00  0.00    +0.000 OA
BRANCH  17  19
ATOM     19  O   UNL     1       6.487   4.141  13.526  0.00  0.00    +0.000 OA
ATOM     20  H   UNL     1       5.947   4.730  12.965  0.00  0.00    +0.000 HD
ENDBRANCH  17  19
ENDBRANCH   8  17
TORSDOF 4
ENDMDL
MODEL 9
REMARK VINA RESULT:      -7.0      1.977      3.038
REMARK  Name = 
REMARK  4 active torsions:
REMARK  status: ('A' for Active; 'I' for Inactive)
REMARK    1  A    between atoms: C_2  and  C_3
REMARK    2  A    between atoms: C_2  and  C_9
REMARK    3  A    between atoms: C_16  and  C_17
REMARK    4  A    between atoms: C_17  and  O_19
REMARK                            x       y       z     vdW  Elec       q    Type
REMARK                         _______ _______ _______ _____ _____    ______ ____
ROOT
ATOM      1  C   UNL     1       3.151   5.919  18.711  0.00  0.00    +0.000 A 
ATOM      2  C   UNL     1       2.591   6.560  19.831  0.00  0.00    +0.000 A 
ATOM      3  C   UNL     1       1.817   5.621  20.585  0.00  0.00    +0.000 A 
ATOM      4  C   UNL     1       1.988   4.408  19.982  0.00  0.00    +0.000 A 
ATOM      5  N   UNL     1       2.714   4.617  18.838  0.00  0.00    +0.000 N 
ATOM      6  C   UNL     1       2.878   3.375  18.086  0.00  0.00    +0.000 C 
ATOM      7  C   UNL     1       2.620   2.291  19.161  0.00  0.00    +0.000 C 
ATOM      8  C   UNL     1       1.643   2.963  20.161  0.00  0.00    +0.000 C 
ENDROOT
BRANCH   1  10
ATOM      9  O   UNL     1       3.632   7.543  17.162  0.00  0.00    +0.000 OA
ATOM     10  C   UNL     1       3.921   6.415  17.560  0.00  0.00    +0.000 C 
BRANCH  10  11
ATOM     11  C   UNL     1       4.981   5.699  16.726  0.00  0.00    +0.000 A 
ATOM     12  C   UNL     1       6.056   5.156  17.476  0.00  0.00    +0.000 A 
ATOM     13  C   UNL     1       7.220   4.638  16.888  0.00  0.00    +0.000 A 
ATOM     14  C   UNL     1       7.348   4.633  15.514  0.00  0.00    +0.000 A 
ATOM     15  C   UNL     1       6.297   5.122  14.732  0.00  0.00    +0.000 A 
ATOM     16  C   UNL     1       5.114   5.651  15.337  0.00  0.00    +0.000 A 
ENDBRANCH  10  11
ENDBRANCH   1  10
BRANCH   8  17
ATOM     17  C   UNL     1       1.872   2.521  21.600  0.00  0.00    +0.000 C 
ATOM     18  O   UNL     1       2.958   2.237  22.085  0.00  0.00    +0.000 OA
BRANCH  17  19
ATOM     19  O   UNL     1       0.733   2.489  22.338  0.00  0.00    +0.000 OA
ATOM     20  H   UNL     1       0.018   1.947  21.953  0.00  0.00    +0.000 HD
ENDBRANCH  17  19
ENDBRANCH   8  17
TORSDOF 4
ENDMDL
