MODEL 1
REMARK VINA RESULT:      -7.9      0.000      0.000
REMARK  Name = 
REMARK  8 active torsions:
REMARK  status: ('A' for Active; 'I' for Inactive)
REMARK    1  A    between atoms: C_1  and  C_2
REMARK    2  A    between atoms: C_13  and  C_14
REMARK    3  A    between atoms: C_13  and  C_15
REMARK    4  A    between atoms: N_17  and  C_18
REMARK    5  A    between atoms: C_22  and  O_23
REMARK    6  A    between atoms: O_23  and  C_24
REMARK    7  A    between atoms: N_26  and  C_27
REMARK    8  A    between atoms: N_26  and  C_28
REMARK                            x       y       z     vdW  Elec       q    Type
REMARK                         _______ _______ _______ _____ _____    ______ ____
ROOT
ATOM      1  C   UNL     1       4.339   2.069  18.527  0.00  0.00    +0.000 C 
ATOM      2  C   UNL     1       3.095   2.568  19.174  0.00  0.00    +0.000 A 
ATOM      3  C   UNL     1       2.068   1.732  19.579  0.00  0.00    +0.000 A 
ATOM      4  N   UNL     1       1.074   2.496  20.115  0.00  0.00    +0.000 N 
ATOM      5  C   UNL     1       1.434   3.812  20.086  0.00  0.00    +0.000 A 
ATOM      6  N   UNL     1       0.648   4.794  20.547  0.00  0.00    +0.000 NA
ATOM      7  C   UNL     1       1.207   5.993  20.355  0.00  0.00    +0.000 A 
ATOM      8  N   UNL     1       2.378   6.269  19.759  0.00  0.00    +0.000 NA
ATOM      9  C   UNL     1       3.156   5.252  19.294  0.00  0.00    +0.000 A 
ATOM     10  N   UNL     1       4.272   5.570  18.532  0.00  0.00    +0.000 N 
ATOM     11  C   UNL     1       4.317   6.909  17.951  0.00  0.00    +0.000 C 
ATOM     12  C   UNL     1       5.171   6.816  16.681  0.00  0.00    +0.000 C 
ATOM     13  C   UNL     1       6.569   6.200  16.942  0.00  0.00    +0.000 C 
ATOM     14  C   UNL     1       7.244   5.875  15.599  0.00  0.00    +0.000 C 
ATOM     15  C   UNL     1       6.418   4.885  17.765  0.00  0.00    +0.000 C 
ATOM     16  C   UNL     1       5.568   5.125  19.022  0.00  0.00    +0.000 C 
ATOM     17  C   UNL     1       2.684   3.924  19.486  0.00  0.00    +0.000 A 
ATOM     18  H   UNL     1       0.188   2.167  20.466  0.00  0.00    +0.000 HD
ENDROOT
BRANCH  13  19
ATOM     19  C   UNL     1       7.501   7.132  17.742  0.00  0.00    +0.000 C 
ATOM     20  O   UNL     1       8.293   6.652  18.555  0.00  0.00    +0.000 OA
ATOM     21  N   UNL     1       7.403   8.482  17.466  0.00  0.00    +0.000 N 
ATOM     22  H   UNL     1       6.666   8.800  16.852  0.00  0.00    +0.000 HD
BRANCH  21  23
ATOM     23  C   UNL     1       8.215   9.491  18.039  0.00  0.00    +0.000 A 
ATOM     24  C   UNL     1       9.062   9.268  19.132  0.00  0.00    +0.000 A 
ATOM     25  C   UNL     1       9.836  10.295  19.670  0.00  0.00    +0.000 A 
ATOM     26  C   UNL     1       9.786  11.564  19.107  0.00  0.00    +0.000 A 
ATOM     27  C   UNL     1       8.968  11.792  18.000  0.00  0.00    +0.000 A 
ATOM     28  C   UNL     1       8.170  10.771  17.476  0.00  0.00    +0.000 A 
BRANCH  27  29
ATOM     29  O   UNL     1       8.958  13.121  17.514  0.00  0.00    +0.000 OA
BRANCH  29  30
ATOM     30  C   UNL     1       9.052  14.223  18.360  0.00  0.00    +0.000 C 
ATOM     31  O   UNL     1       8.196  14.525  19.194  0.00  0.00    +0.000 OA
ATOM     32  N   UNL     1      10.216  14.955  18.181  0.00  0.00    +0.000 N 
ATOM     33  C   UNL     1      11.201  14.679  17.149  0.00  0.00    +0.000 C 
ATOM     34  C   UNL     1      10.493  16.070  19.066  0.00  0.00    +0.000 C 
ENDBRANCH  29  30
ENDBRANCH  27  29
ENDBRANCH  21  23
ENDBRANCH  13  19
TORSDOF 4
ENDMDL
MODEL 2
REMARK VINA RESULT:      -7.7      0.755      1.011
REMARK  Name = 
REMARK  8 active torsions:
REMARK  status: ('A' for Active; 'I' for Inactive)
REMARK    1  A    between atoms: C_1  and  C_2
REMARK    2  A    between atoms: C_13  and  C_14
REMARK    3  A    between atoms: C_13  and  C_15
REMARK    4  A    between atoms: N_17  and  C_18
REMARK    5  A    between atoms: C_22  and  O_23
REMARK    6  A    between atoms: O_23  and  C_24
REMARK    7  A    between atoms: N_26  and  C_27
REMARK    8  A    between atoms: N_26  and  C_28
REMARK                            x       y       z     vdW  Elec       q    Type
REMARK                         _______ _______ _______ _____ _____    ______ ____
ROOT
ATOM      1  C   UNL     1       4.127   2.210  19.021  0.00  0.00    +0.000 C 
ATOM      2  C   UNL     1       2.888   2.816  19.577  0.00  0.00    +0.000 A 
ATOM      3  C   UNL     1       1.813   2.064  20.020  0.00  0.00    +0.000 A 
ATOM      4  N   UNL     1       0.838   2.914  20.451  0.00  0.00    +0.000 N 
ATOM      5  C   UNL     1       1.256   4.205  20.317  0.00  0.00    +0.000 A 
ATOM      6  N   UNL     1       0.500   5.257  20.660  0.00  0.00    +0.000 NA
ATOM      7  C   UNL     1       1.118   6.409  20.380  0.00  0.00    +0.000 A 
ATOM      8  N   UNL     1       2.317   6.582  19.802  0.00  0.00    +0.000 NA
ATOM      9  C   UNL     1       3.064   5.495  19.458  0.00  0.00    +0.000 A 
ATOM     10  N   UNL     1       4.215   5.696  18.709  0.00  0.00    +0.000 N 
ATOM     11  C   UNL     1       4.337   6.973  18.012  0.00  0.00    +0.000 C 
ATOM     12  C   UNL     1       5.225   6.729  16.786  0.00  0.00    +0.000 C 
ATOM     13  C   UNL     1       6.585   6.083  17.149  0.00  0.00    +0.000 C 
ATOM     14  C   UNL     1       7.285   5.608  15.864  0.00  0.00    +0.000 C 
ATOM     15  C   UNL     1       6.351   4.856  18.081  0.00  0.00    +0.000 C 
ATOM     16  C   UNL     1       5.474   5.244  19.282  0.00  0.00    +0.000 C 
ATOM     17  C   UNL     1       2.527   4.211  19.752  0.00  0.00    +0.000 A 
ATOM     18  H   UNL     1      -0.072   2.655  20.800  0.00  0.00    +0.000 HD
ENDROOT
BRANCH  13  19
ATOM     19  C   UNL     1       7.532   7.045  17.893  0.00  0.00    +0.000 C 
ATOM     20  O   UNL     1       8.355   6.594  18.693  0.00  0.00    +0.000 OA
ATOM     21  N   UNL     1       7.412   8.386  17.584  0.00  0.00    +0.000 N 
ATOM     22  H   UNL     1       6.653   8.680  16.986  0.00  0.00    +0.000 HD
BRANCH  21  23
ATOM     23  C   UNL     1       8.232   9.417  18.104  0.00  0.00    +0.000 A 
ATOM     24  C   UNL     1       8.995   9.279  19.270  0.00  0.00    +0.000 A 
ATOM     25  C   UNL     1       9.780  10.327  19.750  0.00  0.00    +0.000 A 
ATOM     26  C   UNL     1       9.826  11.529  19.056  0.00  0.00    +0.000 A 
ATOM     27  C   UNL     1       9.093  11.670  17.877  0.00  0.00    +0.000 A 
ATOM     28  C   UNL     1       8.283  10.630  17.409  0.00  0.00    +0.000 A 
BRANCH  27  29
ATOM     29  O   UNL     1       9.176  12.937  17.256  0.00  0.00    +0.000 OA
BRANCH  29  30
ATOM     30  C   UNL     1       9.708  14.050  17.903  0.00  0.00    +0.000 C 
ATOM     31  O   UNL     1      10.914  14.224  18.091  0.00  0.00    +0.000 OA
ATOM     32  N   UNL     1       8.746  14.959  18.314  0.00  0.00    +0.000 N 
ATOM     33  C   UNL     1       7.314  14.743  18.187  0.00  0.00    +0.000 C 
ATOM     34  C   UNL     1       9.166  16.213  18.909  0.00  0.00    +0.000 C 
ENDBRANCH  29  30
ENDBRANCH  27  29
ENDBRANCH  21  23
ENDBRANCH  13  19
TORSDOF 4
ENDMDL
MODEL 3
REMARK VINA RESULT:      -7.7      5.826      9.562
REMARK  Name = 
REMARK  8 active torsions:
REMARK  status: ('A' for Active; 'I' for Inactive)
REMARK    1  A    between atoms: C_1  and  C_2
REMARK    2  A    between atoms: C_13  and  C_14
REMARK    3  A    between atoms: C_13  and  C_15
REMARK    4  A    between atoms: N_17  and  C_18
REMARK    5  A    between atoms: C_22  and  O_23
REMARK    6  A    between atoms: O_23  and  C_24
REMARK    7  A    between atoms: N_26  and  C_27
REMARK    8  A    between atoms: N_26  and  C_28
REMARK                            x       y       z     vdW  Elec       q    Type
REMARK                         _______ _______ _______ _____ _____    ______ ____
ROOT
ATOM      1  C   UNL     1      -3.513  11.876  18.685  0.00  0.00    +0.000 C 
ATOM      2  C   UNL     1      -3.765  12.613  19.953  0.00  0.00    +0.000 A 
ATOM      3  C   UNL     1      -4.868  13.428  20.145  0.00  0.00    +0.000 A 
ATOM      4  N   UNL     1      -4.797  13.965  21.396  0.00  0.00    +0.000 N 
ATOM      5  C   UNL     1      -3.682  13.507  22.035  0.00  0.00    +0.000 A 
ATOM      6  N   UNL     1      -3.352  13.870  23.281  0.00  0.00    +0.000 NA
ATOM      7  C   UNL     1      -2.190  13.325  23.654  0.00  0.00    +0.000 A 
ATOM      8  N   UNL     1      -1.379  12.538  22.929  0.00  0.00    +0.000 NA
ATOM      9  C   UNL     1      -1.735  12.188  21.660  0.00  0.00    +0.000 A 
ATOM     10  N   UNL     1      -0.805  11.521  20.875  0.00  0.00    +0.000 N 
ATOM     11  C   UNL     1       0.591  11.591  21.298  0.00  0.00    +0.000 C 
ATOM     12  C   UNL     1       1.448  11.437  20.036  0.00  0.00    +0.000 C 
ATOM     13  C   UNL     1       1.103  10.160  19.229  0.00  0.00    +0.000 C 
ATOM     14  C   UNL     1       1.785  10.224  17.852  0.00  0.00    +0.000 C 
ATOM     15  C   UNL     1      -0.440  10.068  19.026  0.00  0.00    +0.000 C 
ATOM     16  C   UNL     1      -1.174  10.207  20.369  0.00  0.00    +0.000 C 
ATOM     17  C   UNL     1      -2.980  12.671  21.171  0.00  0.00    +0.000 A 
ATOM     18  H   UNL     1      -5.444  14.621  21.805  0.00  0.00    +0.000 HD
ENDROOT
BRANCH  13  19
ATOM     19  C   UNL     1       1.547   8.861  19.932  0.00  0.00    +0.000 C 
ATOM     20  O   UNL     1       1.464   8.772  21.159  0.00  0.00    +0.000 OA
ATOM     21  N   UNL     1       1.995   7.843  19.113  0.00  0.00    +0.000 N 
ATOM     22  H   UNL     1       2.116   8.030  18.128  0.00  0.00    +0.000 HD
BRANCH  21  23
ATOM     23  C   UNL     1       2.381   6.554  19.555  0.00  0.00    +0.000 A 
ATOM     24  C   UNL     1       1.696   5.845  20.550  0.00  0.00    +0.000 A 
ATOM     25  C   UNL     1       2.120   4.582  20.961  0.00  0.00    +0.000 A 
ATOM     26  C   UNL     1       3.231   3.999  20.364  0.00  0.00    +0.000 A 
ATOM     27  C   UNL     1       3.905   4.682  19.352  0.00  0.00    +0.000 A 
ATOM     28  C   UNL     1       3.499   5.961  18.958  0.00  0.00    +0.000 A 
BRANCH  27  29
ATOM     29  O   UNL     1       5.042   4.026  18.826  0.00  0.00    +0.000 OA
BRANCH  29  30
ATOM     30  C   UNL     1       5.366   4.067  17.473  0.00  0.00    +0.000 C 
ATOM     31  O   UNL     1       4.661   3.589  16.582  0.00  0.00    +0.000 OA
ATOM     32  N   UNL     1       6.567   4.710  17.214  0.00  0.00    +0.000 N 
ATOM     33  C   UNL     1       7.464   5.205  18.245  0.00  0.00    +0.000 C 
ATOM     34  C   UNL     1       6.977   4.917  15.839  0.00  0.00    +0.000 C 
ENDBRANCH  29  30
ENDBRANCH  27  29
ENDBRANCH  21  23
ENDBRANCH  13  19
TORSDOF 4
ENDMDL
MODEL 4
REMARK VINA RESULT:      -7.7      5.915      9.480
REMARK  Name = 
REMARK  8 active torsions:
REMARK  status: ('A' for Active; 'I' for Inactive)
REMARK    1  A    between atoms: C_1  and  C_2
REMARK    2  A    between atoms: C_13  and  C_14
REMARK    3  A    between atoms: C_13  and  C_15
REMARK    4  A    between atoms: N_17  and  C_18
REMARK    5  A    between atoms: C_22  and  O_23
REMARK    6  A    between atoms: O_23  and  C_24
REMARK    7  A    between atoms: N_26  and  C_27
REMARK    8  A    between atoms: N_26  and  C_28
REMARK                            x       y       z     vdW  Elec       q    Type
REMARK                         _______ _______ _______ _____ _____    ______ ____
ROOT
ATOM      1  C   UNL     1      -3.337  11.197  16.447  0.00  0.00    +0.000 C 
ATOM      2  C   UNL     1      -4.162  11.827  17.513  0.00  0.00    +0.000 A 
ATOM      3  C   UNL     1      -5.396  12.407  17.267  0.00  0.00    +0.000 A 
ATOM      4  N   UNL     1      -5.881  12.904  18.441  0.00  0.00    +0.000 N 
ATOM      5  C   UNL     1      -5.002  12.648  19.452  0.00  0.00    +0.000 A 
ATOM      6  N   UNL     1      -5.216  13.024  20.720  0.00  0.00    +0.000 NA
ATOM      7  C   UNL     1      -4.182  12.701  21.503  0.00  0.00    +0.000 A 
ATOM      8  N   UNL     1      -3.031  12.110  21.145  0.00  0.00    +0.000 NA
ATOM      9  C   UNL     1      -2.835  11.742  19.847  0.00  0.00    +0.000 A 
ATOM     10  N   UNL     1      -1.577  11.294  19.471  0.00  0.00    +0.000 N 
ATOM     11  C   UNL     1      -0.465  11.617  20.362  0.00  0.00    +0.000 C 
ATOM     12  C   UNL     1       0.799  11.674  19.496  0.00  0.00    +0.000 C 
ATOM     13  C   UNL     1       1.017  10.384  18.667  0.00  0.00    +0.000 C 
ATOM     14  C   UNL     1       2.120  10.626  17.623  0.00  0.00    +0.000 C 
ATOM     15  C   UNL     1      -0.303  10.004  17.930  0.00  0.00    +0.000 C 
ATOM     16  C   UNL     1      -1.481   9.953  18.916  0.00  0.00    +0.000 C 
ATOM     17  C   UNL     1      -3.891  11.994  18.928  0.00  0.00    +0.000 A 
ATOM     18  H   UNL     1      -6.744  13.409  18.567  0.00  0.00    +0.000 HD
ENDROOT
BRANCH  13  19
ATOM     19  C   UNL     1       1.420   9.171  19.530  0.00  0.00    +0.000 C 
ATOM     20  O   UNL     1       1.245   9.205  20.749  0.00  0.00    +0.000 OA
ATOM     21  N   UNL     1       1.942   8.085  18.855  0.00  0.00    +0.000 N 
ATOM     22  H   UNL     1       2.136   8.174  17.867  0.00  0.00    +0.000 HD
BRANCH  21  23
ATOM     23  C   UNL     1       2.307   6.854  19.454  0.00  0.00    +0.000 A 
ATOM     24  C   UNL     1       1.569   6.247  20.476  0.00  0.00    +0.000 A 
ATOM     25  C   UNL     1       1.975   5.039  21.044  0.00  0.00    +0.000 A 
ATOM     26  C   UNL     1       3.122   4.410  20.579  0.00  0.00    +0.000 A 
ATOM     27  C   UNL     1       3.851   4.990  19.540  0.00  0.00    +0.000 A 
ATOM     28  C   UNL     1       3.463   6.215  18.990  0.00  0.00    +0.000 A 
BRANCH  27  29
ATOM     29  O   UNL     1       5.021   4.294  19.155  0.00  0.00    +0.000 OA
BRANCH  29  30
ATOM     30  C   UNL     1       5.358   4.088  17.820  0.00  0.00    +0.000 C 
ATOM     31  O   UNL     1       4.646   3.483  17.016  0.00  0.00    +0.000 OA
ATOM     32  N   UNL     1       6.582   4.639  17.471  0.00  0.00    +0.000 N 
ATOM     33  C   UNL     1       7.485   5.279  18.413  0.00  0.00    +0.000 C 
ATOM     34  C   UNL     1       7.011   4.589  16.087  0.00  0.00    +0.000 C 
ENDBRANCH  29  30
ENDBRANCH  27  29
ENDBRANCH  21  23
ENDBRANCH  13  19
TORSDOF 4
ENDMDL
MODEL 5
REMARK VINA RESULT:      -7.6      6.356     10.368
REMARK  Name = 
REMARK  8 active torsions:
REMARK  status: ('A' for Active; 'I' for Inactive)
REMARK    1  A    between atoms: C_1  and  C_2
REMARK    2  A    between atoms: C_13  and  C_14
REMARK    3  A    between atoms: C_13  and  C_15
REMARK    4  A    between atoms: N_17  and  C_18
REMARK    5  A    between atoms: C_22  and  O_23
REMARK    6  A    between atoms: O_23  and  C_24
REMARK    7  A    between atoms: N_26  and  C_27
REMARK    8  A    between atoms: N_26  and  C_28
REMARK                            x       y       z     vdW  Elec       q    Type
REMARK                         _______ _______ _______ _____ _____    ______ ____
ROOT
ATOM      1  C   UNL     1      -2.404  12.012  22.942  0.00  0.00    +0.000 C 
ATOM      2  C   UNL     1      -1.761  13.294  23.335  0.00  0.00    +0.000 A 
ATOM      3  C   UNL     1      -2.214  14.074  24.386  0.00  0.00    +0.000 A 
ATOM      4  N   UNL     1      -1.424  15.182  24.475  0.00  0.00    +0.000 N 
ATOM      5  C   UNL     1      -0.454  15.137  23.518  0.00  0.00    +0.000 A 
ATOM      6  N   UNL     1       0.468  16.098  23.366  0.00  0.00    +0.000 NA
ATOM      7  C   UNL     1       1.268  15.842  22.326  0.00  0.00    +0.000 A 
ATOM      8  N   UNL     1       1.207  14.806  21.475  0.00  0.00    +0.000 NA
ATOM      9  C   UNL     1       0.256  13.845  21.648  0.00  0.00    +0.000 A 
ATOM     10  N   UNL     1       0.105  12.882  20.661  0.00  0.00    +0.000 N 
ATOM     11  C   UNL     1       0.675  13.182  19.350  0.00  0.00    +0.000 C 
ATOM     12  C   UNL     1      -0.153  12.409  18.315  0.00  0.00    +0.000 C 
ATOM     13  C   UNL     1      -0.240  10.895  18.627  0.00  0.00    +0.000 C 
ATOM     14  C   UNL     1      -1.308  10.247  17.729  0.00  0.00    +0.000 C 
ATOM     15  C   UNL     1      -0.641  10.687  20.119  0.00  0.00    +0.000 C 
ATOM     16  C   UNL     1       0.285  11.491  21.047  0.00  0.00    +0.000 C 
ATOM     17  C   UNL     1      -0.626  13.986  22.755  0.00  0.00    +0.000 A 
ATOM     18  H   UNL     1      -1.533  15.945  25.124  0.00  0.00    +0.000 HD
ENDROOT
BRANCH  13  19
ATOM     19  C   UNL     1       1.095  10.154  18.408  0.00  0.00    +0.000 C 
ATOM     20  O   UNL     1       2.126  10.800  18.216  0.00  0.00    +0.000 OA
ATOM     21  N   UNL     1       1.048   8.775  18.472  0.00  0.00    +0.000 N 
ATOM     22  H   UNL     1       0.148   8.322  18.543  0.00  0.00    +0.000 HD
BRANCH  21  23
ATOM     23  C   UNL     1       2.171   7.917  18.367  0.00  0.00    +0.000 A 
ATOM     24  C   UNL     1       3.170   8.074  17.400  0.00  0.00    +0.000 A 
ATOM     25  C   UNL     1       4.253   7.198  17.328  0.00  0.00    +0.000 A 
ATOM     26  C   UNL     1       4.359   6.157  18.241  0.00  0.00    +0.000 A 
ATOM     27  C   UNL     1       3.385   6.007  19.229  0.00  0.00    +0.000 A 
ATOM     28  C   UNL     1       2.284   6.867  19.285  0.00  0.00    +0.000 A 
BRANCH  27  29
ATOM     29  O   UNL     1       3.560   4.902  20.093  0.00  0.00    +0.000 OA
BRANCH  29  30
ATOM     30  C   UNL     1       2.551   3.970  20.323  0.00  0.00    +0.000 C 
ATOM     31  O   UNL     1       1.688   4.091  21.194  0.00  0.00    +0.000 OA
ATOM     32  N   UNL     1       2.603   2.882  19.465  0.00  0.00    +0.000 N 
ATOM     33  C   UNL     1       3.657   2.664  18.488  0.00  0.00    +0.000 C 
ATOM     34  C   UNL     1       1.551   1.884  19.524  0.00  0.00    +0.000 C 
ENDBRANCH  29  30
ENDBRANCH  27  29
ENDBRANCH  21  23
ENDBRANCH  13  19
TORSDOF 4
ENDMDL
MODEL 6
REMARK VINA RESULT:      -7.6      7.277     10.585
REMARK  Name = 
REMARK  8 active torsions:
REMARK  status: ('A' for Active; 'I' for Inactive)
REMARK    1  A    between atoms: C_1  and  C_2
REMARK    2  A    between atoms: C_13  and  C_14
REMARK    3  A    between atoms: C_13  and  C_15
REMARK    4  A    between atoms: N_17  and  C_18
REMARK    5  A    between atoms: C_22  and  O_23
REMARK    6  A    between atoms: O_23  and  C_24
REMARK    7  A    between atoms: N_26  and  C_27
REMARK    8  A    between atoms: N_26  and  C_28
REMARK                            x       y       z     vdW  Elec       q    Type
REMARK                         _______ _______ _______ _____ _____    ______ ____
ROOT
ATOM      1  C   UNL     1      -5.546  12.781  19.116  0.00  0.00    +0.000 C 
ATOM      2  C   UNL     1      -6.073  12.770  20.507  0.00  0.00    +0.000 A 
ATOM      3  C   UNL     1      -7.421  12.885  20.804  0.00  0.00    +0.000 A 
ATOM      4  N   UNL     1      -7.569  12.856  22.159  0.00  0.00    +0.000 N 
ATOM      5  C   UNL     1      -6.352  12.708  22.757  0.00  0.00    +0.000 A 
ATOM      6  N   UNL     1      -6.192  12.651  24.085  0.00  0.00    +0.000 NA
ATOM      7  C   UNL     1      -4.900  12.558  24.414  0.00  0.00    +0.000 A 
ATOM      8  N   UNL     1      -3.839  12.551  23.592  0.00  0.00    +0.000 NA
ATOM      9  C   UNL     1      -4.029  12.616  22.244  0.00  0.00    +0.000 A 
ATOM     10  N   UNL     1      -2.918  12.782  21.429  0.00  0.00    +0.000 N 
ATOM     11  C   UNL     1      -1.696  13.269  22.065  0.00  0.00    +0.000 C 
ATOM     12  C   UNL     1      -0.896  14.009  20.987  0.00  0.00    +0.000 C 
ATOM     13  C   UNL     1      -0.643  13.143  19.727  0.00  0.00    +0.000 C 
ATOM     14  C   UNL     1      -0.100  14.032  18.595  0.00  0.00    +0.000 C 
ATOM     15  C   UNL     1      -1.979  12.489  19.262  0.00  0.00    +0.000 C 
ATOM     16  C   UNL     1      -2.661  11.757  20.429  0.00  0.00    +0.000 C 
ATOM     17  C   UNL     1      -5.369  12.671  21.772  0.00  0.00    +0.000 A 
ATOM     18  H   UNL     1      -8.434  12.952  22.670  0.00  0.00    +0.000 HD
ENDROOT
BRANCH  13  19
ATOM     19  C   UNL     1       0.362  11.999  19.972  0.00  0.00    +0.000 C 
ATOM     20  O   UNL     1       1.389  12.216  20.617  0.00  0.00    +0.000 OA
ATOM     21  N   UNL     1       0.020  10.762  19.460  0.00  0.00    +0.000 N 
ATOM     22  H   UNL     1      -0.796  10.691  18.867  0.00  0.00    +0.000 HD
BRANCH  21  23
ATOM     23  C   UNL     1       0.770   9.573  19.634  0.00  0.00    +0.000 A 
ATOM     24  C   UNL     1       0.744   8.813  20.809  0.00  0.00    +0.000 A 
ATOM     25  C   UNL     1       1.509   7.655  20.940  0.00  0.00    +0.000 A 
ATOM     26  C   UNL     1       2.301   7.229  19.881  0.00  0.00    +0.000 A 
ATOM     27  C   UNL     1       2.313   7.961  18.694  0.00  0.00    +0.000 A 
ATOM     28  C   UNL     1       1.569   9.138  18.571  0.00  0.00    +0.000 A 
BRANCH  27  29
ATOM     29  O   UNL     1       3.172   7.469  17.683  0.00  0.00    +0.000 OA
BRANCH  29  30
ATOM     30  C   UNL     1       3.468   6.115  17.552  0.00  0.00    +0.000 C 
ATOM     31  O   UNL     1       2.639   5.213  17.693  0.00  0.00    +0.000 OA
ATOM     32  N   UNL     1       4.796   5.870  17.237  0.00  0.00    +0.000 N 
ATOM     33  C   UNL     1       5.816   6.903  17.152  0.00  0.00    +0.000 C 
ATOM     34  C   UNL     1       5.220   4.510  16.969  0.00  0.00    +0.000 C 
ENDBRANCH  29  30
ENDBRANCH  27  29
ENDBRANCH  21  23
ENDBRANCH  13  19
TORSDOF 4
ENDMDL
MODEL 7
REMARK VINA RESULT:      -7.6      6.383     10.424
REMARK  Name = 
REMARK  8 active torsions:
REMARK  status: ('A' for Active; 'I' for Inactive)
REMARK    1  A    between atoms: C_1  and  C_2
REMARK    2  A    between atoms: C_13  and  C_14
REMARK    3  A    between atoms: C_13  and  C_15
REMARK    4  A    between atoms: N_17  and  C_18
REMARK    5  A    between atoms: C_22  and  O_23
REMARK    6  A    between atoms: O_23  and  C_24
REMARK    7  A    between atoms: N_26  and  C_27
REMARK    8  A    between atoms: N_26  and  C_28
REMARK                            x       y       z     vdW  Elec       q    Type
REMARK                         _______ _______ _______ _____ _____    ______ ____
ROOT
ATOM      1  C   UNL     1      -2.679  12.917  22.349  0.00  0.00    +0.000 C 
ATOM      2  C   UNL     1      -1.768  14.013  22.777  0.00  0.00    +0.000 A 
ATOM      3  C   UNL     1      -2.168  15.044  23.612  0.00  0.00    +0.000 A 
ATOM      4  N   UNL     1      -1.112  15.885  23.796  0.00  0.00    +0.000 N 
ATOM      5  C   UNL     1      -0.024  15.422  23.116  0.00  0.00    +0.000 A 
ATOM      6  N   UNL     1       1.159  16.050  23.114  0.00  0.00    +0.000 NA
ATOM      7  C   UNL     1       2.040  15.421  22.330  0.00  0.00    +0.000 A 
ATOM      8  N   UNL     1       1.842  14.323  21.583  0.00  0.00    +0.000 NA
ATOM      9  C   UNL     1       0.626  13.706  21.599  0.00  0.00    +0.000 A 
ATOM     10  N   UNL     1       0.395  12.682  20.691  0.00  0.00    +0.000 N 
ATOM     11  C   UNL     1       1.291  12.601  19.541  0.00  0.00    +0.000 C 
ATOM     12  C   UNL     1       0.501  11.940  18.405  0.00  0.00    +0.000 C 
ATOM     13  C   UNL     1      -0.113  10.578  18.816  0.00  0.00    +0.000 C 
ATOM     14  C   UNL     1      -1.115  10.123  17.741  0.00  0.00    +0.000 C 
ATOM     15  C   UNL     1      -0.861  10.728  20.175  0.00  0.00    +0.000 C 
ATOM     16  C   UNL     1       0.051  11.374  21.229  0.00  0.00    +0.000 C 
ATOM     17  C   UNL     1      -0.380  14.260  22.437  0.00  0.00    +0.000 A 
ATOM     18  H   UNL     1      -1.112  16.741  24.331  0.00  0.00    +0.000 HD
ENDROOT
BRANCH  13  19
ATOM     19  C   UNL     1       0.942   9.468  18.998  0.00  0.00    +0.000 C 
ATOM     20  O   UNL     1       1.272   9.120  20.133  0.00  0.00    +0.000 OA
ATOM     21  N   UNL     1       1.443   8.902  17.841  0.00  0.00    +0.000 N 
ATOM     22  H   UNL     1       1.187   9.307  16.952  0.00  0.00    +0.000 HD
BRANCH  21  23
ATOM     23  C   UNL     1       2.364   7.827  17.795  0.00  0.00    +0.000 A 
ATOM     24  C   UNL     1       3.699   7.975  17.403  0.00  0.00    +0.000 A 
ATOM     25  C   UNL     1       4.567   6.884  17.362  0.00  0.00    +0.000 A 
ATOM     26  C   UNL     1       4.112   5.626  17.733  0.00  0.00    +0.000 A 
ATOM     27  C   UNL     1       2.791   5.470  18.153  0.00  0.00    +0.000 A 
ATOM     28  C   UNL     1       1.911   6.556  18.168  0.00  0.00    +0.000 A 
BRANCH  27  29
ATOM     29  O   UNL     1       2.408   4.149  18.481  0.00  0.00    +0.000 OA
BRANCH  29  30
ATOM     30  C   UNL     1       1.939   3.801  19.745  0.00  0.00    +0.000 C 
ATOM     31  O   UNL     1       0.858   4.175  20.205  0.00  0.00    +0.000 OA
ATOM     32  N   UNL     1       2.808   2.978  20.446  0.00  0.00    +0.000 N 
ATOM     33  C   UNL     1       4.126   2.593  19.970  0.00  0.00    +0.000 C 
ATOM     34  C   UNL     1       2.401   2.455  21.736  0.00  0.00    +0.000 C 
ENDBRANCH  29  30
ENDBRANCH  27  29
ENDBRANCH  21  23
ENDBRANCH  13  19
TORSDOF 4
ENDMDL
MODEL 8
REMARK VINA RESULT:      -7.4      6.176     10.389
REMARK  Name = 
REMARK  8 active torsions:
REMARK  status: ('A' for Active; 'I' for Inactive)
REMARK    1  A    between atoms: C_1  and  C_2
REMARK    2  A    between atoms: C_13  and  C_14
REMARK    3  A    between atoms: C_13  and  C_15
REMARK    4  A    between atoms: N_17  and  C_18
REMARK    5  A    between atoms: C_22  and  O_23
REMARK    6  A    between atoms: O_23  and  C_24
REMARK    7  A    between atoms: N_26  and  C_27
REMARK    8  A    between atoms: N_26  and  C_28
REMARK                            x       y       z     vdW  Elec       q    Type
REMARK                         _______ _______ _______ _____ _____    ______ ____
ROOT
ATOM      1  C   UNL     1      -2.570  12.446  22.715  0.00  0.00    +0.000 C 
ATOM      2  C   UNL     1      -1.748  13.642  23.043  0.00  0.00    +0.000 A 
ATOM      3  C   UNL     1      -2.186  14.648  23.888  0.00  0.00    +0.000 A 
ATOM      4  N   UNL     1      -1.212  15.600  23.967  0.00  0.00    +0.000 N 
ATOM      5  C   UNL     1      -0.140  15.232  23.208  0.00  0.00    +0.000 A 
ATOM      6  N   UNL     1       0.966  15.979  23.094  0.00  0.00    +0.000 NA
ATOM      7  C   UNL     1       1.842  15.422  22.253  0.00  0.00    +0.000 A 
ATOM      8  N   UNL     1       1.701  14.289  21.547  0.00  0.00    +0.000 NA
ATOM      9  C   UNL     1       0.563  13.550  21.676  0.00  0.00    +0.000 A 
ATOM     10  N   UNL     1       0.368  12.482  20.812  0.00  0.00    +0.000 N 
ATOM     11  C   UNL     1       1.172  12.462  19.592  0.00  0.00    +0.000 C 
ATOM     12  C   UNL     1       0.367  11.690  18.540  0.00  0.00    +0.000 C 
ATOM     13  C   UNL     1      -0.065  10.284  19.027  0.00  0.00    +0.000 C 
ATOM     14  C   UNL     1      -1.097   9.698  18.049  0.00  0.00    +0.000 C 
ATOM     15  C   UNL     1      -0.712  10.395  20.441  0.00  0.00    +0.000 C 
ATOM     16  C   UNL     1       0.209  11.162  21.402  0.00  0.00    +0.000 C 
ATOM     17  C   UNL     1      -0.425  14.021  22.584  0.00  0.00    +0.000 A 
ATOM     18  H   UNL     1      -1.260  16.465  24.483  0.00  0.00    +0.000 HD
ENDROOT
BRANCH  13  19
ATOM     19  C   UNL     1       1.113   9.296  19.143  0.00  0.00    +0.000 C 
ATOM     20  O   UNL     1       1.500   8.936  20.256  0.00  0.00    +0.000 OA
ATOM     21  N   UNL     1       1.654   8.844  17.954  0.00  0.00    +0.000 N 
ATOM     22  H   UNL     1       1.337   9.258  17.088  0.00  0.00    +0.000 HD
BRANCH  21  23
ATOM     23  C   UNL     1       2.690   7.885  17.845  0.00  0.00    +0.000 A 
ATOM     24  C   UNL     1       3.925   8.152  17.243  0.00  0.00    +0.000 A 
ATOM     25  C   UNL     1       4.912   7.172  17.148  0.00  0.00    +0.000 A 
ATOM     26  C   UNL     1       4.681   5.908  17.675  0.00  0.00    +0.000 A 
ATOM     27  C   UNL     1       3.466   5.637  18.304  0.00  0.00    +0.000 A 
ATOM     28  C   UNL     1       2.464   6.609  18.374  0.00  0.00    +0.000 A 
BRANCH  27  29
ATOM     29  O   UNL     1       3.308   4.315  18.781  0.00  0.00    +0.000 OA
BRANCH  29  30
ATOM     30  C   UNL     1       2.336   3.453  18.279  0.00  0.00    +0.000 C 
ATOM     31  O   UNL     1       2.308   3.054  17.113  0.00  0.00    +0.000 OA
ATOM     32  N   UNL     1       1.396   3.074  19.225  0.00  0.00    +0.000 N 
ATOM     33  C   UNL     1       1.350   3.596  20.581  0.00  0.00    +0.000 C 
ATOM     34  C   UNL     1       0.386   2.097  18.866  0.00  0.00    +0.000 C 
ENDBRANCH  29  30
ENDBRANCH  27  29
ENDBRANCH  21  23
ENDBRANCH  13  19
TORSDOF 4
ENDMDL
MODEL 9
REMARK VINA RESULT:      -7.4      6.011      9.421
REMARK  Name = 
REMARK  8 active torsions:
REMARK  status: ('A' for Active; 'I' for Inactive)
REMARK    1  A    between atoms: C_1  and  C_2
REMARK    2  A    between atoms: C_13  and  C_14
REMARK    3  A    between atoms: C_13  and  C_15
REMARK    4  A    between atoms: N_17  and  C_18
REMARK    5  A    between atoms: C_22  and  O_23
REMARK    6  A    between atoms: O_23  and  C_24
REMARK    7  A    between atoms: N_26  and  C_27
REMARK    8  A    between atoms: N_26  and  C_28
REMARK                            x       y       z     vdW  Elec       q    Type
REMARK                         _______ _______ _______ _____ _____    ______ ____
ROOT
ATOM      1  C   UNL     1      -2.262  12.120  22.601  0.00  0.00    +0.000 C 
ATOM      2  C   UNL     1      -1.532  13.366  22.959  0.00  0.00    +0.000 A 
ATOM      3  C   UNL     1      -1.983  14.255  23.920  0.00  0.00    +0.000 A 
ATOM      4  N   UNL     1      -1.103  15.293  23.996  0.00  0.00    +0.000 N 
ATOM      5  C   UNL     1      -0.077  15.097  23.119  0.00  0.00    +0.000 A 
ATOM      6  N   UNL     1       0.937  15.961  22.976  0.00  0.00    +0.000 NA
ATOM      7  C   UNL     1       1.780  15.564  22.017  0.00  0.00    +0.000 A 
ATOM      8  N   UNL     1       1.683  14.479  21.232  0.00  0.00    +0.000 NA
ATOM      9  C   UNL     1       0.638  13.619  21.395  0.00  0.00    +0.000 A 
ATOM     10  N   UNL     1       0.467  12.605  20.463  0.00  0.00    +0.000 N 
ATOM     11  C   UNL     1       1.151  12.761  19.182  0.00  0.00    +0.000 C 
ATOM     12  C   UNL     1       0.329  11.993  18.140  0.00  0.00    +0.000 C 
ATOM     13  C   UNL     1       0.082  10.517  18.541  0.00  0.00    +0.000 C 
ATOM     14  C   UNL     1      -0.976   9.903  17.609  0.00  0.00    +0.000 C 
ATOM     15  C   UNL     1      -0.437  10.451  20.010  0.00  0.00    +0.000 C 
ATOM     16  C   UNL     1       0.492  11.234  20.950  0.00  0.00    +0.000 C 
ATOM     17  C   UNL     1      -0.301  13.914  22.421  0.00  0.00    +0.000 A 
ATOM     18  H   UNL     1      -1.185  16.107  24.586  0.00  0.00    +0.000 HD
ENDROOT
BRANCH  13  19
ATOM     19  C   UNL     1       1.355   9.649  18.471  0.00  0.00    +0.000 C 
ATOM     20  O   UNL     1       2.421  10.157  18.117  0.00  0.00    +0.000 OA
ATOM     21  N   UNL     1       1.218   8.327  18.847  0.00  0.00    +0.000 N 
ATOM     22  H   UNL     1       0.292   7.970  19.038  0.00  0.00    +0.000 HD
BRANCH  21  23
ATOM     23  C   UNL     1       2.276   7.388  18.919  0.00  0.00    +0.000 A 
ATOM     24  C   UNL     1       2.271   6.288  19.784  0.00  0.00    +0.000 A 
ATOM     25  C   UNL     1       3.341   5.395  19.827  0.00  0.00    +0.000 A 
ATOM     26  C   UNL     1       4.429   5.582  18.985  0.00  0.00    +0.000 A 
ATOM     27  C   UNL     1       4.434   6.658  18.097  0.00  0.00    +0.000 A 
ATOM     28  C   UNL     1       3.375   7.571  18.072  0.00  0.00    +0.000 A 
BRANCH  27  29
ATOM     29  O   UNL     1       5.597   6.786  17.302  0.00  0.00    +0.000 OA
BRANCH  29  30
ATOM     30  C   UNL     1       5.675   6.275  16.009  0.00  0.00    +0.000 C 
ATOM     31  O   UNL     1       5.023   6.710  15.057  0.00  0.00    +0.000 OA
ATOM     32  N   UNL     1       6.570   5.223  15.887  0.00  0.00    +0.000 N 
ATOM     33  C   UNL     1       7.286   4.629  17.004  0.00  0.00    +0.000 C 
ATOM     34  C   UNL     1       6.829   4.664  14.574  0.00  0.00    +0.000 C 
ENDBRANCH  29  30
ENDBRANCH  27  29
ENDBRANCH  21  23
ENDBRANCH  13  19
TORSDOF 4
ENDMDL
