MODEL 1
REMARK VINA RESULT:      -8.3      0.000      0.000
REMARK  Name = 
REMARK  10 active torsions:
REMARK  status: ('A' for Active; 'I' for Inactive)
REMARK    1  A    between atoms: C_1  and  C_2
REMARK    2  A    between atoms: C_2  and  O_3
REMARK    3  A    between atoms: O_3  and  C_4
REMARK    4  A    between atoms: C_7  and  C_8
REMARK    5  A    between atoms: N_11  and  C_12
REMARK    6  A    between atoms: C_12  and  C_13
REMARK    7  A    between atoms: C_16  and  N_17
REMARK    8  A    between atoms: C_18  and  C_19
REMARK    9  A    between atoms: C_26  and  N_27
REMARK   10  A    between atoms: C_28  and  C_30
REMARK                            x       y       z     vdW  Elec       q    Type
REMARK                         _______ _______ _______ _____ _____    ______ ____
ROOT
ATOM      1  C   UNL     1       2.135   4.655  19.148  0.00  0.00    +0.000 A 
ATOM      2  C   UNL     1       2.616   3.579  18.379  0.00  0.00    +0.000 A 
ATOM      3  C   UNL     1       3.624   3.756  17.429  0.00  0.00    +0.000 A 
ATOM      4  C   UNL     1       4.179   5.018  17.208  0.00  0.00    +0.000 A 
ATOM      5  C   UNL     1       3.699   6.071  17.994  0.00  0.00    +0.000 A 
ATOM      6  C   UNL     1       2.639   5.943  18.910  0.00  0.00    +0.000 A 
ENDROOT
BRANCH   4   7
ATOM      7  C   UNL     1       5.259   5.211  16.142  0.00  0.00    +0.000 C 
ATOM      8  C   UNL     1       6.635   4.571  16.412  0.00  0.00    +0.000 C 
ATOM      9  C   UNL     1       7.415   5.280  17.527  0.00  0.00    +0.000 C 
ATOM     10  N   UNL     1       7.501   6.736  17.377  0.00  0.00    +0.000 NA
ATOM     11  C   UNL     1       6.242   7.384  17.008  0.00  0.00    +0.000 C 
ATOM     12  C   UNL     1       5.524   6.698  15.844  0.00  0.00    +0.000 C 
BRANCH  10  13
ATOM     13  C   UNL     1       8.132   7.374  18.553  0.00  0.00    +0.000 C 
BRANCH  13  14
ATOM     14  C   UNL     1       8.463   8.858  18.461  0.00  0.00    +0.000 A 
ATOM     15  C   UNL     1       7.839   9.662  17.499  0.00  0.00    +0.000 A 
ATOM     16  C   UNL     1       8.098  11.034  17.418  0.00  0.00    +0.000 A 
ATOM     17  C   UNL     1       8.984  11.648  18.300  0.00  0.00    +0.000 A 
ATOM     18  C   UNL     1       9.640  10.848  19.243  0.00  0.00    +0.000 A 
ATOM     19  C   UNL     1       9.380   9.470  19.326  0.00  0.00    +0.000 A 
BRANCH  17  20
ATOM     20  N   UNL     1       9.224  13.040  18.323  0.00  0.00    +0.000 N 
ATOM     21  C   UNL     1      10.257  13.714  17.693  0.00  0.00    +0.000 C 
ATOM     22  C   UNL     1      10.131  15.214  17.767  0.00  0.00    +0.000 C 
ATOM     23  O   UNL     1      11.221  13.213  17.121  0.00  0.00    +0.000 OA
ATOM     24  H   UNL     1       8.544  13.598  18.823  0.00  0.00    +0.000 HD
ENDBRANCH  17  20
ENDBRANCH  13  14
ENDBRANCH  10  13
ENDBRANCH   4   7
BRANCH   6  25
ATOM     25  N   UNL     1       2.108   7.090  19.565  0.00  0.00    +0.000 N 
ATOM     26  C   UNL     1       1.722   8.274  18.935  0.00  0.00    +0.000 C 
ATOM     27  O   UNL     1       1.758   8.504  17.728  0.00  0.00    +0.000 OA
ATOM     28  H   UNL     1       1.913   7.005  20.559  0.00  0.00    +0.000 HD
BRANCH  26  29
ATOM     29  C   UNL     1       1.234   9.378  19.800  0.00  0.00    +0.000 A 
ATOM     30  C   UNL     1       0.760   9.059  21.072  0.00  0.00    +0.000 A 
ATOM     31  N   UNL     1       0.198   9.975  21.900  0.00  0.00    +0.000 NA
ATOM     32  C   UNL     1       0.157  11.231  21.405  0.00  0.00    +0.000 A 
ATOM     33  C   UNL     1       0.636  11.551  20.141  0.00  0.00    +0.000 A 
ATOM     34  N   UNL     1       1.183  10.639  19.293  0.00  0.00    +0.000 NA
ENDBRANCH  26  29
ENDBRANCH   6  25
BRANCH   1  35
ATOM     35  O   UNL     1       1.189   4.495  20.140  0.00  0.00    +0.000 OA
BRANCH  35  37
ATOM     36  C   UNL     1       1.626   2.783  21.792  0.00  0.00    +0.000 C 
ATOM     37  C   UNL     1       0.925   3.127  20.492  0.00  0.00    +0.000 C 
ENDBRANCH  35  37
ENDBRANCH   1  35
TORSDOF 8
ENDMDL
MODEL 2
REMARK VINA RESULT:      -8.2      4.054      9.735
REMARK  Name = 
REMARK  10 active torsions:
REMARK  status: ('A' for Active; 'I' for Inactive)
REMARK    1  A    between atoms: C_1  and  C_2
REMARK    2  A    between atoms: C_2  and  O_3
REMARK    3  A    between atoms: O_3  and  C_4
REMARK    4  A    between atoms: C_7  and  C_8
REMARK    5  A    between atoms: N_11  and  C_12
REMARK    6  A    between atoms: C_12  and  C_13
REMARK    7  A    between atoms: C_16  and  N_17
REMARK    8  A    between atoms: C_18  and  C_19
REMARK    9  A    between atoms: C_26  and  N_27
REMARK   10  A    between atoms: C_28  and  C_30
REMARK                            x       y       z     vdW  Elec       q    Type
REMARK                         _______ _______ _______ _____ _____    ______ ____
ROOT
ATOM      1  C   UNL     1       2.646   6.421  19.594  0.00  0.00    +0.000 A 
ATOM      2  C   UNL     1       1.948   7.200  20.535  0.00  0.00    +0.000 A 
ATOM      3  C   UNL     1       1.431   8.454  20.203  0.00  0.00    +0.000 A 
ATOM      4  C   UNL     1       1.601   8.976  18.919  0.00  0.00    +0.000 A 
ATOM      5  C   UNL     1       2.283   8.179  17.994  0.00  0.00    +0.000 A 
ATOM      6  C   UNL     1       2.876   6.944  18.312  0.00  0.00    +0.000 A 
ENDROOT
BRANCH   4   7
ATOM      7  C   UNL     1       1.061  10.365  18.572  0.00  0.00    +0.000 C 
ATOM      8  C   UNL     1       1.562  11.546  19.425  0.00  0.00    +0.000 C 
ATOM      9  C   UNL     1       0.999  11.534  20.852  0.00  0.00    +0.000 C 
ATOM     10  N   UNL     1      -0.457  11.372  20.929  0.00  0.00    +0.000 NA
ATOM     11  C   UNL     1      -1.000  10.335  20.051  0.00  0.00    +0.000 C 
ATOM     12  C   UNL     1      -0.476  10.420  18.616  0.00  0.00    +0.000 C 
BRANCH  10  13
ATOM     13  C   UNL     1      -0.920  11.218  22.326  0.00  0.00    +0.000 C 
BRANCH  13  14
ATOM     14  C   UNL     1      -1.688  12.376  22.948  0.00  0.00    +0.000 A 
ATOM     15  C   UNL     1      -3.056  12.249  23.223  0.00  0.00    +0.000 A 
ATOM     16  C   UNL     1      -3.776  13.285  23.829  0.00  0.00    +0.000 A 
ATOM     17  C   UNL     1      -3.151  14.477  24.185  0.00  0.00    +0.000 A 
ATOM     18  C   UNL     1      -1.792  14.628  23.884  0.00  0.00    +0.000 A 
ATOM     19  C   UNL     1      -1.068  13.588  23.277  0.00  0.00    +0.000 A 
BRANCH  17  20
ATOM     20  N   UNL     1      -3.803  15.524  24.873  0.00  0.00    +0.000 N 
ATOM     21  C   UNL     1      -4.340  16.673  24.317  0.00  0.00    +0.000 C 
ATOM     22  C   UNL     1      -5.123  17.508  25.299  0.00  0.00    +0.000 C 
ATOM     23  O   UNL     1      -4.226  17.050  23.155  0.00  0.00    +0.000 OA
ATOM     24  H   UNL     1      -3.917  15.396  25.871  0.00  0.00    +0.000 HD
ENDBRANCH  17  20
ENDBRANCH  13  14
ENDBRANCH  10  13
ENDBRANCH   4   7
BRANCH   6  25
ATOM     25  N   UNL     1       3.680   6.261  17.355  0.00  0.00    +0.000 N 
ATOM     26  C   UNL     1       5.004   6.570  17.045  0.00  0.00    +0.000 C 
ATOM     27  O   UNL     1       5.687   7.456  17.555  0.00  0.00    +0.000 OA
ATOM     28  H   UNL     1       3.283   5.427  16.931  0.00  0.00    +0.000 HD
BRANCH  26  29
ATOM     29  C   UNL     1       5.659   5.768  15.979  0.00  0.00    +0.000 A 
ATOM     30  C   UNL     1       4.862   4.926  15.203  0.00  0.00    +0.000 A 
ATOM     31  N   UNL     1       5.371   4.076  14.277  0.00  0.00    +0.000 NA
ATOM     32  C   UNL     1       6.715   4.126  14.145  0.00  0.00    +0.000 A 
ATOM     33  C   UNL     1       7.509   4.970  14.913  0.00  0.00    +0.000 A 
ATOM     34  N   UNL     1       7.013   5.812  15.858  0.00  0.00    +0.000 NA
ENDBRANCH  26  29
ENDBRANCH   6  25
BRANCH   1  35
ATOM     35  O   UNL     1       3.108   5.152  19.876  0.00  0.00    +0.000 OA
BRANCH  35  37
ATOM     36  C   UNL     1       2.213   3.521  21.423  0.00  0.00    +0.000 C 
ATOM     37  C   UNL     1       2.073   4.172  20.060  0.00  0.00    +0.000 C 
ENDBRANCH  35  37
ENDBRANCH   1  35
TORSDOF 8
ENDMDL
MODEL 3
REMARK VINA RESULT:      -8.0      1.064      1.248
REMARK  Name = 
REMARK  10 active torsions:
REMARK  status: ('A' for Active; 'I' for Inactive)
REMARK    1  A    between atoms: C_1  and  C_2
REMARK    2  A    between atoms: C_2  and  O_3
REMARK    3  A    between atoms: O_3  and  C_4
REMARK    4  A    between atoms: C_7  and  C_8
REMARK    5  A    between atoms: N_11  and  C_12
REMARK    6  A    between atoms: C_12  and  C_13
REMARK    7  A    between atoms: C_16  and  N_17
REMARK    8  A    between atoms: C_18  and  C_19
REMARK    9  A    between atoms: C_26  and  N_27
REMARK   10  A    between atoms: C_28  and  C_30
REMARK                            x       y       z     vdW  Elec       q    Type
REMARK                         _______ _______ _______ _____ _____    ______ ____
ROOT
ATOM      1  C   UNL     1       2.201   4.024  18.777  0.00  0.00    +0.000 A 
ATOM      2  C   UNL     1       2.763   3.060  17.920  0.00  0.00    +0.000 A 
ATOM      3  C   UNL     1       3.789   3.386  17.031  0.00  0.00    +0.000 A 
ATOM      4  C   UNL     1       4.282   4.690  16.961  0.00  0.00    +0.000 A 
ATOM      5  C   UNL     1       3.722   5.629  17.832  0.00  0.00    +0.000 A 
ATOM      6  C   UNL     1       2.642   5.354  18.691  0.00  0.00    +0.000 A 
ENDROOT
BRANCH   4   7
ATOM      7  C   UNL     1       5.383   5.047  15.960  0.00  0.00    +0.000 C 
ATOM      8  C   UNL     1       6.801   4.523  16.261  0.00  0.00    +0.000 C 
ATOM      9  C   UNL     1       7.461   5.234  17.450  0.00  0.00    +0.000 C 
ATOM     10  N   UNL     1       7.413   6.698  17.385  0.00  0.00    +0.000 NA
ATOM     11  C   UNL     1       6.115   7.246  16.993  0.00  0.00    +0.000 C 
ATOM     12  C   UNL     1       5.517   6.566  15.759  0.00  0.00    +0.000 C 
BRANCH  10  13
ATOM     13  C   UNL     1       7.929   7.321  18.624  0.00  0.00    +0.000 C 
BRANCH  13  14
ATOM     14  C   UNL     1       8.411   8.763  18.543  0.00  0.00    +0.000 A 
ATOM     15  C   UNL     1       8.073   9.560  17.443  0.00  0.00    +0.000 A 
ATOM     16  C   UNL     1       8.471  10.899  17.363  0.00  0.00    +0.000 A 
ATOM     17  C   UNL     1       9.215  11.485  18.384  0.00  0.00    +0.000 A 
ATOM     18  C   UNL     1       9.588  10.688  19.473  0.00  0.00    +0.000 A 
ATOM     19  C   UNL     1       9.187   9.344  19.555  0.00  0.00    +0.000 A 
BRANCH  17  20
ATOM     20  N   UNL     1       9.575  12.851  18.400  0.00  0.00    +0.000 N 
ATOM     21  C   UNL     1       8.746  13.924  18.679  0.00  0.00    +0.000 C 
ATOM     22  C   UNL     1       9.478  15.238  18.787  0.00  0.00    +0.000 C 
ATOM     23  O   UNL     1       7.528  13.894  18.826  0.00  0.00    +0.000 OA
ATOM     24  H   UNL     1      10.551  13.053  18.224  0.00  0.00    +0.000 HD
ENDBRANCH  17  20
ENDBRANCH  13  14
ENDBRANCH  10  13
ENDBRANCH   4   7
BRANCH   6  25
ATOM     25  N   UNL     1       2.031   6.399  19.440  0.00  0.00    +0.000 N 
ATOM     26  C   UNL     1       2.096   7.758  19.132  0.00  0.00    +0.000 C 
ATOM     27  O   UNL     1       2.667   8.263  18.167  0.00  0.00    +0.000 OA
ATOM     28  H   UNL     1       1.425   6.122  20.207  0.00  0.00    +0.000 HD
BRANCH  26  29
ATOM     29  C   UNL     1       1.428   8.701  20.066  0.00  0.00    +0.000 A 
ATOM     30  C   UNL     1       0.881   9.872  19.543  0.00  0.00    +0.000 A 
ATOM     31  N   UNL     1       0.343  10.845  20.319  0.00  0.00    +0.000 NA
ATOM     32  C   UNL     1       0.355  10.580  21.644  0.00  0.00    +0.000 A 
ATOM     33  C   UNL     1       0.893   9.410  22.166  0.00  0.00    +0.000 A 
ATOM     34  N   UNL     1       1.453   8.435  21.400  0.00  0.00    +0.000 NA
ENDBRANCH  26  29
ENDBRANCH   6  25
BRANCH   1  35
ATOM     35  O   UNL     1       1.234   3.715  19.712  0.00  0.00    +0.000 OA
BRANCH  35  37
ATOM     36  C   UNL     1       2.314   3.155  21.803  0.00  0.00    +0.000 C 
ATOM     37  C   UNL     1       1.581   2.628  20.585  0.00  0.00    +0.000 C 
ENDBRANCH  35  37
ENDBRANCH   1  35
TORSDOF 8
ENDMDL
MODEL 4
REMARK VINA RESULT:      -7.9      4.867     10.643
REMARK  Name = 
REMARK  10 active torsions:
REMARK  status: ('A' for Active; 'I' for Inactive)
REMARK    1  A    between atoms: C_1  and  C_2
REMARK    2  A    between atoms: C_2  and  O_3
REMARK    3  A    between atoms: O_3  and  C_4
REMARK    4  A    between atoms: C_7  and  C_8
REMARK    5  A    between atoms: N_11  and  C_12
REMARK    6  A    between atoms: C_12  and  C_13
REMARK    7  A    between atoms: C_16  and  N_17
REMARK    8  A    between atoms: C_18  and  C_19
REMARK    9  A    between atoms: C_26  and  N_27
REMARK   10  A    between atoms: C_28  and  C_30
REMARK                            x       y       z     vdW  Elec       q    Type
REMARK                         _______ _______ _______ _____ _____    ______ ____
ROOT
ATOM      1  C   UNL     1      -0.931  10.848  18.278  0.00  0.00    +0.000 A 
ATOM      2  C   UNL     1      -1.491  12.130  18.127  0.00  0.00    +0.000 A 
ATOM      3  C   UNL     1      -0.768  13.283  18.441  0.00  0.00    +0.000 A 
ATOM      4  C   UNL     1       0.538  13.193  18.927  0.00  0.00    +0.000 A 
ATOM      5  C   UNL     1       1.082  11.911  19.054  0.00  0.00    +0.000 A 
ATOM      6  C   UNL     1       0.361  10.727  18.813  0.00  0.00    +0.000 A 
ENDROOT
BRANCH   4   7
ATOM      7  C   UNL     1       1.312  14.458  19.301  0.00  0.00    +0.000 C 
ATOM      8  C   UNL     1       2.054  14.453  20.651  0.00  0.00    +0.000 C 
ATOM      9  C   UNL     1       1.105  14.513  21.855  0.00  0.00    +0.000 C 
ATOM     10  N   UNL     1       0.096  15.574  21.781  0.00  0.00    +0.000 NA
ATOM     11  C   UNL     1      -0.562  15.696  20.481  0.00  0.00    +0.000 C 
ATOM     12  C   UNL     1       0.416  15.709  19.304  0.00  0.00    +0.000 C 
BRANCH  10  13
ATOM     13  C   UNL     1      -0.877  15.486  22.892  0.00  0.00    +0.000 C 
BRANCH  13  14
ATOM     14  C   UNL     1      -2.129  14.647  22.673  0.00  0.00    +0.000 A 
ATOM     15  C   UNL     1      -3.394  15.248  22.690  0.00  0.00    +0.000 A 
ATOM     16  C   UNL     1      -4.556  14.506  22.454  0.00  0.00    +0.000 A 
ATOM     17  C   UNL     1      -4.490  13.141  22.186  0.00  0.00    +0.000 A 
ATOM     18  C   UNL     1      -3.234  12.523  22.200  0.00  0.00    +0.000 A 
ATOM     19  C   UNL     1      -2.066  13.268  22.435  0.00  0.00    +0.000 A 
BRANCH  17  20
ATOM     20  N   UNL     1      -5.618  12.355  21.858  0.00  0.00    +0.000 N 
ATOM     21  C   UNL     1      -6.094  12.078  20.588  0.00  0.00    +0.000 C 
ATOM     22  C   UNL     1      -7.212  11.066  20.572  0.00  0.00    +0.000 C 
ATOM     23  O   UNL     1      -5.708  12.572  19.533  0.00  0.00    +0.000 OA
ATOM     24  H   UNL     1      -6.099  11.926  22.638  0.00  0.00    +0.000 HD
ENDBRANCH  17  20
ENDBRANCH  13  14
ENDBRANCH  10  13
ENDBRANCH   4   7
BRANCH   6  25
ATOM     25  N   UNL     1       0.938   9.459  19.106  0.00  0.00    +0.000 N 
ATOM     26  C   UNL     1       1.912   8.817  18.342  0.00  0.00    +0.000 C 
ATOM     27  O   UNL     1       2.437   9.247  17.317  0.00  0.00    +0.000 OA
ATOM     28  H   UNL     1       0.682   9.030  19.992  0.00  0.00    +0.000 HD
BRANCH  26  29
ATOM     29  C   UNL     1       2.353   7.471  18.791  0.00  0.00    +0.000 A 
ATOM     30  C   UNL     1       3.020   6.656  17.876  0.00  0.00    +0.000 A 
ATOM     31  N   UNL     1       3.372   5.376  18.150  0.00  0.00    +0.000 NA
ATOM     32  C   UNL     1       3.049   4.956  19.393  0.00  0.00    +0.000 A 
ATOM     33  C   UNL     1       2.392   5.770  20.307  0.00  0.00    +0.000 A 
ATOM     34  N   UNL     1       2.015   7.049  20.038  0.00  0.00    +0.000 NA
ENDBRANCH  26  29
ENDBRANCH   6  25
BRANCH   1  35
ATOM     35  O   UNL     1      -1.598   9.697  17.911  0.00  0.00    +0.000 OA
BRANCH  35  37
ATOM     36  C   UNL     1      -2.796   9.780  15.811  0.00  0.00    +0.000 C 
ATOM     37  C   UNL     1      -2.887   9.923  17.318  0.00  0.00    +0.000 C 
ENDBRANCH  35  37
ENDBRANCH   1  35
TORSDOF 8
ENDMDL
MODEL 5
REMARK VINA RESULT:      -7.9      4.336      9.467
REMARK  Name = 
REMARK  10 active torsions:
REMARK  status: ('A' for Active; 'I' for Inactive)
REMARK    1  A    between atoms: C_1  and  C_2
REMARK    2  A    between atoms: C_2  and  O_3
REMARK    3  A    between atoms: O_3  and  C_4
REMARK    4  A    between atoms: C_7  and  C_8
REMARK    5  A    between atoms: N_11  and  C_12
REMARK    6  A    between atoms: C_12  and  C_13
REMARK    7  A    between atoms: C_16  and  N_17
REMARK    8  A    between atoms: C_18  and  C_19
REMARK    9  A    between atoms: C_26  and  N_27
REMARK   10  A    between atoms: C_28  and  C_30
REMARK                            x       y       z     vdW  Elec       q    Type
REMARK                         _______ _______ _______ _____ _____    ______ ____
ROOT
ATOM      1  C   UNL     1       1.984   5.641  19.667  0.00  0.00    +0.000 A 
ATOM      2  C   UNL     1       1.282   6.263  20.716  0.00  0.00    +0.000 A 
ATOM      3  C   UNL     1       1.207   7.654  20.819  0.00  0.00    +0.000 A 
ATOM      4  C   UNL     1       1.839   8.471  19.880  0.00  0.00    +0.000 A 
ATOM      5  C   UNL     1       2.518   7.834  18.837  0.00  0.00    +0.000 A 
ATOM      6  C   UNL     1       2.672   6.439  18.740  0.00  0.00    +0.000 A 
ENDROOT
BRANCH   4   7
ATOM      7  C   UNL     1       1.781   9.994  20.018  0.00  0.00    +0.000 C 
ATOM      8  C   UNL     1       0.895  10.563  21.143  0.00  0.00    +0.000 C 
ATOM      9  C   UNL     1      -0.604  10.393  20.867  0.00  0.00    +0.000 C 
ATOM     10  N   UNL     1      -1.033  10.848  19.541  0.00  0.00    +0.000 NA
ATOM     11  C   UNL     1      -0.161  10.428  18.444  0.00  0.00    +0.000 C 
ATOM     12  C   UNL     1       1.323  10.679  18.718  0.00  0.00    +0.000 C 
BRANCH  10  13
ATOM     13  C   UNL     1      -2.452  10.522  19.280  0.00  0.00    +0.000 C 
BRANCH  13  14
ATOM     14  C   UNL     1      -2.919  10.504  17.830  0.00  0.00    +0.000 A 
ATOM     15  C   UNL     1      -2.383   9.576  16.928  0.00  0.00    +0.000 A 
ATOM     16  C   UNL     1      -2.822   9.514  15.601  0.00  0.00    +0.000 A 
ATOM     17  C   UNL     1      -3.816  10.371  15.136  0.00  0.00    +0.000 A 
ATOM     18  C   UNL     1      -4.335  11.326  16.020  0.00  0.00    +0.000 A 
ATOM     19  C   UNL     1      -3.895  11.388  17.353  0.00  0.00    +0.000 A 
BRANCH  17  20
ATOM     20  N   UNL     1      -4.359  10.302  13.833  0.00  0.00    +0.000 N 
ATOM     21  C   UNL     1      -3.754   9.762  12.711  0.00  0.00    +0.000 C 
ATOM     22  C   UNL     1      -4.668   9.684  11.514  0.00  0.00    +0.000 C 
ATOM     23  O   UNL     1      -2.594   9.374  12.615  0.00  0.00    +0.000 OA
ATOM     24  H   UNL     1      -5.302  10.653  13.728  0.00  0.00    +0.000 HD
ENDBRANCH  17  20
ENDBRANCH  13  14
ENDBRANCH  10  13
ENDBRANCH   4   7
BRANCH   6  25
ATOM     25  N   UNL     1       3.502   5.873  17.730  0.00  0.00    +0.000 N 
ATOM     26  C   UNL     1       4.855   5.566  17.874  0.00  0.00    +0.000 C 
ATOM     27  O   UNL     1       5.535   5.716  18.888  0.00  0.00    +0.000 OA
ATOM     28  H   UNL     1       3.047   5.587  16.867  0.00  0.00    +0.000 HD
BRANCH  26  29
ATOM     29  C   UNL     1       5.560   5.024  16.685  0.00  0.00    +0.000 A 
ATOM     30  C   UNL     1       6.953   5.093  16.655  0.00  0.00    +0.000 A 
ATOM     31  N   UNL     1       7.687   4.723  15.576  0.00  0.00    +0.000 NA
ATOM     32  C   UNL     1       6.962   4.254  14.536  0.00  0.00    +0.000 A 
ATOM     33  C   UNL     1       5.575   4.177  14.568  0.00  0.00    +0.000 A 
ATOM     34  N   UNL     1       4.827   4.564  15.636  0.00  0.00    +0.000 NA
ENDBRANCH  26  29
ENDBRANCH   6  25
BRANCH   1  35
ATOM     35  O   UNL     1       2.018   4.272  19.504  0.00  0.00    +0.000 OA
BRANCH  35  37
ATOM     36  C   UNL     1       1.963   2.958  21.535  0.00  0.00    +0.000 C 
ATOM     37  C   UNL     1       2.836   3.581  20.462  0.00  0.00    +0.000 C 
ENDBRANCH  35  37
ENDBRANCH   1  35
TORSDOF 8
ENDMDL
MODEL 6
REMARK VINA RESULT:      -7.9      0.903      1.399
REMARK  Name = 
REMARK  10 active torsions:
REMARK  status: ('A' for Active; 'I' for Inactive)
REMARK    1  A    between atoms: C_1  and  C_2
REMARK    2  A    between atoms: C_2  and  O_3
REMARK    3  A    between atoms: O_3  and  C_4
REMARK    4  A    between atoms: C_7  and  C_8
REMARK    5  A    between atoms: N_11  and  C_12
REMARK    6  A    between atoms: C_12  and  C_13
REMARK    7  A    between atoms: C_16  and  N_17
REMARK    8  A    between atoms: C_18  and  C_19
REMARK    9  A    between atoms: C_26  and  N_27
REMARK   10  A    between atoms: C_28  and  C_30
REMARK                            x       y       z     vdW  Elec       q    Type
REMARK                         _______ _______ _______ _____ _____    ______ ____
ROOT
ATOM      1  C   UNL     1       2.369   4.656  19.086  0.00  0.00    +0.000 A 
ATOM      2  C   UNL     1       2.890   3.567  18.363  0.00  0.00    +0.000 A 
ATOM      3  C   UNL     1       3.970   3.721  17.491  0.00  0.00    +0.000 A 
ATOM      4  C   UNL     1       4.560   4.973  17.304  0.00  0.00    +0.000 A 
ATOM      5  C   UNL     1       4.038   6.039  18.043  0.00  0.00    +0.000 A 
ATOM      6  C   UNL     1       2.910   5.934  18.878  0.00  0.00    +0.000 A 
ENDROOT
BRANCH   4   7
ATOM      7  C   UNL     1       5.721   5.141  16.322  0.00  0.00    +0.000 C 
ATOM      8  C   UNL     1       7.108   4.657  16.785  0.00  0.00    +0.000 C 
ATOM      9  C   UNL     1       7.720   5.549  17.874  0.00  0.00    +0.000 C 
ATOM     10  N   UNL     1       7.709   6.981  17.562  0.00  0.00    +0.000 NA
ATOM     11  C   UNL     1       6.446   7.473  17.011  0.00  0.00    +0.000 C 
ATOM     12  C   UNL     1       5.899   6.603  15.877  0.00  0.00    +0.000 C 
BRANCH  10  13
ATOM     13  C   UNL     1       8.172   7.797  18.706  0.00  0.00    +0.000 C 
BRANCH  13  14
ATOM     14  C   UNL     1       8.498   9.262  18.445  0.00  0.00    +0.000 A 
ATOM     15  C   UNL     1       9.623   9.851  19.036  0.00  0.00    +0.000 A 
ATOM     16  C   UNL     1       9.964  11.183  18.783  0.00  0.00    +0.000 A 
ATOM     17  C   UNL     1       9.197  11.967  17.926  0.00  0.00    +0.000 A 
ATOM     18  C   UNL     1       8.050  11.400  17.357  0.00  0.00    +0.000 A 
ATOM     19  C   UNL     1       7.707  10.061  17.609  0.00  0.00    +0.000 A 
BRANCH  17  20
ATOM     20  N   UNL     1       9.536  13.291  17.566  0.00  0.00    +0.000 N 
ATOM     21  C   UNL     1       9.389  14.426  18.346  0.00  0.00    +0.000 C 
ATOM     22  C   UNL     1      10.009  15.659  17.738  0.00  0.00    +0.000 C 
ATOM     23  O   UNL     1       8.817  14.505  19.429  0.00  0.00    +0.000 OA
ATOM     24  H   UNL     1       9.962  13.407  16.655  0.00  0.00    +0.000 HD
ENDBRANCH  17  20
ENDBRANCH  13  14
ENDBRANCH  10  13
ENDBRANCH   4   7
BRANCH   6  25
ATOM     25  N   UNL     1       2.349   7.095  19.482  0.00  0.00    +0.000 N 
ATOM     26  C   UNL     1       1.773   8.165  18.796  0.00  0.00    +0.000 C 
ATOM     27  O   UNL     1       1.642   8.267  17.578  0.00  0.00    +0.000 OA
ATOM     28  H   UNL     1       2.283   7.101  20.496  0.00  0.00    +0.000 HD
BRANCH  26  29
ATOM     29  C   UNL     1       1.285   9.310  19.607  0.00  0.00    +0.000 A 
ATOM     30  C   UNL     1       1.298  10.580  19.031  0.00  0.00    +0.000 A 
ATOM     31  N   UNL     1       0.973  11.704  19.716  0.00  0.00    +0.000 NA
ATOM     32  C   UNL     1       0.607  11.494  21.000  0.00  0.00    +0.000 A 
ATOM     33  C   UNL     1       0.586  10.229  21.573  0.00  0.00    +0.000 A 
ATOM     34  N   UNL     1       0.930   9.096  20.902  0.00  0.00    +0.000 NA
ENDBRANCH  26  29
ENDBRANCH   6  25
BRANCH   1  35
ATOM     35  O   UNL     1       1.348   4.519  20.003  0.00  0.00    +0.000 OA
BRANCH  35  37
ATOM     36  C   UNL     1       1.442   2.640  21.525  0.00  0.00    +0.000 C 
ATOM     37  C   UNL     1       1.778   4.103  21.310  0.00  0.00    +0.000 C 
ENDBRANCH  35  37
ENDBRANCH   1  35
TORSDOF 8
ENDMDL
MODEL 7
REMARK VINA RESULT:      -7.8      4.220      9.831
REMARK  Name = 
REMARK  10 active torsions:
REMARK  status: ('A' for Active; 'I' for Inactive)
REMARK    1  A    between atoms: C_1  and  C_2
REMARK    2  A    between atoms: C_2  and  O_3
REMARK    3  A    between atoms: O_3  and  C_4
REMARK    4  A    between atoms: C_7  and  C_8
REMARK    5  A    between atoms: N_11  and  C_12
REMARK    6  A    between atoms: C_12  and  C_13
REMARK    7  A    between atoms: C_16  and  N_17
REMARK    8  A    between atoms: C_18  and  C_19
REMARK    9  A    between atoms: C_26  and  N_27
REMARK   10  A    between atoms: C_28  and  C_30
REMARK                            x       y       z     vdW  Elec       q    Type
REMARK                         _______ _______ _______ _____ _____    ______ ____
ROOT
ATOM      1  C   UNL     1       2.378   6.303  19.886  0.00  0.00    +0.000 A 
ATOM      2  C   UNL     1       1.696   7.134  20.794  0.00  0.00    +0.000 A 
ATOM      3  C   UNL     1       1.227   8.395  20.418  0.00  0.00    +0.000 A 
ATOM      4  C   UNL     1       1.432   8.872  19.123  0.00  0.00    +0.000 A 
ATOM      5  C   UNL     1       2.098   8.025  18.231  0.00  0.00    +0.000 A 
ATOM      6  C   UNL     1       2.643   6.780  18.593  0.00  0.00    +0.000 A 
ENDROOT
BRANCH   4   7
ATOM      7  C   UNL     1       0.945  10.268  18.727  0.00  0.00    +0.000 C 
ATOM      8  C   UNL     1       1.565  11.465  19.474  0.00  0.00    +0.000 C 
ATOM      9  C   UNL     1       1.100  11.566  20.933  0.00  0.00    +0.000 C 
ATOM     10  N   UNL     1      -0.354  11.493  21.112  0.00  0.00    +0.000 NA
ATOM     11  C   UNL     1      -1.010  10.441  20.336  0.00  0.00    +0.000 C 
ATOM     12  C   UNL     1      -0.580  10.414  18.867  0.00  0.00    +0.000 C 
BRANCH  10  13
ATOM     13  C   UNL     1      -0.730  11.445  22.543  0.00  0.00    +0.000 C 
BRANCH  13  14
ATOM     14  C   UNL     1      -1.693  12.506  23.057  0.00  0.00    +0.000 A 
ATOM     15  C   UNL     1      -1.228  13.791  23.368  0.00  0.00    +0.000 A 
ATOM     16  C   UNL     1      -2.099  14.794  23.807  0.00  0.00    +0.000 A 
ATOM     17  C   UNL     1      -3.462  14.548  23.942  0.00  0.00    +0.000 A 
ATOM     18  C   UNL     1      -3.933  13.258  23.667  0.00  0.00    +0.000 A 
ATOM     19  C   UNL     1      -3.060  12.250  23.225  0.00  0.00    +0.000 A 
BRANCH  17  20
ATOM     20  N   UNL     1      -4.402  15.540  24.300  0.00  0.00    +0.000 N 
ATOM     21  C   UNL     1      -5.045  16.420  23.445  0.00  0.00    +0.000 C 
ATOM     22  C   UNL     1      -6.120  17.236  24.118  0.00  0.00    +0.000 C 
ATOM     23  O   UNL     1      -4.814  16.587  22.251  0.00  0.00    +0.000 OA
ATOM     24  H   UNL     1      -4.652  15.580  25.280  0.00  0.00    +0.000 HD
ENDBRANCH  17  20
ENDBRANCH  13  14
ENDBRANCH  10  13
ENDBRANCH   4   7
BRANCH   6  25
ATOM     25  N   UNL     1       3.434   6.042  17.667  0.00  0.00    +0.000 N 
ATOM     26  C   UNL     1       4.787   6.263  17.404  0.00  0.00    +0.000 C 
ATOM     27  O   UNL     1       5.507   7.106  17.935  0.00  0.00    +0.000 OA
ATOM     28  H   UNL     1       3.000   5.233  17.232  0.00  0.00    +0.000 HD
BRANCH  26  29
ATOM     29  C   UNL     1       5.426   5.415  16.365  0.00  0.00    +0.000 A 
ATOM     30  C   UNL     1       6.305   6.020  15.468  0.00  0.00    +0.000 A 
ATOM     31  N   UNL     1       6.860   5.361  14.421  0.00  0.00    +0.000 NA
ATOM     32  C   UNL     1       6.514   4.058  14.329  0.00  0.00    +0.000 A 
ATOM     33  C   UNL     1       5.644   3.452  15.226  0.00  0.00    +0.000 A 
ATOM     34  N   UNL     1       5.065   4.107  16.268  0.00  0.00    +0.000 NA
ENDBRANCH  26  29
ENDBRANCH   6  25
BRANCH   1  35
ATOM     35  O   UNL     1       2.792   5.028  20.211  0.00  0.00    +0.000 OA
BRANCH  35  37
ATOM     36  C   UNL     1       2.333   3.059  21.540  0.00  0.00    +0.000 C 
ATOM     37  C   UNL     1       1.744   4.170  20.692  0.00  0.00    +0.000 C 
ENDBRANCH  35  37
ENDBRANCH   1  35
TORSDOF 8
ENDMDL
MODEL 8
REMARK VINA RESULT:      -7.8      3.129      7.226
REMARK  Name = 
REMARK  10 active torsions:
REMARK  status: ('A' for Active; 'I' for Inactive)
REMARK    1  A    between atoms: C_1  and  C_2
REMARK    2  A    between atoms: C_2  and  O_3
REMARK    3  A    between atoms: O_3  and  C_4
REMARK    4  A    between atoms: C_7  and  C_8
REMARK    5  A    between atoms: N_11  and  C_12
REMARK    6  A    between atoms: C_12  and  C_13
REMARK    7  A    between atoms: C_16  and  N_17
REMARK    8  A    between atoms: C_18  and  C_19
REMARK    9  A    between atoms: C_26  and  N_27
REMARK   10  A    between atoms: C_28  and  C_30
REMARK                            x       y       z     vdW  Elec       q    Type
REMARK                         _______ _______ _______ _____ _____    ______ ____
ROOT
ATOM      1  C   UNL     1      -0.699  10.968  18.309  0.00  0.00    +0.000 A 
ATOM      2  C   UNL     1      -1.340  12.221  18.323  0.00  0.00    +0.000 A 
ATOM      3  C   UNL     1      -0.847  13.282  19.085  0.00  0.00    +0.000 A 
ATOM      4  C   UNL     1       0.299  13.125  19.867  0.00  0.00    +0.000 A 
ATOM      5  C   UNL     1       0.930  11.877  19.826  0.00  0.00    +0.000 A 
ATOM      6  C   UNL     1       0.424  10.767  19.125  0.00  0.00    +0.000 A 
ENDROOT
BRANCH   4   7
ATOM      7  C   UNL     1       0.814  14.282  20.725  0.00  0.00    +0.000 C 
ATOM      8  C   UNL     1       0.702  15.700  20.131  0.00  0.00    +0.000 C 
ATOM      9  C   UNL     1       1.680  15.942  18.974  0.00  0.00    +0.000 C 
ATOM     10  N   UNL     1       3.068  15.571  19.264  0.00  0.00    +0.000 NA
ATOM     11  C   UNL     1       3.224  14.279  19.932  0.00  0.00    +0.000 C 
ATOM     12  C   UNL     1       2.288  14.097  21.128  0.00  0.00    +0.000 C 
BRANCH  10  13
ATOM     13  C   UNL     1       3.930  15.687  18.067  0.00  0.00    +0.000 C 
BRANCH  13  14
ATOM     14  C   UNL     1       5.433  15.539  18.260  0.00  0.00    +0.000 A 
ATOM     15  C   UNL     1       6.142  16.472  19.027  0.00  0.00    +0.000 A 
ATOM     16  C   UNL     1       7.516  16.338  19.250  0.00  0.00    +0.000 A 
ATOM     17  C   UNL     1       8.225  15.262  18.720  0.00  0.00    +0.000 A 
ATOM     18  C   UNL     1       7.533  14.342  17.923  0.00  0.00    +0.000 A 
ATOM     19  C   UNL     1       6.153  14.475  17.699  0.00  0.00    +0.000 A 
BRANCH  17  20
ATOM     20  N   UNL     1       9.594  15.027  18.978  0.00  0.00    +0.000 N 
ATOM     21  C   UNL     1      10.132  13.975  19.700  0.00  0.00    +0.000 C 
ATOM     22  C   UNL     1      11.638  13.914  19.643  0.00  0.00    +0.000 C 
ATOM     23  O   UNL     1       9.515  13.140  20.356  0.00  0.00    +0.000 OA
ATOM     24  H   UNL     1      10.242  15.680  18.558  0.00  0.00    +0.000 HD
ENDBRANCH  17  20
ENDBRANCH  13  14
ENDBRANCH  10  13
ENDBRANCH   4   7
BRANCH   6  25
ATOM     25  N   UNL     1       1.043   9.491  19.251  0.00  0.00    +0.000 N 
ATOM     26  C   UNL     1       1.941   8.934  18.340  0.00  0.00    +0.000 C 
ATOM     27  O   UNL     1       2.351   9.458  17.306  0.00  0.00    +0.000 OA
ATOM     28  H   UNL     1       0.886   8.986  20.120  0.00  0.00    +0.000 HD
BRANCH  26  29
ATOM     29  C   UNL     1       2.443   7.566  18.627  0.00  0.00    +0.000 A 
ATOM     30  C   UNL     1       2.089   6.975  19.840  0.00  0.00    +0.000 A 
ATOM     31  N   UNL     1       2.576   5.776  20.245  0.00  0.00    +0.000 NA
ATOM     32  C   UNL     1       3.414   5.182  19.367  0.00  0.00    +0.000 A 
ATOM     33  C   UNL     1       3.761   5.767  18.155  0.00  0.00    +0.000 A 
ATOM     34  N   UNL     1       3.296   6.978  17.746  0.00  0.00    +0.000 NA
ENDBRANCH  26  29
ENDBRANCH   6  25
BRANCH   1  35
ATOM     35  O   UNL     1      -1.126   9.924  17.514  0.00  0.00    +0.000 OA
BRANCH  35  37
ATOM     36  C   UNL     1      -2.712   9.930  15.687  0.00  0.00    +0.000 C 
ATOM     37  C   UNL     1      -2.526   9.958  17.192  0.00  0.00    +0.000 C 
ENDBRANCH  35  37
ENDBRANCH   1  35
TORSDOF 8
ENDMDL
MODEL 9
REMARK VINA RESULT:      -7.8      4.478      9.871
REMARK  Name = 
REMARK  10 active torsions:
REMARK  status: ('A' for Active; 'I' for Inactive)
REMARK    1  A    between atoms: C_1  and  C_2
REMARK    2  A    between atoms: C_2  and  O_3
REMARK    3  A    between atoms: O_3  and  C_4
REMARK    4  A    between atoms: C_7  and  C_8
REMARK    5  A    between atoms: N_11  and  C_12
REMARK    6  A    between atoms: C_12  and  C_13
REMARK    7  A    between atoms: C_16  and  N_17
REMARK    8  A    between atoms: C_18  and  C_19
REMARK    9  A    between atoms: C_26  and  N_27
REMARK   10  A    between atoms: C_28  and  C_30
REMARK                            x       y       z     vdW  Elec       q    Type
REMARK                         _______ _______ _______ _____ _____    ______ ____
ROOT
ATOM      1  C   UNL     1       2.376   6.597  20.016  0.00  0.00    +0.000 A 
ATOM      2  C   UNL     1       1.450   7.286  20.821  0.00  0.00    +0.000 A 
ATOM      3  C   UNL     1       0.920   8.518  20.432  0.00  0.00    +0.000 A 
ATOM      4  C   UNL     1       1.304   9.108  19.227  0.00  0.00    +0.000 A 
ATOM      5  C   UNL     1       2.213   8.400  18.433  0.00  0.00    +0.000 A 
ATOM      6  C   UNL     1       2.818   7.192  18.824  0.00  0.00    +0.000 A 
ENDROOT
BRANCH   4   7
ATOM      7  C   UNL     1       0.745  10.473  18.822  0.00  0.00    +0.000 C 
ATOM      8  C   UNL     1       1.307  11.707  19.555  0.00  0.00    +0.000 C 
ATOM      9  C   UNL     1       0.845  11.798  21.015  0.00  0.00    +0.000 C 
ATOM     10  N   UNL     1      -0.602  11.653  21.203  0.00  0.00    +0.000 NA
ATOM     11  C   UNL     1      -1.207  10.562  20.439  0.00  0.00    +0.000 C 
ATOM     12  C   UNL     1      -0.785  10.543  18.969  0.00  0.00    +0.000 C 
BRANCH  10  13
ATOM     13  C   UNL     1      -0.967  11.599  22.636  0.00  0.00    +0.000 C 
BRANCH  13  14
ATOM     14  C   UNL     1      -1.747  12.773  23.212  0.00  0.00    +0.000 A 
ATOM     15  C   UNL     1      -3.109  12.637  23.512  0.00  0.00    +0.000 A 
ATOM     16  C   UNL     1      -3.839  13.688  24.077  0.00  0.00    +0.000 A 
ATOM     17  C   UNL     1      -3.230  14.907  24.365  0.00  0.00    +0.000 A 
ATOM     18  C   UNL     1      -1.878  15.066  24.037  0.00  0.00    +0.000 A 
ATOM     19  C   UNL     1      -1.144  14.011  23.472  0.00  0.00    +0.000 A 
BRANCH  17  20
ATOM     20  N   UNL     1      -3.892  15.976  25.010  0.00  0.00    +0.000 N 
ATOM     21  C   UNL     1      -4.610  16.993  24.404  0.00  0.00    +0.000 C 
ATOM     22  C   UNL     1      -5.340  17.879  25.381  0.00  0.00    +0.000 C 
ATOM     23  O   UNL     1      -4.685  17.224  23.201  0.00  0.00    +0.000 OA
ATOM     24  H   UNL     1      -3.862  15.969  26.022  0.00  0.00    +0.000 HD
ENDBRANCH  17  20
ENDBRANCH  13  14
ENDBRANCH  10  13
ENDBRANCH   4   7
BRANCH   6  25
ATOM     25  N   UNL     1       3.843   6.607  18.028  0.00  0.00    +0.000 N 
ATOM     26  C   UNL     1       3.754   5.380  17.369  0.00  0.00    +0.000 C 
ATOM     27  O   UNL     1       2.782   4.627  17.355  0.00  0.00    +0.000 OA
ATOM     28  H   UNL     1       4.670   7.172  17.853  0.00  0.00    +0.000 HD
BRANCH  26  29
ATOM     29  C   UNL     1       4.953   4.919  16.624  0.00  0.00    +0.000 A 
ATOM     30  C   UNL     1       6.197   5.023  17.246  0.00  0.00    +0.000 A 
ATOM     31  N   UNL     1       7.363   4.729  16.618  0.00  0.00    +0.000 NA
ATOM     32  C   UNL     1       7.223   4.299  15.345  0.00  0.00    +0.000 A 
ATOM     33  C   UNL     1       5.984   4.187  14.727  0.00  0.00    +0.000 A 
ATOM     34  N   UNL     1       4.809   4.499  15.339  0.00  0.00    +0.000 NA
ENDBRANCH  26  29
ENDBRANCH   6  25
BRANCH   1  35
ATOM     35  O   UNL     1       2.863   5.349  20.345  0.00  0.00    +0.000 OA
BRANCH  35  37
ATOM     36  C   UNL     1       2.229   3.020  20.509  0.00  0.00    +0.000 C 
ATOM     37  C   UNL     1       1.877   4.449  20.875  0.00  0.00    +0.000 C 
ENDBRANCH  35  37
ENDBRANCH   1  35
TORSDOF 8
ENDMDL
