MODEL 1
REMARK VINA RESULT:      -7.1      0.000      0.000
REMARK  Name = 
REMARK  8 active torsions:
REMARK  status: ('A' for Active; 'I' for Inactive)
REMARK    1  A    between atoms: C_1  and  N_2
REMARK    2  A    between atoms: N_2  and  C_3
REMARK    3  A    between atoms: N_2  and  C_4
REMARK    4  A    between atoms: C_4  and  C_5
REMARK    5  A    between atoms: C_5  and  C_6
REMARK    6  A    between atoms: C_6  and  N_7
REMARK    7  A    between atoms: C_17  and  C_18
REMARK    8  A    between atoms: C_17  and  C_19
REMARK                            x       y       z     vdW  Elec       q    Type
REMARK                         _______ _______ _______ _____ _____    ______ ____
ROOT
ATOM      1  N   UNL     1       4.872   4.222  15.722  0.00  0.00    +0.000 N 
ATOM      2  C   UNL     1       4.149   4.250  16.896  0.00  0.00    +0.000 C 
ATOM      3  N   UNL     1       3.739   5.366  17.408  0.00  0.00    +0.000 NA
ATOM      4  C   UNL     1       3.019   5.393  18.600  0.00  0.00    +0.000 A 
ATOM      5  C   UNL     1       2.612   6.675  19.016  0.00  0.00    +0.000 A 
ATOM      6  C   UNL     1       1.889   6.871  20.181  0.00  0.00    +0.000 A 
ATOM      7  C   UNL     1       1.565   5.771  20.959  0.00  0.00    +0.000 A 
ATOM      8  C   UNL     1       1.964   4.485  20.571  0.00  0.00    +0.000 A 
ATOM      9 CL   UNL     1       1.494   3.242  21.684  0.00  0.00    +0.000 Cl
ATOM     10  C   UNL     1       2.698   4.262  19.373  0.00  0.00    +0.000 A 
ATOM     11  C   UNL     1       3.171   2.889  18.895  0.00  0.00    +0.000 C 
ATOM     12  C   UNL     1       4.186   2.304  19.906  0.00  0.00    +0.000 C 
ATOM     13  C   UNL     1       1.972   1.936  18.681  0.00  0.00    +0.000 C 
ATOM     14  C   UNL     1       3.896   2.909  17.524  0.00  0.00    +0.000 C 
ATOM     15  H   UNL     1       5.289   3.330  15.475  0.00  0.00    +0.000 HD
ENDROOT
BRANCH   1  16
ATOM     16  C   UNL     1       5.700   5.349  15.328  0.00  0.00    +0.000 C 
BRANCH  16  17
ATOM     17  C   UNL     1       7.180   5.050  15.583  0.00  0.00    +0.000 C 
BRANCH  17  18
ATOM     18  C   UNL     1       7.500   4.859  17.073  0.00  0.00    +0.000 C 
BRANCH  18  20
ATOM     19  C   UNL     1       6.792   5.463  19.315  0.00  0.00    +0.000 C 
ATOM     20  N   UNL     1       6.926   5.916  17.929  0.00  0.00    +0.000 NA
ATOM     21  C   UNL     1       7.750   7.126  17.885  0.00  0.00    +0.000 C 
ENDBRANCH  18  20
ENDBRANCH  17  18
ENDBRANCH  16  17
ENDBRANCH   1  16
TORSDOF 4
ENDMDL
MODEL 2
REMARK VINA RESULT:      -6.7      3.503      6.210
REMARK  Name = 
REMARK  8 active torsions:
REMARK  status: ('A' for Active; 'I' for Inactive)
REMARK    1  A    between atoms: C_1  and  N_2
REMARK    2  A    between atoms: N_2  and  C_3
REMARK    3  A    between atoms: N_2  and  C_4
REMARK    4  A    between atoms: C_4  and  C_5
REMARK    5  A    between atoms: C_5  and  C_6
REMARK    6  A    between atoms: C_6  and  N_7
REMARK    7  A    between atoms: C_17  and  C_18
REMARK    8  A    between atoms: C_17  and  C_19
REMARK                            x       y       z     vdW  Elec       q    Type
REMARK                         _______ _______ _______ _____ _____    ______ ____
ROOT
ATOM      1  N   UNL     1       1.427   7.343  21.205  0.00  0.00    +0.000 N 
ATOM      2  C   UNL     1       1.977   6.345  20.428  0.00  0.00    +0.000 C 
ATOM      3  N   UNL     1       2.738   6.621  19.419  0.00  0.00    +0.000 NA
ATOM      4  C   UNL     1       3.284   5.612  18.628  0.00  0.00    +0.000 A 
ATOM      5  C   UNL     1       4.119   6.063  17.588  0.00  0.00    +0.000 A 
ATOM      6  C   UNL     1       4.736   5.184  16.713  0.00  0.00    +0.000 A 
ATOM      7  C   UNL     1       4.518   3.825  16.866  0.00  0.00    +0.000 A 
ATOM      8  C   UNL     1       3.686   3.351  17.888  0.00  0.00    +0.000 A 
ATOM      9 CL   UNL     1       3.509   1.626  17.903  0.00  0.00    +0.000 Cl
ATOM     10  C   UNL     1       3.051   4.236  18.804  0.00  0.00    +0.000 A 
ATOM     11  C   UNL     1       2.127   3.788  19.936  0.00  0.00    +0.000 C 
ATOM     12  C   UNL     1       0.864   3.114  19.345  0.00  0.00    +0.000 C 
ATOM     13  C   UNL     1       2.867   2.844  20.913  0.00  0.00    +0.000 C 
ATOM     14  C   UNL     1       1.613   4.945  20.832  0.00  0.00    +0.000 C 
ATOM     15  H   UNL     1       0.719   7.051  21.873  0.00  0.00    +0.000 HD
ENDROOT
BRANCH   1  16
ATOM     16  C   UNL     1       1.156   8.658  20.651  0.00  0.00    +0.000 C 
BRANCH  16  17
ATOM     17  C   UNL     1       0.053   9.364  21.443  0.00  0.00    +0.000 C 
BRANCH  17  18
ATOM     18  C   UNL     1      -0.284  10.755  20.884  0.00  0.00    +0.000 C 
BRANCH  18  20
ATOM     19  C   UNL     1       1.422  12.457  20.590  0.00  0.00    +0.000 C 
ATOM     20  N   UNL     1       0.483  11.838  21.529  0.00  0.00    +0.000 NA
ATOM     21  C   UNL     1      -0.415  12.861  22.070  0.00  0.00    +0.000 C 
ENDBRANCH  18  20
ENDBRANCH  17  18
ENDBRANCH  16  17
ENDBRANCH   1  16
TORSDOF 4
ENDMDL
MODEL 3
REMARK VINA RESULT:      -6.7      3.456      6.284
REMARK  Name = 
REMARK  8 active torsions:
REMARK  status: ('A' for Active; 'I' for Inactive)
REMARK    1  A    between atoms: C_1  and  N_2
REMARK    2  A    between atoms: N_2  and  C_3
REMARK    3  A    between atoms: N_2  and  C_4
REMARK    4  A    between atoms: C_4  and  C_5
REMARK    5  A    between atoms: C_5  and  C_6
REMARK    6  A    between atoms: C_6  and  N_7
REMARK    7  A    between atoms: C_17  and  C_18
REMARK    8  A    between atoms: C_17  and  C_19
REMARK                            x       y       z     vdW  Elec       q    Type
REMARK                         _______ _______ _______ _____ _____    ______ ____
ROOT
ATOM      1  N   UNL     1       1.468   7.554  20.910  0.00  0.00    +0.000 N 
ATOM      2  C   UNL     1       2.011   6.489  20.222  0.00  0.00    +0.000 C 
ATOM      3  N   UNL     1       2.786   6.671  19.202  0.00  0.00    +0.000 NA
ATOM      4  C   UNL     1       3.324   5.594  18.500  0.00  0.00    +0.000 A 
ATOM      5  C   UNL     1       4.175   5.947  17.436  0.00  0.00    +0.000 A 
ATOM      6  C   UNL     1       4.786   4.991  16.642  0.00  0.00    +0.000 A 
ATOM      7  C   UNL     1       4.546   3.651  16.902  0.00  0.00    +0.000 A 
ATOM      8  C   UNL     1       3.698   3.274  17.951  0.00  0.00    +0.000 A 
ATOM      9 CL   UNL     1       3.495   1.559  18.104  0.00  0.00    +0.000 Cl
ATOM     10  C   UNL     1       3.067   4.239  18.785  0.00  0.00    +0.000 A 
ATOM     11  C   UNL     1       2.126   3.898  19.940  0.00  0.00    +0.000 C 
ATOM     12  C   UNL     1       0.859   3.197  19.392  0.00  0.00    +0.000 C 
ATOM     13  C   UNL     1       2.843   3.026  20.998  0.00  0.00    +0.000 C 
ATOM     14  C   UNL     1       1.622   5.132  20.734  0.00  0.00    +0.000 C 
ATOM     15  H   UNL     1       0.751   7.328  21.591  0.00  0.00    +0.000 HD
ENDROOT
BRANCH   1  16
ATOM     16  C   UNL     1       1.223   8.824  20.248  0.00  0.00    +0.000 C 
BRANCH  16  17
ATOM     17  C   UNL     1       1.191   9.968  21.264  0.00  0.00    +0.000 C 
BRANCH  17  18
ATOM     18  C   UNL     1      -0.082  10.821  21.160  0.00  0.00    +0.000 C 
BRANCH  18  20
ATOM     19  C   UNL     1      -0.385   9.793  23.338  0.00  0.00    +0.000 C 
ATOM     20  N   UNL     1      -0.969  10.682  22.331  0.00  0.00    +0.000 NA
ATOM     21  C   UNL     1      -1.247  11.988  22.932  0.00  0.00    +0.000 C 
ENDBRANCH  18  20
ENDBRANCH  17  18
ENDBRANCH  16  17
ENDBRANCH   1  16
TORSDOF 4
ENDMDL
MODEL 4
REMARK VINA RESULT:      -6.7      3.299      6.127
REMARK  Name = 
REMARK  8 active torsions:
REMARK  status: ('A' for Active; 'I' for Inactive)
REMARK    1  A    between atoms: C_1  and  N_2
REMARK    2  A    between atoms: N_2  and  C_3
REMARK    3  A    between atoms: N_2  and  C_4
REMARK    4  A    between atoms: C_4  and  C_5
REMARK    5  A    between atoms: C_5  and  C_6
REMARK    6  A    between atoms: C_6  and  N_7
REMARK    7  A    between atoms: C_17  and  C_18
REMARK    8  A    between atoms: C_17  and  C_19
REMARK                            x       y       z     vdW  Elec       q    Type
REMARK                         _______ _______ _______ _____ _____    ______ ____
ROOT
ATOM      1  N   UNL     1       1.480   7.349  21.133  0.00  0.00    +0.000 N 
ATOM      2  C   UNL     1       2.023   6.336  20.370  0.00  0.00    +0.000 C 
ATOM      3  N   UNL     1       2.785   6.593  19.355  0.00  0.00    +0.000 NA
ATOM      4  C   UNL     1       3.323   5.569  18.578  0.00  0.00    +0.000 A 
ATOM      5  C   UNL     1       4.158   5.999  17.530  0.00  0.00    +0.000 A 
ATOM      6  C   UNL     1       4.768   5.103  16.668  0.00  0.00    +0.000 A 
ATOM      7  C   UNL     1       4.542   3.747  16.842  0.00  0.00    +0.000 A 
ATOM      8  C   UNL     1       3.710   3.294  17.873  0.00  0.00    +0.000 A 
ATOM      9 CL   UNL     1       3.523   1.570  17.915  0.00  0.00    +0.000 Cl
ATOM     10  C   UNL     1       3.081   4.196  18.776  0.00  0.00    +0.000 A 
ATOM     11  C   UNL     1       2.157   3.772  19.917  0.00  0.00    +0.000 C 
ATOM     12  C   UNL     1       0.890   3.096  19.338  0.00  0.00    +0.000 C 
ATOM     13  C   UNL     1       2.893   2.838  20.907  0.00  0.00    +0.000 C 
ATOM     14  C   UNL     1       1.652   4.945  20.796  0.00  0.00    +0.000 C 
ATOM     15  H   UNL     1       0.773   7.072  21.806  0.00  0.00    +0.000 HD
ENDROOT
BRANCH   1  16
ATOM     16  C   UNL     1       1.217   8.658  20.559  0.00  0.00    +0.000 C 
BRANCH  16  17
ATOM     17  C   UNL     1      -0.110   9.220  21.076  0.00  0.00    +0.000 C 
BRANCH  17  18
ATOM     18  C   UNL     1      -0.264  10.724  20.807  0.00  0.00    +0.000 C 
BRANCH  18  20
ATOM     19  C   UNL     1      -1.817  11.645  19.184  0.00  0.00    +0.000 C 
ATOM     20  N   UNL     1      -0.500  11.035  19.384  0.00  0.00    +0.000 NA
ATOM     21  C   UNL     1       0.538  11.930  18.868  0.00  0.00    +0.000 C 
ENDBRANCH  18  20
ENDBRANCH  17  18
ENDBRANCH  16  17
ENDBRANCH   1  16
TORSDOF 4
ENDMDL
MODEL 5
REMARK VINA RESULT:      -6.6      1.874      3.124
REMARK  Name = 
REMARK  8 active torsions:
REMARK  status: ('A' for Active; 'I' for Inactive)
REMARK    1  A    between atoms: C_1  and  N_2
REMARK    2  A    between atoms: N_2  and  C_3
REMARK    3  A    between atoms: N_2  and  C_4
REMARK    4  A    between atoms: C_4  and  C_5
REMARK    5  A    between atoms: C_5  and  C_6
REMARK    6  A    between atoms: C_6  and  N_7
REMARK    7  A    between atoms: C_17  and  C_18
REMARK    8  A    between atoms: C_17  and  C_19
REMARK                            x       y       z     vdW  Elec       q    Type
REMARK                         _______ _______ _______ _____ _____    ______ ____
ROOT
ATOM      1  N   UNL     1       5.092   4.169  15.653  0.00  0.00    +0.000 N 
ATOM      2  C   UNL     1       4.349   4.254  16.813  0.00  0.00    +0.000 C 
ATOM      3  N   UNL     1       3.943   5.395  17.269  0.00  0.00    +0.000 NA
ATOM      4  C   UNL     1       3.204   5.481  18.447  0.00  0.00    +0.000 A 
ATOM      5  C   UNL     1       2.804   6.783  18.800  0.00  0.00    +0.000 A 
ATOM      6  C   UNL     1       2.064   7.035  19.943  0.00  0.00    +0.000 A 
ATOM      7  C   UNL     1       1.715   5.974  20.762  0.00  0.00    +0.000 A 
ATOM      8  C   UNL     1       2.106   4.668  20.436  0.00  0.00    +0.000 A 
ATOM      9 CL   UNL     1       1.605   3.479  21.594  0.00  0.00    +0.000 Cl
ATOM     10  C   UNL     1       2.858   4.386  19.262  0.00  0.00    +0.000 A 
ATOM     11  C   UNL     1       3.324   2.990  18.851  0.00  0.00    +0.000 C 
ATOM     12  C   UNL     1       4.316   2.439  19.904  0.00  0.00    +0.000 C 
ATOM     13  C   UNL     1       2.118   2.040  18.658  0.00  0.00    +0.000 C 
ATOM     14  C   UNL     1       4.072   2.944  17.493  0.00  0.00    +0.000 C 
ATOM     15  H   UNL     1       5.503   3.262  15.451  0.00  0.00    +0.000 HD
ENDROOT
BRANCH   1  16
ATOM     16  C   UNL     1       5.938   5.269  15.225  0.00  0.00    +0.000 C 
BRANCH  16  17
ATOM     17  C   UNL     1       6.688   4.908  13.941  0.00  0.00    +0.000 C 
BRANCH  17  18
ATOM     18  C   UNL     1       6.417   3.469  13.477  0.00  0.00    +0.000 C 
BRANCH  18  20
ATOM     19  C   UNL     1       6.714   2.170  11.448  0.00  0.00    +0.000 C 
ATOM     20  N   UNL     1       6.119   3.373  12.035  0.00  0.00    +0.000 NA
ATOM     21  C   UNL     1       4.673   3.368  11.803  0.00  0.00    +0.000 C 
ENDBRANCH  18  20
ENDBRANCH  17  18
ENDBRANCH  16  17
ENDBRANCH   1  16
TORSDOF 4
ENDMDL
MODEL 6
REMARK VINA RESULT:      -6.6      3.178      6.073
REMARK  Name = 
REMARK  8 active torsions:
REMARK  status: ('A' for Active; 'I' for Inactive)
REMARK    1  A    between atoms: C_1  and  N_2
REMARK    2  A    between atoms: N_2  and  C_3
REMARK    3  A    between atoms: N_2  and  C_4
REMARK    4  A    between atoms: C_4  and  C_5
REMARK    5  A    between atoms: C_5  and  C_6
REMARK    6  A    between atoms: C_6  and  N_7
REMARK    7  A    between atoms: C_17  and  C_18
REMARK    8  A    between atoms: C_17  and  C_19
REMARK                            x       y       z     vdW  Elec       q    Type
REMARK                         _______ _______ _______ _____ _____    ______ ____
ROOT
ATOM      1  N   UNL     1       1.630   8.112  20.299  0.00  0.00    +0.000 N 
ATOM      2  C   UNL     1       2.106   6.908  19.824  0.00  0.00    +0.000 C 
ATOM      3  N   UNL     1       2.891   6.853  18.797  0.00  0.00    +0.000 NA
ATOM      4  C   UNL     1       3.362   5.635  18.310  0.00  0.00    +0.000 A 
ATOM      5  C   UNL     1       4.234   5.735  17.210  0.00  0.00    +0.000 A 
ATOM      6  C   UNL     1       4.786   4.615  16.610  0.00  0.00    +0.000 A 
ATOM      7  C   UNL     1       4.464   3.363  17.108  0.00  0.00    +0.000 A 
ATOM      8  C   UNL     1       3.593   3.236  18.198  0.00  0.00    +0.000 A 
ATOM      9 CL   UNL     1       3.285   1.593  18.659  0.00  0.00    +0.000 Cl
ATOM     10  C   UNL     1       3.023   4.374  18.834  0.00  0.00    +0.000 A 
ATOM     11  C   UNL     1       2.062   4.307  20.021  0.00  0.00    +0.000 C 
ATOM     12  C   UNL     1       0.755   3.595  19.596  0.00  0.00    +0.000 C 
ATOM     13  C   UNL     1       2.723   3.602  21.229  0.00  0.00    +0.000 C 
ATOM     14  C   UNL     1       1.635   5.693  20.571  0.00  0.00    +0.000 C 
ATOM     15  H   UNL     1       0.899   8.058  21.002  0.00  0.00    +0.000 HD
ENDROOT
BRANCH   1  16
ATOM     16  C   UNL     1       1.464   9.251  19.414  0.00  0.00    +0.000 C 
BRANCH  16  17
ATOM     17  C   UNL     1       0.273  10.108  19.850  0.00  0.00    +0.000 C 
BRANCH  17  18
ATOM     18  C   UNL     1      -0.379   9.605  21.147  0.00  0.00    +0.000 C 
BRANCH  18  20
ATOM     19  C   UNL     1      -0.830  11.462  22.644  0.00  0.00    +0.000 C 
ATOM     20  N   UNL     1       0.068  10.345  22.343  0.00  0.00    +0.000 NA
ATOM     21  C   UNL     1       0.150   9.455  23.504  0.00  0.00    +0.000 C 
ENDBRANCH  18  20
ENDBRANCH  17  18
ENDBRANCH  16  17
ENDBRANCH   1  16
TORSDOF 4
ENDMDL
MODEL 7
REMARK VINA RESULT:      -6.6      2.212      3.509
REMARK  Name = 
REMARK  8 active torsions:
REMARK  status: ('A' for Active; 'I' for Inactive)
REMARK    1  A    between atoms: C_1  and  N_2
REMARK    2  A    between atoms: N_2  and  C_3
REMARK    3  A    between atoms: N_2  and  C_4
REMARK    4  A    between atoms: C_4  and  C_5
REMARK    5  A    between atoms: C_5  and  C_6
REMARK    6  A    between atoms: C_6  and  N_7
REMARK    7  A    between atoms: C_17  and  C_18
REMARK    8  A    between atoms: C_17  and  C_19
REMARK                            x       y       z     vdW  Elec       q    Type
REMARK                         _______ _______ _______ _____ _____    ______ ____
ROOT
ATOM      1  N   UNL     1       5.656   3.387  15.530  0.00  0.00    +0.000 N 
ATOM      2  C   UNL     1       4.816   3.920  16.486  0.00  0.00    +0.000 C 
ATOM      3  N   UNL     1       4.629   5.197  16.580  0.00  0.00    +0.000 NA
ATOM      4  C   UNL     1       3.790   5.735  17.554  0.00  0.00    +0.000 A 
ATOM      5  C   UNL     1       3.658   7.135  17.512  0.00  0.00    +0.000 A 
ATOM      6  C   UNL     1       2.860   7.821  18.414  0.00  0.00    +0.000 A 
ATOM      7  C   UNL     1       2.180   7.105  19.385  0.00  0.00    +0.000 A 
ATOM      8  C   UNL     1       2.300   5.710  19.452  0.00  0.00    +0.000 A 
ATOM      9 CL   UNL     1       1.402   4.993  20.750  0.00  0.00    +0.000 Cl
ATOM     10  C   UNL     1       3.106   4.986  18.530  0.00  0.00    +0.000 A 
ATOM     11  C   UNL     1       3.287   3.469  18.550  0.00  0.00    +0.000 C 
ATOM     12  C   UNL     1       3.990   3.043  19.862  0.00  0.00    +0.000 C 
ATOM     13  C   UNL     1       1.929   2.748  18.376  0.00  0.00    +0.000 C 
ATOM     14  C   UNL     1       4.166   2.918  17.396  0.00  0.00    +0.000 C 
ATOM     15  H   UNL     1       5.871   2.399  15.624  0.00  0.00    +0.000 HD
ENDROOT
BRANCH   1  16
ATOM     16  C   UNL     1       6.777   4.151  15.011  0.00  0.00    +0.000 C 
BRANCH  16  17
ATOM     17  C   UNL     1       6.470   4.679  13.607  0.00  0.00    +0.000 C 
BRANCH  17  18
ATOM     18  C   UNL     1       6.734   3.638  12.509  0.00  0.00    +0.000 C 
BRANCH  18  20
ATOM     19  C   UNL     1       4.470   3.484  11.647  0.00  0.00    +0.000 C 
ATOM     20  N   UNL     1       5.579   2.752  12.262  0.00  0.00    +0.000 NA
ATOM     21  C   UNL     1       5.960   1.627  11.406  0.00  0.00    +0.000 C 
ENDBRANCH  18  20
ENDBRANCH  17  18
ENDBRANCH  16  17
ENDBRANCH   1  16
TORSDOF 4
ENDMDL
MODEL 8
REMARK VINA RESULT:      -6.5      2.810      5.187
REMARK  Name = 
REMARK  8 active torsions:
REMARK  status: ('A' for Active; 'I' for Inactive)
REMARK    1  A    between atoms: C_1  and  N_2
REMARK    2  A    between atoms: N_2  and  C_3
REMARK    3  A    between atoms: N_2  and  C_4
REMARK    4  A    between atoms: C_4  and  C_5
REMARK    5  A    between atoms: C_5  and  C_6
REMARK    6  A    between atoms: C_6  and  N_7
REMARK    7  A    between atoms: C_17  and  C_18
REMARK    8  A    between atoms: C_17  and  C_19
REMARK                            x       y       z     vdW  Elec       q    Type
REMARK                         _______ _______ _______ _____ _____    ______ ____
ROOT
ATOM      1  N   UNL     1       2.821   8.154  17.620  0.00  0.00    +0.000 N 
ATOM      2  C   UNL     1       2.990   6.895  18.157  0.00  0.00    +0.000 C 
ATOM      3  N   UNL     1       2.229   6.463  19.110  0.00  0.00    +0.000 NA
ATOM      4  C   UNL     1       2.408   5.195  19.660  0.00  0.00    +0.000 A 
ATOM      5  C   UNL     1       1.485   4.851  20.665  0.00  0.00    +0.000 A 
ATOM      6  C   UNL     1       1.530   3.626  21.311  0.00  0.00    +0.000 A 
ATOM      7  C   UNL     1       2.517   2.720  20.958  0.00  0.00    +0.000 A 
ATOM      8  C   UNL     1       3.453   3.041  19.966  0.00  0.00    +0.000 A 
ATOM      9 CL   UNL     1       4.628   1.798  19.684  0.00  0.00    +0.000 Cl
ATOM     10  C   UNL     1       3.418   4.290  19.284  0.00  0.00    +0.000 A 
ATOM     11  C   UNL     1       4.410   4.707  18.199  0.00  0.00    +0.000 C 
ATOM     12  C   UNL     1       5.832   4.808  18.801  0.00  0.00    +0.000 C 
ATOM     13  C   UNL     1       4.369   3.724  17.005  0.00  0.00    +0.000 C 
ATOM     14  C   UNL     1       4.114   6.093  17.567  0.00  0.00    +0.000 C 
ATOM     15  H   UNL     1       3.553   8.474  16.992  0.00  0.00    +0.000 HD
ENDROOT
BRANCH   1  16
ATOM     16  C   UNL     1       2.257   9.234  18.410  0.00  0.00    +0.000 C 
BRANCH  16  17
ATOM     17  C   UNL     1       0.848   9.583  17.925  0.00  0.00    +0.000 C 
BRANCH  17  18
ATOM     18  C   UNL     1      -0.048  10.135  19.044  0.00  0.00    +0.000 C 
BRANCH  18  20
ATOM     19  C   UNL     1       0.723  11.500  20.898  0.00  0.00    +0.000 C 
ATOM     20  N   UNL     1       0.613  10.140  20.364  0.00  0.00    +0.000 NA
ATOM     21  C   UNL     1      -0.117   9.298  21.315  0.00  0.00    +0.000 C 
ENDBRANCH  18  20
ENDBRANCH  17  18
ENDBRANCH  16  17
ENDBRANCH   1  16
TORSDOF 4
ENDMDL
MODEL 9
REMARK VINA RESULT:      -6.5      3.328      5.745
REMARK  Name = 
REMARK  8 active torsions:
REMARK  status: ('A' for Active; 'I' for Inactive)
REMARK    1  A    between atoms: C_1  and  N_2
REMARK    2  A    between atoms: N_2  and  C_3
REMARK    3  A    between atoms: N_2  and  C_4
REMARK    4  A    between atoms: C_4  and  C_5
REMARK    5  A    between atoms: C_5  and  C_6
REMARK    6  A    between atoms: C_6  and  N_7
REMARK    7  A    between atoms: C_17  and  C_18
REMARK    8  A    between atoms: C_17  and  C_19
REMARK                            x       y       z     vdW  Elec       q    Type
REMARK                         _______ _______ _______ _____ _____    ______ ____
ROOT
ATOM      1  N   UNL     1       2.510   8.017  17.855  0.00  0.00    +0.000 N 
ATOM      2  C   UNL     1       2.758   6.757  18.359  0.00  0.00    +0.000 C 
ATOM      3  N   UNL     1       1.985   6.226  19.250  0.00  0.00    +0.000 NA
ATOM      4  C   UNL     1       2.243   4.958  19.768  0.00  0.00    +0.000 A 
ATOM      5  C   UNL     1       1.297   4.498  20.703  0.00  0.00    +0.000 A 
ATOM      6  C   UNL     1       1.413   3.258  21.310  0.00  0.00    +0.000 A 
ATOM      7  C   UNL     1       2.494   2.454  20.988  0.00  0.00    +0.000 A 
ATOM      8  C   UNL     1       3.453   2.892  20.064  0.00  0.00    +0.000 A 
ATOM      9 CL   UNL     1       4.747   1.765  19.813  0.00  0.00    +0.000 Cl
ATOM     10  C   UNL     1       3.348   4.157  19.423  0.00  0.00    +0.000 A 
ATOM     11  C   UNL     1       4.359   4.700  18.414  0.00  0.00    +0.000 C 
ATOM     12  C   UNL     1       5.731   4.899  19.104  0.00  0.00    +0.000 C 
ATOM     13  C   UNL     1       4.473   3.763  17.188  0.00  0.00    +0.000 C 
ATOM     14  C   UNL     1       3.980   6.078  17.812  0.00  0.00    +0.000 C 
ATOM     15  H   UNL     1       3.245   8.423  17.284  0.00  0.00    +0.000 HD
ENDROOT
BRANCH   1  16
ATOM     16  C   UNL     1       1.809   9.014  18.645  0.00  0.00    +0.000 C 
BRANCH  16  17
ATOM     17  C   UNL     1       0.660   9.631  17.845  0.00  0.00    +0.000 C 
BRANCH  17  18
ATOM     18  C   UNL     1      -0.176  10.622  18.670  0.00  0.00    +0.000 C 
BRANCH  18  20
ATOM     19  C   UNL     1      -2.335  11.731  18.642  0.00  0.00    +0.000 C 
ATOM     20  N   UNL     1      -1.629  10.460  18.470  0.00  0.00    +0.000 NA
ATOM     21  C   UNL     1      -1.914   9.917  17.139  0.00  0.00    +0.000 C 
ENDBRANCH  18  20
ENDBRANCH  17  18
ENDBRANCH  16  17
ENDBRANCH   1  16
TORSDOF 4
ENDMDL
