MODEL 1
REMARK VINA RESULT:      -8.6      0.000      0.000
REMARK  Name = 
REMARK  9 active torsions:
REMARK  status: ('A' for Active; 'I' for Inactive)
REMARK    1  A    between atoms: C_1  and  O_2
REMARK    2  A    between atoms: O_2  and  C_3
REMARK    3  A    between atoms: C_8  and  O_9
REMARK    4  A    between atoms: O_9  and  C_10
REMARK    5  A    between atoms: C_11  and  N_12
REMARK    6  A    between atoms: C_13  and  C_15
REMARK    7  A    between atoms: C_15  and  N_16
REMARK    8  A    between atoms: N_19  and  C_20
REMARK    9  A    between atoms: C_20  and  C_21
REMARK                            x       y       z     vdW  Elec       q    Type
REMARK                         _______ _______ _______ _____ _____    ______ ____
ROOT
ATOM      1  N   UNL     1       2.789   7.376  18.418  0.00  0.00    +0.000 N 
ATOM      2  C   UNL     1       1.990   8.018  19.331  0.00  0.00    +0.000 C 
ATOM      3  O   UNL     1       1.829   7.625  20.485  0.00  0.00    +0.000 OA
ATOM      4  H   UNL     1       2.713   7.653  17.446  0.00  0.00    +0.000 HD
ENDROOT
BRANCH   1  11
ATOM      5  C   UNL     1       6.620   5.064  16.032  0.00  0.00    +0.000 A 
ATOM      6  C   UNL     1       5.530   4.207  16.289  0.00  0.00    +0.000 A 
ATOM      7  C   UNL     1       4.552   4.644  17.143  0.00  0.00    +0.000 A 
ATOM      8  C   UNL     1       4.644   5.868  17.841  0.00  0.00    +0.000 A 
ATOM      9  C   UNL     1       5.750   6.681  17.651  0.00  0.00    +0.000 A 
ATOM     10  C   UNL     1       6.738   6.295  16.731  0.00  0.00    +0.000 A 
ATOM     11  C   UNL     1       3.442   6.147  18.757  0.00  0.00    +0.000 C 
ATOM     12  C   UNL     1       2.626   4.961  18.352  0.00  0.00    +0.000 A 
ATOM     13  C   UNL     1       1.392   4.352  18.568  0.00  0.00    +0.000 A 
ATOM     14  N   UNL     1       1.270   3.211  17.861  0.00  0.00    +0.000 NA
ATOM     15  N   UNL     1       2.458   3.092  17.199  0.00  0.00    +0.000 N 
ATOM     16  C   UNL     1       3.282   4.124  17.494  0.00  0.00    +0.000 A 
ATOM     17  H   UNL     1       2.601   2.302  16.588  0.00  0.00    +0.000 HD
BRANCH   5  19
ATOM     18  C   UNL     1       7.103   4.567  13.768  0.00  0.00    +0.000 C 
ATOM     19  O   UNL     1       7.575   4.717  15.108  0.00  0.00    +0.000 OA
ENDBRANCH   5  19
BRANCH  10  20
ATOM     20  O   UNL     1       7.702   7.263  16.637  0.00  0.00    +0.000 OA
ATOM     21  C   UNL     1       7.820   8.258  17.637  0.00  0.00    +0.000 C 
ENDBRANCH  10  20
ENDBRANCH   1  11
BRANCH   2  22
ATOM     22  C   UNL     1       1.318   9.287  18.806  0.00  0.00    +0.000 C 
BRANCH  22  23
ATOM     23  N   UNL     1       1.074  10.252  19.901  0.00  0.00    +0.000 NA
ATOM     24  C   UNL     1       1.353  11.647  19.474  0.00  0.00    +0.000 C 
ATOM     25  C   UNL     1       0.261  12.328  18.604  0.00  0.00    +0.000 C 
ATOM     26  N   UNL     1      -1.111  12.231  19.154  0.00  0.00    +0.000 NA
ATOM     27  C   UNL     1      -1.377  10.806  19.436  0.00  0.00    +0.000 C 
ATOM     28  C   UNL     1      -0.331  10.144  20.364  0.00  0.00    +0.000 C 
BRANCH  26  29
ATOM     29  C   UNL     1      -1.231  13.092  20.350  0.00  0.00    +0.000 C 
BRANCH  29  30
ATOM     30  C   UNL     1      -2.539  12.978  21.104  0.00  0.00    +0.000 A 
ATOM     31  C   UNL     1      -2.534  12.684  22.478  0.00  0.00    +0.000 A 
ATOM     32  C   UNL     1      -3.729  12.608  23.194  0.00  0.00    +0.000 A 
ATOM     33  C   UNL     1      -4.942  12.835  22.549  0.00  0.00    +0.000 A 
ATOM     34  C   UNL     1      -4.960  13.132  21.186  0.00  0.00    +0.000 A 
ATOM     35  C   UNL     1      -3.766  13.201  20.466  0.00  0.00    +0.000 A 
ENDBRANCH  29  30
ENDBRANCH  26  29
ENDBRANCH  22  23
ENDBRANCH   2  22
TORSDOF 7
ENDMDL
MODEL 2
REMARK VINA RESULT:      -8.3      1.218      1.539
REMARK  Name = 
REMARK  9 active torsions:
REMARK  status: ('A' for Active; 'I' for Inactive)
REMARK    1  A    between atoms: C_1  and  O_2
REMARK    2  A    between atoms: O_2  and  C_3
REMARK    3  A    between atoms: C_8  and  O_9
REMARK    4  A    between atoms: O_9  and  C_10
REMARK    5  A    between atoms: C_11  and  N_12
REMARK    6  A    between atoms: C_13  and  C_15
REMARK    7  A    between atoms: C_15  and  N_16
REMARK    8  A    between atoms: N_19  and  C_20
REMARK    9  A    between atoms: C_20  and  C_21
REMARK                            x       y       z     vdW  Elec       q    Type
REMARK                         _______ _______ _______ _____ _____    ______ ____
ROOT
ATOM      1  N   UNL     1       2.831   7.104  18.718  0.00  0.00    +0.000 N 
ATOM      2  C   UNL     1       1.986   7.626  19.667  0.00  0.00    +0.000 C 
ATOM      3  O   UNL     1       1.816   7.118  20.773  0.00  0.00    +0.000 OA
ATOM      4  H   UNL     1       2.766   7.471  17.775  0.00  0.00    +0.000 HD
ENDROOT
BRANCH   1  11
ATOM      5  C   UNL     1       6.540   4.983  15.988  0.00  0.00    +0.000 A 
ATOM      6  C   UNL     1       5.483   4.095  16.270  0.00  0.00    +0.000 A 
ATOM      7  C   UNL     1       4.553   4.471  17.204  0.00  0.00    +0.000 A 
ATOM      8  C   UNL     1       4.670   5.662  17.953  0.00  0.00    +0.000 A 
ATOM      9  C   UNL     1       5.748   6.504  17.735  0.00  0.00    +0.000 A 
ATOM     10  C   UNL     1       6.682   6.182  16.737  0.00  0.00    +0.000 A 
ATOM     11  C   UNL     1       3.524   5.874  18.956  0.00  0.00    +0.000 C 
ATOM     12  C   UNL     1       2.704   4.693  18.546  0.00  0.00    +0.000 A 
ATOM     13  C   UNL     1       1.496   4.051  18.808  0.00  0.00    +0.000 A 
ATOM     14  N   UNL     1       1.348   2.943  18.055  0.00  0.00    +0.000 NA
ATOM     15  N   UNL     1       2.493   2.879  17.315  0.00  0.00    +0.000 N 
ATOM     16  C   UNL     1       3.317   3.911  17.608  0.00  0.00    +0.000 A 
ATOM     17  H   UNL     1       2.610   2.121  16.659  0.00  0.00    +0.000 HD
BRANCH   5  19
ATOM     18  C   UNL     1       6.866   4.296  13.745  0.00  0.00    +0.000 C 
ATOM     19  O   UNL     1       7.440   4.700  14.989  0.00  0.00    +0.000 OA
ENDBRANCH   5  19
BRANCH  10  20
ATOM     20  O   UNL     1       7.622   7.171  16.630  0.00  0.00    +0.000 OA
ATOM     21  C   UNL     1       7.901   8.018  17.730  0.00  0.00    +0.000 C 
ENDBRANCH  10  20
ENDBRANCH   1  11
BRANCH   2  22
ATOM     22  C   UNL     1       1.277   8.913  19.248  0.00  0.00    +0.000 C 
BRANCH  22  23
ATOM     23  N   UNL     1       1.557  10.010  20.201  0.00  0.00    +0.000 NA
ATOM     24  C   UNL     1       0.972  11.297  19.744  0.00  0.00    +0.000 C 
ATOM     25  C   UNL     1      -0.555  11.470  19.963  0.00  0.00    +0.000 C 
ATOM     26  N   UNL     1      -1.017  11.164  21.338  0.00  0.00    +0.000 NA
ATOM     27  C   UNL     1      -0.514   9.820  21.685  0.00  0.00    +0.000 C 
ATOM     28  C   UNL     1       1.019   9.665  21.539  0.00  0.00    +0.000 C 
BRANCH  26  29
ATOM     29  C   UNL     1      -0.552  12.216  22.266  0.00  0.00    +0.000 C 
BRANCH  29  30
ATOM     30  C   UNL     1      -1.632  12.868  23.103  0.00  0.00    +0.000 A 
ATOM     31  C   UNL     1      -2.840  12.192  23.343  0.00  0.00    +0.000 A 
ATOM     32  C   UNL     1      -3.831  12.765  24.140  0.00  0.00    +0.000 A 
ATOM     33  C   UNL     1      -3.625  14.016  24.713  0.00  0.00    +0.000 A 
ATOM     34  C   UNL     1      -2.429  14.697  24.486  0.00  0.00    +0.000 A 
ATOM     35  C   UNL     1      -1.438  14.128  23.683  0.00  0.00    +0.000 A 
ENDBRANCH  29  30
ENDBRANCH  26  29
ENDBRANCH  22  23
ENDBRANCH   2  22
TORSDOF 7
ENDMDL
MODEL 3
REMARK VINA RESULT:      -8.3      1.297      1.747
REMARK  Name = 
REMARK  9 active torsions:
REMARK  status: ('A' for Active; 'I' for Inactive)
REMARK    1  A    between atoms: C_1  and  O_2
REMARK    2  A    between atoms: O_2  and  C_3
REMARK    3  A    between atoms: C_8  and  O_9
REMARK    4  A    between atoms: O_9  and  C_10
REMARK    5  A    between atoms: C_11  and  N_12
REMARK    6  A    between atoms: C_13  and  C_15
REMARK    7  A    between atoms: C_15  and  N_16
REMARK    8  A    between atoms: N_19  and  C_20
REMARK    9  A    between atoms: C_20  and  C_21
REMARK                            x       y       z     vdW  Elec       q    Type
REMARK                         _______ _______ _______ _____ _____    ______ ____
ROOT
ATOM      1  N   UNL     1       2.830   7.270  18.525  0.00  0.00    +0.000 N 
ATOM      2  C   UNL     1       2.037   7.902  19.451  0.00  0.00    +0.000 C 
ATOM      3  O   UNL     1       1.880   7.494  20.600  0.00  0.00    +0.000 OA
ATOM      4  H   UNL     1       2.750   7.562  17.557  0.00  0.00    +0.000 HD
ENDROOT
BRANCH   1  11
ATOM      5  C   UNL     1       6.607   4.954  16.060  0.00  0.00    +0.000 A 
ATOM      6  C   UNL     1       5.516   4.102  16.327  0.00  0.00    +0.000 A 
ATOM      7  C   UNL     1       4.554   4.538  17.199  0.00  0.00    +0.000 A 
ATOM      8  C   UNL     1       4.665   5.756  17.906  0.00  0.00    +0.000 A 
ATOM      9  C   UNL     1       5.773   6.562  17.706  0.00  0.00    +0.000 A 
ATOM     10  C   UNL     1       6.745   6.178  16.767  0.00  0.00    +0.000 A 
ATOM     11  C   UNL     1       3.479   6.035  18.844  0.00  0.00    +0.000 C 
ATOM     12  C   UNL     1       2.650   4.857  18.442  0.00  0.00    +0.000 A 
ATOM     13  C   UNL     1       1.415   4.254  18.672  0.00  0.00    +0.000 A 
ATOM     14  N   UNL     1       1.274   3.120  17.957  0.00  0.00    +0.000 NA
ATOM     15  N   UNL     1       2.451   3.000  17.276  0.00  0.00    +0.000 N 
ATOM     16  C   UNL     1       3.287   4.024  17.566  0.00  0.00    +0.000 A 
ATOM     17  H   UNL     1       2.579   2.214  16.656  0.00  0.00    +0.000 HD
BRANCH   5  19
ATOM     18  C   UNL     1       7.153   4.817  13.760  0.00  0.00    +0.000 C 
ATOM     19  O   UNL     1       7.545   4.609  15.118  0.00  0.00    +0.000 OA
ENDBRANCH   5  19
BRANCH  10  20
ATOM     20  O   UNL     1       7.713   7.140  16.666  0.00  0.00    +0.000 OA
ATOM     21  C   UNL     1       7.828   8.150  17.652  0.00  0.00    +0.000 C 
ENDBRANCH  10  20
ENDBRANCH   1  11
BRANCH   2  22
ATOM     22  C   UNL     1       1.367   9.181  18.947  0.00  0.00    +0.000 C 
BRANCH  22  23
ATOM     23  N   UNL     1       0.210   9.546  19.794  0.00  0.00    +0.000 NA
ATOM     24  C   UNL     1       0.624  10.354  20.970  0.00  0.00    +0.000 C 
ATOM     25  C   UNL     1       0.923  11.853  20.699  0.00  0.00    +0.000 C 
ATOM     26  N   UNL     1      -0.136  12.563  19.943  0.00  0.00    +0.000 NA
ATOM     27  C   UNL     1      -0.410  11.780  18.722  0.00  0.00    +0.000 C 
ATOM     28  C   UNL     1      -0.782  10.303  18.993  0.00  0.00    +0.000 C 
BRANCH  26  29
ATOM     29  C   UNL     1      -1.327  12.740  20.800  0.00  0.00    +0.000 C 
BRANCH  29  30
ATOM     30  C   UNL     1      -1.237  13.859  21.816  0.00  0.00    +0.000 A 
ATOM     31  C   UNL     1      -1.351  13.576  23.187  0.00  0.00    +0.000 A 
ATOM     32  C   UNL     1      -1.237  14.591  24.136  0.00  0.00    +0.000 A 
ATOM     33  C   UNL     1      -0.998  15.901  23.728  0.00  0.00    +0.000 A 
ATOM     34  C   UNL     1      -0.878  16.195  22.370  0.00  0.00    +0.000 A 
ATOM     35  C   UNL     1      -1.000  15.182  21.418  0.00  0.00    +0.000 A 
ENDBRANCH  29  30
ENDBRANCH  26  29
ENDBRANCH  22  23
ENDBRANCH   2  22
TORSDOF 7
ENDMDL
MODEL 4
REMARK VINA RESULT:      -8.3      1.683      2.347
REMARK  Name = 
REMARK  9 active torsions:
REMARK  status: ('A' for Active; 'I' for Inactive)
REMARK    1  A    between atoms: C_1  and  O_2
REMARK    2  A    between atoms: O_2  and  C_3
REMARK    3  A    between atoms: C_8  and  O_9
REMARK    4  A    between atoms: O_9  and  C_10
REMARK    5  A    between atoms: C_11  and  N_12
REMARK    6  A    between atoms: C_13  and  C_15
REMARK    7  A    between atoms: C_15  and  N_16
REMARK    8  A    between atoms: N_19  and  C_20
REMARK    9  A    between atoms: C_20  and  C_21
REMARK                            x       y       z     vdW  Elec       q    Type
REMARK                         _______ _______ _______ _____ _____    ______ ____
ROOT
ATOM      1  N   UNL     1       2.604   7.355  18.389  0.00  0.00    +0.000 N 
ATOM      2  C   UNL     1       1.908   8.098  19.312  0.00  0.00    +0.000 C 
ATOM      3  O   UNL     1       1.877   7.829  20.511  0.00  0.00    +0.000 OA
ATOM      4  H   UNL     1       2.420   7.530  17.407  0.00  0.00    +0.000 HD
ENDROOT
BRANCH   1  11
ATOM      5  C   UNL     1       6.540   5.087  16.137  0.00  0.00    +0.000 A 
ATOM      6  C   UNL     1       5.476   4.205  16.413  0.00  0.00    +0.000 A 
ATOM      7  C   UNL     1       4.472   4.639  17.238  0.00  0.00    +0.000 A 
ATOM      8  C   UNL     1       4.515   5.891  17.890  0.00  0.00    +0.000 A 
ATOM      9  C   UNL     1       5.595   6.732  17.684  0.00  0.00    +0.000 A 
ATOM     10  C   UNL     1       6.608   6.347  16.790  0.00  0.00    +0.000 A 
ATOM     11  C   UNL     1       3.292   6.163  18.781  0.00  0.00    +0.000 C 
ATOM     12  C   UNL     1       2.522   4.936  18.412  0.00  0.00    +0.000 A 
ATOM     13  C   UNL     1       1.306   4.294  18.635  0.00  0.00    +0.000 A 
ATOM     14  N   UNL     1       1.231   3.124  17.970  0.00  0.00    +0.000 NA
ATOM     15  N   UNL     1       2.432   3.021  17.328  0.00  0.00    +0.000 N 
ATOM     16  C   UNL     1       3.217   4.090  17.593  0.00  0.00    +0.000 A 
ATOM     17  H   UNL     1       2.608   2.214  16.748  0.00  0.00    +0.000 HD
BRANCH   5  19
ATOM     18  C   UNL     1       7.075   4.561  13.891  0.00  0.00    +0.000 C 
ATOM     19  O   UNL     1       7.518   4.739  15.238  0.00  0.00    +0.000 OA
ENDBRANCH   5  19
BRANCH  10  20
ATOM     20  O   UNL     1       7.541   7.342  16.672  0.00  0.00    +0.000 OA
ATOM     21  C   UNL     1       7.903   8.124  17.795  0.00  0.00    +0.000 C 
ENDBRANCH  10  20
ENDBRANCH   1  11
BRANCH   2  22
ATOM     22  C   UNL     1       1.180   9.310  18.733  0.00  0.00    +0.000 C 
BRANCH  22  23
ATOM     23  N   UNL     1       0.681  10.195  19.809  0.00  0.00    +0.000 NA
ATOM     24  C   UNL     1       1.510  11.420  19.941  0.00  0.00    +0.000 C 
ATOM     25  C   UNL     1       1.261  12.532  18.885  0.00  0.00    +0.000 C 
ATOM     26  N   UNL     1      -0.163  12.900  18.705  0.00  0.00    +0.000 NA
ATOM     27  C   UNL     1      -0.914  11.655  18.448  0.00  0.00    +0.000 C 
ATOM     28  C   UNL     1      -0.728  10.572  19.537  0.00  0.00    +0.000 C 
BRANCH  26  29
ATOM     29  C   UNL     1      -0.643  13.633  19.896  0.00  0.00    +0.000 C 
BRANCH  29  30
ATOM     30  C   UNL     1      -0.943  15.101  19.679  0.00  0.00    +0.000 A 
ATOM     31  C   UNL     1      -0.348  15.790  18.609  0.00  0.00    +0.000 A 
ATOM     32  C   UNL     1      -0.640  17.133  18.375  0.00  0.00    +0.000 A 
ATOM     33  C   UNL     1      -1.539  17.803  19.202  0.00  0.00    +0.000 A 
ATOM     34  C   UNL     1      -2.140  17.130  20.265  0.00  0.00    +0.000 A 
ATOM     35  C   UNL     1      -1.842  15.787  20.505  0.00  0.00    +0.000 A 
ENDBRANCH  29  30
ENDBRANCH  26  29
ENDBRANCH  22  23
ENDBRANCH   2  22
TORSDOF 7
ENDMDL
MODEL 5
REMARK VINA RESULT:      -8.3      1.735      2.496
REMARK  Name = 
REMARK  9 active torsions:
REMARK  status: ('A' for Active; 'I' for Inactive)
REMARK    1  A    between atoms: C_1  and  O_2
REMARK    2  A    between atoms: O_2  and  C_3
REMARK    3  A    between atoms: C_8  and  O_9
REMARK    4  A    between atoms: O_9  and  C_10
REMARK    5  A    between atoms: C_11  and  N_12
REMARK    6  A    between atoms: C_13  and  C_15
REMARK    7  A    between atoms: C_15  and  N_16
REMARK    8  A    between atoms: N_19  and  C_20
REMARK    9  A    between atoms: C_20  and  C_21
REMARK                            x       y       z     vdW  Elec       q    Type
REMARK                         _______ _______ _______ _____ _____    ______ ____
ROOT
ATOM      1  N   UNL     1       2.583   7.361  18.324  0.00  0.00    +0.000 N 
ATOM      2  C   UNL     1       1.887   8.131  19.223  0.00  0.00    +0.000 C 
ATOM      3  O   UNL     1       1.862   7.906  20.431  0.00  0.00    +0.000 OA
ATOM      4  H   UNL     1       2.393   7.500  17.337  0.00  0.00    +0.000 HD
ENDROOT
BRANCH   1  11
ATOM      5  C   UNL     1       6.580   5.091  16.184  0.00  0.00    +0.000 A 
ATOM      6  C   UNL     1       5.524   4.201  16.467  0.00  0.00    +0.000 A 
ATOM      7  C   UNL     1       4.502   4.642  17.266  0.00  0.00    +0.000 A 
ATOM      8  C   UNL     1       4.520   5.910  17.889  0.00  0.00    +0.000 A 
ATOM      9  C   UNL     1       5.592   6.761  17.677  0.00  0.00    +0.000 A 
ATOM     10  C   UNL     1       6.623   6.367  16.808  0.00  0.00    +0.000 A 
ATOM     11  C   UNL     1       3.281   6.188  18.755  0.00  0.00    +0.000 C 
ATOM     12  C   UNL     1       2.531   4.942  18.405  0.00  0.00    +0.000 A 
ATOM     13  C   UNL     1       1.321   4.289  18.627  0.00  0.00    +0.000 A 
ATOM     14  N   UNL     1       1.271   3.103  17.989  0.00  0.00    +0.000 NA
ATOM     15  N   UNL     1       2.481   3.000  17.367  0.00  0.00    +0.000 N 
ATOM     16  C   UNL     1       3.249   4.086  17.617  0.00  0.00    +0.000 A 
ATOM     17  H   UNL     1       2.677   2.182  16.810  0.00  0.00    +0.000 HD
BRANCH   5  19
ATOM     18  C   UNL     1       7.219   4.782  13.925  0.00  0.00    +0.000 C 
ATOM     19  O   UNL     1       7.575   4.734  15.308  0.00  0.00    +0.000 OA
ENDBRANCH   5  19
BRANCH  10  20
ATOM     20  O   UNL     1       7.543   7.371  16.678  0.00  0.00    +0.000 OA
ATOM     21  C   UNL     1       7.914   8.154  17.798  0.00  0.00    +0.000 C 
ENDBRANCH  10  20
ENDBRANCH   1  11
BRANCH   2  22
ATOM     22  C   UNL     1       1.148   9.318  18.605  0.00  0.00    +0.000 C 
BRANCH  22  23
ATOM     23  N   UNL     1       0.602  10.210  19.652  0.00  0.00    +0.000 NA
ATOM     24  C   UNL     1       1.380  11.470  19.760  0.00  0.00    +0.000 C 
ATOM     25  C   UNL     1       1.098  12.543  18.673  0.00  0.00    +0.000 C 
ATOM     26  N   UNL     1      -0.337  12.849  18.470  0.00  0.00    +0.000 NA
ATOM     27  C   UNL     1      -1.035  11.569  18.238  0.00  0.00    +0.000 C 
ATOM     28  C   UNL     1      -0.818  10.522  19.357  0.00  0.00    +0.000 C 
BRANCH  26  29
ATOM     29  C   UNL     1      -0.859  13.593  19.636  0.00  0.00    +0.000 C 
BRANCH  29  30
ATOM     30  C   UNL     1      -0.397  15.030  19.751  0.00  0.00    +0.000 A 
ATOM     31  C   UNL     1       0.093  15.515  20.975  0.00  0.00    +0.000 A 
ATOM     32  C   UNL     1       0.554  16.827  21.088  0.00  0.00    +0.000 A 
ATOM     33  C   UNL     1       0.540  17.667  19.977  0.00  0.00    +0.000 A 
ATOM     34  C   UNL     1       0.060  17.196  18.755  0.00  0.00    +0.000 A 
ATOM     35  C   UNL     1      -0.409  15.886  18.642  0.00  0.00    +0.000 A 
ENDBRANCH  29  30
ENDBRANCH  26  29
ENDBRANCH  22  23
ENDBRANCH   2  22
TORSDOF 7
ENDMDL
MODEL 6
REMARK VINA RESULT:      -8.2      0.892      1.365
REMARK  Name = 
REMARK  9 active torsions:
REMARK  status: ('A' for Active; 'I' for Inactive)
REMARK    1  A    between atoms: C_1  and  O_2
REMARK    2  A    between atoms: O_2  and  C_3
REMARK    3  A    between atoms: C_8  and  O_9
REMARK    4  A    between atoms: O_9  and  C_10
REMARK    5  A    between atoms: C_11  and  N_12
REMARK    6  A    between atoms: C_13  and  C_15
REMARK    7  A    between atoms: C_15  and  N_16
REMARK    8  A    between atoms: N_19  and  C_20
REMARK    9  A    between atoms: C_20  and  C_21
REMARK                            x       y       z     vdW  Elec       q    Type
REMARK                         _______ _______ _______ _____ _____    ______ ____
ROOT
ATOM      1  N   UNL     1       2.737   7.440  18.465  0.00  0.00    +0.000 N 
ATOM      2  C   UNL     1       1.987   8.102  19.405  0.00  0.00    +0.000 C 
ATOM      3  O   UNL     1       1.878   7.727  20.570  0.00  0.00    +0.000 OA
ATOM      4  H   UNL     1       2.617   7.704  17.493  0.00  0.00    +0.000 HD
ENDROOT
BRANCH   1  11
ATOM      5  C   UNL     1       6.572   5.166  16.049  0.00  0.00    +0.000 A 
ATOM      6  C   UNL     1       5.486   4.303  16.299  0.00  0.00    +0.000 A 
ATOM      7  C   UNL     1       4.507   4.727  17.159  0.00  0.00    +0.000 A 
ATOM      8  C   UNL     1       4.597   5.945  17.869  0.00  0.00    +0.000 A 
ATOM      9  C   UNL     1       5.699   6.763  17.686  0.00  0.00    +0.000 A 
ATOM     10  C   UNL     1       6.687   6.390  16.760  0.00  0.00    +0.000 A 
ATOM     11  C   UNL     1       3.395   6.211  18.790  0.00  0.00    +0.000 C 
ATOM     12  C   UNL     1       2.583   5.025  18.375  0.00  0.00    +0.000 A 
ATOM     13  C   UNL     1       1.352   4.409  18.586  0.00  0.00    +0.000 A 
ATOM     14  N   UNL     1       1.232   3.275  17.868  0.00  0.00    +0.000 NA
ATOM     15  N   UNL     1       2.420   3.168  17.203  0.00  0.00    +0.000 N 
ATOM     16  C   UNL     1       3.240   4.200  17.507  0.00  0.00    +0.000 A 
ATOM     17  H   UNL     1       2.564   2.384  16.584  0.00  0.00    +0.000 HD
BRANCH   5  19
ATOM     18  C   UNL     1       7.025   4.461  13.834  0.00  0.00    +0.000 C 
ATOM     19  O   UNL     1       7.527   4.832  15.120  0.00  0.00    +0.000 OA
ENDBRANCH   5  19
BRANCH  10  20
ATOM     20  O   UNL     1       7.647   7.362  16.674  0.00  0.00    +0.000 OA
ATOM     21  C   UNL     1       7.962   8.162  17.799  0.00  0.00    +0.000 C 
ENDBRANCH  10  20
ENDBRANCH   1  11
BRANCH   2  22
ATOM     22  C   UNL     1       1.302   9.369  18.894  0.00  0.00    +0.000 C 
BRANCH  22  23
ATOM     23  N   UNL     1      -0.075   9.482  19.425  0.00  0.00    +0.000 NA
ATOM     24  C   UNL     1      -0.088  10.034  20.804  0.00  0.00    +0.000 C 
ATOM     25  C   UNL     1       0.106  11.569  20.928  0.00  0.00    +0.000 C 
ATOM     26  N   UNL     1      -0.779  12.373  20.052  0.00  0.00    +0.000 NA
ATOM     27  C   UNL     1      -0.623  11.862  18.675  0.00  0.00    +0.000 C 
ATOM     28  C   UNL     1      -0.889  10.344  18.534  0.00  0.00    +0.000 C 
BRANCH  26  29
ATOM     29  C   UNL     1      -2.171  12.298  20.545  0.00  0.00    +0.000 C 
BRANCH  29  30
ATOM     30  C   UNL     1      -2.427  12.979  21.873  0.00  0.00    +0.000 A 
ATOM     31  C   UNL     1      -1.959  14.285  22.095  0.00  0.00    +0.000 A 
ATOM     32  C   UNL     1      -2.216  14.938  23.301  0.00  0.00    +0.000 A 
ATOM     33  C   UNL     1      -2.952  14.298  24.295  0.00  0.00    +0.000 A 
ATOM     34  C   UNL     1      -3.426  13.003  24.085  0.00  0.00    +0.000 A 
ATOM     35  C   UNL     1      -3.163  12.345  22.882  0.00  0.00    +0.000 A 
ENDBRANCH  29  30
ENDBRANCH  26  29
ENDBRANCH  22  23
ENDBRANCH   2  22
TORSDOF 7
ENDMDL
MODEL 7
REMARK VINA RESULT:      -8.2      1.420      1.964
REMARK  Name = 
REMARK  9 active torsions:
REMARK  status: ('A' for Active; 'I' for Inactive)
REMARK    1  A    between atoms: C_1  and  O_2
REMARK    2  A    between atoms: O_2  and  C_3
REMARK    3  A    between atoms: C_8  and  O_9
REMARK    4  A    between atoms: O_9  and  C_10
REMARK    5  A    between atoms: C_11  and  N_12
REMARK    6  A    between atoms: C_13  and  C_15
REMARK    7  A    between atoms: C_15  and  N_16
REMARK    8  A    between atoms: N_19  and  C_20
REMARK    9  A    between atoms: C_20  and  C_21
REMARK                            x       y       z     vdW  Elec       q    Type
REMARK                         _______ _______ _______ _____ _____    ______ ____
ROOT
ATOM      1  N   UNL     1       3.054   6.983  19.065  0.00  0.00    +0.000 N 
ATOM      2  C   UNL     1       2.085   7.330  19.975  0.00  0.00    +0.000 C 
ATOM      3  O   UNL     1       1.721   6.594  20.890  0.00  0.00    +0.000 OA
ATOM      4  H   UNL     1       3.154   7.562  18.239  0.00  0.00    +0.000 HD
ENDROOT
BRANCH   1  11
ATOM      5  C   UNL     1       6.495   5.004  15.911  0.00  0.00    +0.000 A 
ATOM      6  C   UNL     1       5.382   4.163  16.115  0.00  0.00    +0.000 A 
ATOM      7  C   UNL     1       4.516   4.470  17.130  0.00  0.00    +0.000 A 
ATOM      8  C   UNL     1       4.749   5.534  18.030  0.00  0.00    +0.000 A 
ATOM      9  C   UNL     1       5.881   6.318  17.883  0.00  0.00    +0.000 A 
ATOM     10  C   UNL     1       6.754   6.072  16.811  0.00  0.00    +0.000 A 
ATOM     11  C   UNL     1       3.657   5.685  19.101  0.00  0.00    +0.000 C 
ATOM     12  C   UNL     1       2.734   4.635  18.569  0.00  0.00    +0.000 A 
ATOM     13  C   UNL     1       1.490   4.051  18.793  0.00  0.00    +0.000 A 
ATOM     14  N   UNL     1       1.232   3.073  17.902  0.00  0.00    +0.000 NA
ATOM     15  N   UNL     1       2.344   3.031  17.112  0.00  0.00    +0.000 N 
ATOM     16  C   UNL     1       3.254   3.950  17.507  0.00  0.00    +0.000 A 
ATOM     17  H   UNL     1       2.380   2.367  16.353  0.00  0.00    +0.000 HD
BRANCH   5  19
ATOM     18  C   UNL     1       6.716   4.284  13.666  0.00  0.00    +0.000 C 
ATOM     19  O   UNL     1       7.337   4.799  14.846  0.00  0.00    +0.000 OA
ENDBRANCH   5  19
BRANCH  10  20
ATOM     20  O   UNL     1       7.764   6.996  16.800  0.00  0.00    +0.000 OA
ATOM     21  C   UNL     1       7.692   8.148  17.620  0.00  0.00    +0.000 C 
ENDBRANCH  10  20
ENDBRANCH   1  11
BRANCH   2  22
ATOM     22  C   UNL     1       1.497   8.727  19.776  0.00  0.00    +0.000 C 
BRANCH  22  23
ATOM     23  N   UNL     1       0.147   8.826  20.373  0.00  0.00    +0.000 NA
ATOM     24  C   UNL     1       0.197   8.768  21.856  0.00  0.00    +0.000 C 
ATOM     25  C   UNL     1       0.633  10.071  22.578  0.00  0.00    +0.000 C 
ATOM     26  N   UNL     1      -0.094  11.287  22.144  0.00  0.00    +0.000 NA
ATOM     27  C   UNL     1       0.004  11.360  20.672  0.00  0.00    +0.000 C 
ATOM     28  C   UNL     1      -0.500  10.091  19.945  0.00  0.00    +0.000 C 
BRANCH  26  29
ATOM     29  C   UNL     1      -1.489  11.235  22.631  0.00  0.00    +0.000 C 
BRANCH  29  30
ATOM     30  C   UNL     1      -2.008  12.514  23.253  0.00  0.00    +0.000 A 
ATOM     31  C   UNL     1      -3.317  12.570  23.759  0.00  0.00    +0.000 A 
ATOM     32  C   UNL     1      -3.798  13.730  24.365  0.00  0.00    +0.000 A 
ATOM     33  C   UNL     1      -2.974  14.847  24.481  0.00  0.00    +0.000 A 
ATOM     34  C   UNL     1      -1.671  14.803  23.988  0.00  0.00    +0.000 A 
ATOM     35  C   UNL     1      -1.190  13.645  23.374  0.00  0.00    +0.000 A 
ENDBRANCH  29  30
ENDBRANCH  26  29
ENDBRANCH  22  23
ENDBRANCH   2  22
TORSDOF 7
ENDMDL
MODEL 8
REMARK VINA RESULT:      -8.1      1.823      2.948
REMARK  Name = 
REMARK  9 active torsions:
REMARK  status: ('A' for Active; 'I' for Inactive)
REMARK    1  A    between atoms: C_1  and  O_2
REMARK    2  A    between atoms: O_2  and  C_3
REMARK    3  A    between atoms: C_8  and  O_9
REMARK    4  A    between atoms: O_9  and  C_10
REMARK    5  A    between atoms: C_11  and  N_12
REMARK    6  A    between atoms: C_13  and  C_15
REMARK    7  A    between atoms: C_15  and  N_16
REMARK    8  A    between atoms: N_19  and  C_20
REMARK    9  A    between atoms: C_20  and  C_21
REMARK                            x       y       z     vdW  Elec       q    Type
REMARK                         _______ _______ _______ _____ _____    ______ ____
ROOT
ATOM      1  N   UNL     1       2.652   7.357  18.567  0.00  0.00    +0.000 N 
ATOM      2  C   UNL     1       1.828   7.967  19.481  0.00  0.00    +0.000 C 
ATOM      3  O   UNL     1       1.673   7.559  20.630  0.00  0.00    +0.000 OA
ATOM      4  H   UNL     1       2.573   7.641  17.597  0.00  0.00    +0.000 HD
ENDROOT
BRANCH   1  11
ATOM      5  C   UNL     1       6.471   5.108  16.103  0.00  0.00    +0.000 A 
ATOM      6  C   UNL     1       5.407   4.230  16.394  0.00  0.00    +0.000 A 
ATOM      7  C   UNL     1       4.440   4.653  17.269  0.00  0.00    +0.000 A 
ATOM      8  C   UNL     1       4.524   5.885  17.955  0.00  0.00    +0.000 A 
ATOM      9  C   UNL     1       5.607   6.719  17.731  0.00  0.00    +0.000 A 
ATOM     10  C   UNL     1       6.580   6.347  16.789  0.00  0.00    +0.000 A 
ATOM     11  C   UNL     1       3.339   6.146  18.899  0.00  0.00    +0.000 C 
ATOM     12  C   UNL     1       2.540   4.939  18.524  0.00  0.00    +0.000 A 
ATOM     13  C   UNL     1       1.325   4.305  18.775  0.00  0.00    +0.000 A 
ATOM     14  N   UNL     1       1.209   3.157  18.081  0.00  0.00    +0.000 NA
ATOM     15  N   UNL     1       2.383   3.058  17.390  0.00  0.00    +0.000 N 
ATOM     16  C   UNL     1       3.192   4.109  17.656  0.00  0.00    +0.000 A 
ATOM     17  H   UNL     1       2.527   2.266  16.782  0.00  0.00    +0.000 HD
BRANCH   5  19
ATOM     18  C   UNL     1       6.895   4.517  13.850  0.00  0.00    +0.000 C 
ATOM     19  O   UNL     1       7.410   4.774  15.158  0.00  0.00    +0.000 OA
ENDBRANCH   5  19
BRANCH  10  20
ATOM     20  O   UNL     1       7.520   7.334  16.664  0.00  0.00    +0.000 OA
ATOM     21  C   UNL     1       7.784   8.215  17.740  0.00  0.00    +0.000 C 
ENDBRANCH  10  20
ENDBRANCH   1  11
BRANCH   2  22
ATOM     22  C   UNL     1       1.122   9.219  18.964  0.00  0.00    +0.000 C 
BRANCH  22  23
ATOM     23  N   UNL     1       1.676  10.441  19.589  0.00  0.00    +0.000 NA
ATOM     24  C   UNL     1       1.729  11.573  18.629  0.00  0.00    +0.000 C 
ATOM     25  C   UNL     1       0.385  12.300  18.355  0.00  0.00    +0.000 C 
ATOM     26  N   UNL     1      -0.355  12.703  19.574  0.00  0.00    +0.000 NA
ATOM     27  C   UNL     1      -0.489  11.506  20.427  0.00  0.00    +0.000 C 
ATOM     28  C   UNL     1       0.856  10.821  20.765  0.00  0.00    +0.000 C 
BRANCH  26  29
ATOM     29  C   UNL     1       0.352  13.817  20.241  0.00  0.00    +0.000 C 
BRANCH  29  30
ATOM     30  C   UNL     1       0.500  15.079  19.418  0.00  0.00    +0.000 A 
ATOM     31  C   UNL     1      -0.640  15.798  19.023  0.00  0.00    +0.000 A 
ATOM     32  C   UNL     1      -0.519  16.981  18.293  0.00  0.00    +0.000 A 
ATOM     33  C   UNL     1       0.743  17.464  17.958  0.00  0.00    +0.000 A 
ATOM     34  C   UNL     1       1.883  16.763  18.349  0.00  0.00    +0.000 A 
ATOM     35  C   UNL     1       1.764  15.575  19.073  0.00  0.00    +0.000 A 
ENDBRANCH  29  30
ENDBRANCH  26  29
ENDBRANCH  22  23
ENDBRANCH   2  22
TORSDOF 7
ENDMDL
MODEL 9
REMARK VINA RESULT:      -7.9      2.263      3.293
REMARK  Name = 
REMARK  9 active torsions:
REMARK  status: ('A' for Active; 'I' for Inactive)
REMARK    1  A    between atoms: C_1  and  O_2
REMARK    2  A    between atoms: O_2  and  C_3
REMARK    3  A    between atoms: C_8  and  O_9
REMARK    4  A    between atoms: O_9  and  C_10
REMARK    5  A    between atoms: C_11  and  N_12
REMARK    6  A    between atoms: C_13  and  C_15
REMARK    7  A    between atoms: C_15  and  N_16
REMARK    8  A    between atoms: N_19  and  C_20
REMARK    9  A    between atoms: C_20  and  C_21
REMARK                            x       y       z     vdW  Elec       q    Type
REMARK                         _______ _______ _______ _____ _____    ______ ____
ROOT
ATOM      1  N   UNL     1       2.159   7.430  19.143  0.00  0.00    +0.000 N 
ATOM      2  C   UNL     1       1.534   8.284  20.018  0.00  0.00    +0.000 C 
ATOM      3  O   UNL     1       1.623   8.185  21.240  0.00  0.00    +0.000 OA
ATOM      4  H   UNL     1       1.879   7.464  18.169  0.00  0.00    +0.000 HD
ENDROOT
BRANCH   1  11
ATOM      5  C   UNL     1       5.567   4.602  16.672  0.00  0.00    +0.000 A 
ATOM      6  C   UNL     1       4.580   3.836  17.325  0.00  0.00    +0.000 A 
ATOM      7  C   UNL     1       3.762   4.466  18.225  0.00  0.00    +0.000 A 
ATOM      8  C   UNL     1       3.933   5.820  18.588  0.00  0.00    +0.000 A 
ATOM      9  C   UNL     1       4.949   6.560  18.006  0.00  0.00    +0.000 A 
ATOM     10  C   UNL     1       5.763   5.963  17.029  0.00  0.00    +0.000 A 
ATOM     11  C   UNL     1       2.913   6.313  19.627  0.00  0.00    +0.000 C 
ATOM     12  C   UNL     1       2.086   5.069  19.673  0.00  0.00    +0.000 A 
ATOM     13  C   UNL     1       0.940   4.533  20.257  0.00  0.00    +0.000 A 
ATOM     14  N   UNL     1       0.734   3.258  19.872  0.00  0.00    +0.000 NA
ATOM     15  N   UNL     1       1.781   2.981  19.041  0.00  0.00    +0.000 N 
ATOM     16  C   UNL     1       2.603   4.050  18.923  0.00  0.00    +0.000 A 
ATOM     17  H   UNL     1       1.839   2.069  18.615  0.00  0.00    +0.000 HD
BRANCH   5  19
ATOM     18  C   UNL     1       5.839   4.177  14.358  0.00  0.00    +0.000 C 
ATOM     19  O   UNL     1       6.345   4.043  15.688  0.00  0.00    +0.000 OA
ENDBRANCH   5  19
BRANCH  10  20
ATOM     20  O   UNL     1       6.652   6.877  16.530  0.00  0.00    +0.000 OA
ATOM     21  C   UNL     1       7.525   7.578  17.397  0.00  0.00    +0.000 C 
ENDBRANCH  10  20
ENDBRANCH   1  11
BRANCH   2  22
ATOM     22  C   UNL     1       0.722   9.394  19.352  0.00  0.00    +0.000 C 
BRANCH  22  23
ATOM     23  N   UNL     1       0.742  10.630  20.165  0.00  0.00    +0.000 NA
ATOM     24  C   UNL     1       1.803  11.567  19.714  0.00  0.00    +0.000 C 
ATOM     25  C   UNL     1       1.490  12.390  18.435  0.00  0.00    +0.000 C 
ATOM     26  N   UNL     1       0.180  13.081  18.455  0.00  0.00    +0.000 NA
ATOM     27  C   UNL     1      -0.849  12.073  18.780  0.00  0.00    +0.000 C 
ATOM     28  C   UNL     1      -0.579  11.301  20.094  0.00  0.00    +0.000 C 
BRANCH  26  29
ATOM     29  C   UNL     1       0.221  14.201  19.419  0.00  0.00    +0.000 C 
BRANCH  29  30
ATOM     30  C   UNL     1       0.450  15.571  18.815  0.00  0.00    +0.000 A 
ATOM     31  C   UNL     1       1.754  15.993  18.505  0.00  0.00    +0.000 A 
ATOM     32  C   UNL     1       1.978  17.238  17.918  0.00  0.00    +0.000 A 
ATOM     33  C   UNL     1       0.903  18.072  17.625  0.00  0.00    +0.000 A 
ATOM     34  C   UNL     1      -0.396  17.663  17.923  0.00  0.00    +0.000 A 
ATOM     35  C   UNL     1      -0.623  16.421  18.518  0.00  0.00    +0.000 A 
ENDBRANCH  29  30
ENDBRANCH  26  29
ENDBRANCH  22  23
ENDBRANCH   2  22
TORSDOF 7
ENDMDL
