MODEL 1
REMARK VINA RESULT:      -8.3      0.000      0.000
REMARK  Name = 
REMARK  4 active torsions:
REMARK  status: ('A' for Active; 'I' for Inactive)
REMARK    1  A    between atoms: C_2  and  C_11
REMARK    2  A    between atoms: N_3  and  C_4
REMARK    3  A    between atoms: C_4  and  C_5
REMARK    4  A    between atoms: C_5  and  N_6
REMARK                            x       y       z     vdW  Elec       q    Type
REMARK                         _______ _______ _______ _____ _____    ______ ____
ROOT
ATOM      1  C   UNL     1       2.199   7.067  19.451  0.00  0.00    +0.000 A 
ATOM      2  C   UNL     1       2.841   7.113  18.270  0.00  0.00    +0.000 A 
ATOM      3  C   UNL     1       2.825   8.294  17.458  0.00  0.00    +0.000 A 
ATOM      4  C   UNL     1       2.176   9.381  17.886  0.00  0.00    +0.000 A 
ATOM      5  N   UNL     1       1.507   9.411  19.108  0.00  0.00    +0.000 N 
ATOM      6  C   UNL     1       0.861  10.596  19.476  0.00  0.00    +0.000 A 
ATOM      7  O   UNL     1       0.841  11.595  18.756  0.00  0.00    +0.000 OA
ATOM      8  C   UNL     1       0.183  10.621  20.797  0.00  0.00    +0.000 A 
ATOM      9  C   UNL     1       0.233   9.431  21.530  0.00  0.00    +0.000 A 
ATOM     10  C   UNL     1      -0.366   9.371  22.789  0.00  0.00    +0.000 A 
ATOM     11  C   UNL     1      -1.014  10.481  23.319  0.00  0.00    +0.000 A 
ATOM     12  C   UNL     1      -1.078  11.679  22.594  0.00  0.00    +0.000 A 
ATOM     13  C   UNL     1      -1.726  12.796  23.112  0.00  0.00    +0.000 A 
ATOM     14  N   UNL     1      -1.818  13.974  22.467  0.00  0.00    +0.000 NA
ATOM     15  N   UNL     1      -1.254  14.094  21.250  0.00  0.00    +0.000 NA
ATOM     16  C   UNL     1      -0.612  13.032  20.705  0.00  0.00    +0.000 A 
ATOM     17  C   UNL     1      -0.481  11.776  21.321  0.00  0.00    +0.000 A 
ATOM     18  N   UNL     1       0.869   8.272  21.078  0.00  0.00    +0.000 NA
ATOM     19  C   UNL     1       1.477   8.288  19.933  0.00  0.00    +0.000 A 
ENDROOT
BRANCH   1  21
ATOM     20  O   UNL     1       1.315   5.349  20.817  0.00  0.00    +0.000 OA
ATOM     21  C   UNL     1       2.274   5.773  20.182  0.00  0.00    +0.000 C 
ATOM     22  N   UNL     1       3.477   5.110  20.111  0.00  0.00    +0.000 N 
ATOM     23  H   UNL     1       4.111   5.381  19.360  0.00  0.00    +0.000 HD
BRANCH  22  24
ATOM     24  C   UNL     1       3.585   3.791  20.693  0.00  0.00    +0.000 C 
BRANCH  24  25
ATOM     25  C   UNL     1       4.191   2.733  19.757  0.00  0.00    +0.000 C 
BRANCH  25  26
ATOM     26  N   UNL     1       3.138   1.972  19.059  0.00  0.00    +0.000 NA
ATOM     27  C   UNL     1       2.951   2.401  17.669  0.00  0.00    +0.000 C 
ATOM     28  C   UNL     1       1.711   3.271  17.689  0.00  0.00    +0.000 C 
ATOM     29  C   UNL     1       0.836   2.561  18.699  0.00  0.00    +0.000 C 
ATOM     30  C   UNL     1       1.829   2.055  19.731  0.00  0.00    +0.000 C 
ENDBRANCH  25  26
ENDBRANCH  24  25
ENDBRANCH  22  24
ENDBRANCH   1  21
TORSDOF 4
ENDMDL
MODEL 2
REMARK VINA RESULT:      -7.8      0.979      1.262
REMARK  Name = 
REMARK  4 active torsions:
REMARK  status: ('A' for Active; 'I' for Inactive)
REMARK    1  A    between atoms: C_2  and  C_11
REMARK    2  A    between atoms: N_3  and  C_4
REMARK    3  A    between atoms: C_4  and  C_5
REMARK    4  A    between atoms: C_5  and  N_6
REMARK                            x       y       z     vdW  Elec       q    Type
REMARK                         _______ _______ _______ _____ _____    ______ ____
ROOT
ATOM      1  C   UNL     1       2.496   7.325  19.179  0.00  0.00    +0.000 A 
ATOM      2  C   UNL     1       3.004   7.486  17.945  0.00  0.00    +0.000 A 
ATOM      3  C   UNL     1       2.703   8.647  17.159  0.00  0.00    +0.000 A 
ATOM      4  C   UNL     1       1.917   9.601  17.666  0.00  0.00    +0.000 A 
ATOM      5  N   UNL     1       1.374   9.512  18.946  0.00  0.00    +0.000 N 
ATOM      6  C   UNL     1       0.568  10.564  19.395  0.00  0.00    +0.000 A 
ATOM      7  O   UNL     1       0.304  11.545  18.698  0.00  0.00    +0.000 OA
ATOM      8  C   UNL     1       0.026  10.466  20.774  0.00  0.00    +0.000 A 
ATOM      9  C   UNL     1       0.354   9.303  21.477  0.00  0.00    +0.000 A 
ATOM     10  C   UNL     1      -0.102   9.137  22.786  0.00  0.00    +0.000 A 
ATOM     11  C   UNL     1      -0.881  10.114  23.395  0.00  0.00    +0.000 A 
ATOM     12  C   UNL     1      -1.222  11.283  22.701  0.00  0.00    +0.000 A 
ATOM     13  C   UNL     1      -2.003  12.267  23.299  0.00  0.00    +0.000 A 
ATOM     14  N   UNL     1      -2.362  13.411  22.687  0.00  0.00    +0.000 NA
ATOM     15  N   UNL     1      -1.948  13.631  21.424  0.00  0.00    +0.000 NA
ATOM     16  C   UNL     1      -1.184  12.700  20.802  0.00  0.00    +0.000 A 
ATOM     17  C   UNL     1      -0.776  11.486  21.379  0.00  0.00    +0.000 A 
ATOM     18  N   UNL     1       1.137   8.275  20.946  0.00  0.00    +0.000 NA
ATOM     19  C   UNL     1       1.621   8.400  19.750  0.00  0.00    +0.000 A 
ENDROOT
BRANCH   1  21
ATOM     20  O   UNL     1       4.036   5.700  19.946  0.00  0.00    +0.000 OA
ATOM     21  C   UNL     1       2.866   6.064  19.876  0.00  0.00    +0.000 C 
ATOM     22  N   UNL     1       1.825   5.342  20.410  0.00  0.00    +0.000 N 
ATOM     23  H   UNL     1       0.944   5.835  20.550  0.00  0.00    +0.000 HD
BRANCH  22  24
ATOM     24  C   UNL     1       2.121   4.172  21.207  0.00  0.00    +0.000 C 
BRANCH  24  25
ATOM     25  C   UNL     1       1.167   2.988  20.972  0.00  0.00    +0.000 C 
BRANCH  25  26
ATOM     26  N   UNL     1       1.738   2.027  20.010  0.00  0.00    +0.000 NA
ATOM     27  C   UNL     1       3.196   2.134  19.894  0.00  0.00    +0.000 C 
ATOM     28  C   UNL     1       3.433   2.903  18.611  0.00  0.00    +0.000 C 
ATOM     29  C   UNL     1       2.342   2.370  17.709  0.00  0.00    +0.000 C 
ATOM     30  C   UNL     1       1.172   2.165  18.656  0.00  0.00    +0.000 C 
ENDBRANCH  25  26
ENDBRANCH  24  25
ENDBRANCH  22  24
ENDBRANCH   1  21
TORSDOF 4
ENDMDL
MODEL 3
REMARK VINA RESULT:      -7.8      2.187      8.697
REMARK  Name = 
REMARK  4 active torsions:
REMARK  status: ('A' for Active; 'I' for Inactive)
REMARK    1  A    between atoms: C_2  and  C_11
REMARK    2  A    between atoms: N_3  and  C_4
REMARK    3  A    between atoms: C_4  and  C_5
REMARK    4  A    between atoms: C_5  and  N_6
REMARK                            x       y       z     vdW  Elec       q    Type
REMARK                         _______ _______ _______ _____ _____    ______ ____
ROOT
ATOM      1  C   UNL     1       0.925   9.832  20.580  0.00  0.00    +0.000 A 
ATOM      2  C   UNL     1       0.974  10.917  19.788  0.00  0.00    +0.000 A 
ATOM      3  C   UNL     1       1.578  10.864  18.488  0.00  0.00    +0.000 A 
ATOM      4  C   UNL     1       2.086   9.712  18.042  0.00  0.00    +0.000 A 
ATOM      5  N   UNL     1       2.050   8.544  18.801  0.00  0.00    +0.000 N 
ATOM      6  C   UNL     1       2.601   7.383  18.248  0.00  0.00    +0.000 A 
ATOM      7  O   UNL     1       3.134   7.361  17.138  0.00  0.00    +0.000 OA
ATOM      8  C   UNL     1       2.523   6.139  19.057  0.00  0.00    +0.000 A 
ATOM      9  C   UNL     1       1.929   6.269  20.316  0.00  0.00    +0.000 A 
ATOM     10  C   UNL     1       1.801   5.146  21.137  0.00  0.00    +0.000 A 
ATOM     11  C   UNL     1       2.261   3.903  20.715  0.00  0.00    +0.000 A 
ATOM     12  C   UNL     1       2.864   3.760  19.457  0.00  0.00    +0.000 A 
ATOM     13  C   UNL     1       3.331   2.523  19.025  0.00  0.00    +0.000 A 
ATOM     14  N   UNL     1       3.915   2.320  17.829  0.00  0.00    +0.000 NA
ATOM     15  N   UNL     1       4.062   3.365  16.992  0.00  0.00    +0.000 NA
ATOM     16  C   UNL     1       3.621   4.589  17.371  0.00  0.00    +0.000 A 
ATOM     17  C   UNL     1       3.006   4.871  18.602  0.00  0.00    +0.000 A 
ATOM     18  N   UNL     1       1.433   7.475  20.816  0.00  0.00    +0.000 NA
ATOM     19  C   UNL     1       1.488   8.538  20.077  0.00  0.00    +0.000 A 
ENDROOT
BRANCH   1  21
ATOM     20  O   UNL     1       0.793   9.550  22.926  0.00  0.00    +0.000 OA
ATOM     21  C   UNL     1       0.294  10.029  21.913  0.00  0.00    +0.000 C 
ATOM     22  N   UNL     1      -0.874  10.755  21.926  0.00  0.00    +0.000 N 
ATOM     23  H   UNL     1      -1.067  11.336  21.110  0.00  0.00    +0.000 HD
BRANCH  22  24
ATOM     24  C   UNL     1      -1.476  11.091  23.198  0.00  0.00    +0.000 C 
BRANCH  24  25
ATOM     25  C   UNL     1      -2.260  12.414  23.198  0.00  0.00    +0.000 C 
BRANCH  25  26
ATOM     26  N   UNL     1      -3.714  12.172  23.160  0.00  0.00    +0.000 NA
ATOM     27  C   UNL     1      -4.356  12.739  21.969  0.00  0.00    +0.000 C 
ATOM     28  C   UNL     1      -5.015  14.016  22.448  0.00  0.00    +0.000 C 
ATOM     29  C   UNL     1      -5.506  13.628  23.825  0.00  0.00    +0.000 C 
ATOM     30  C   UNL     1      -4.416  12.705  24.341  0.00  0.00    +0.000 C 
ENDBRANCH  25  26
ENDBRANCH  24  25
ENDBRANCH  22  24
ENDBRANCH   1  21
TORSDOF 4
ENDMDL
MODEL 4
REMARK VINA RESULT:      -7.7      2.864      4.636
REMARK  Name = 
REMARK  4 active torsions:
REMARK  status: ('A' for Active; 'I' for Inactive)
REMARK    1  A    between atoms: C_2  and  C_11
REMARK    2  A    between atoms: N_3  and  C_4
REMARK    3  A    between atoms: C_4  and  C_5
REMARK    4  A    between atoms: C_5  and  N_6
REMARK                            x       y       z     vdW  Elec       q    Type
REMARK                         _______ _______ _______ _____ _____    ______ ____
ROOT
ATOM      1  C   UNL     1       2.822   4.725  18.739  0.00  0.00    +0.000 A 
ATOM      2  C   UNL     1       2.598   3.712  19.594  0.00  0.00    +0.000 A 
ATOM      3  C   UNL     1       1.977   3.935  20.867  0.00  0.00    +0.000 A 
ATOM      4  C   UNL     1       1.593   5.168  21.208  0.00  0.00    +0.000 A 
ATOM      5  N   UNL     1       1.774   6.261  20.362  0.00  0.00    +0.000 N 
ATOM      6  C   UNL     1       1.335   7.514  20.802  0.00  0.00    +0.000 A 
ATOM      7  O   UNL     1       0.821   7.690  21.907  0.00  0.00    +0.000 OA
ATOM      8  C   UNL     1       1.505   8.660  19.873  0.00  0.00    +0.000 A 
ATOM      9  C   UNL     1       2.125   8.369  18.654  0.00  0.00    +0.000 A 
ATOM     10  C   UNL     1       2.311   9.386  17.715  0.00  0.00    +0.000 A 
ATOM     11  C   UNL     1       1.889  10.684  17.982  0.00  0.00    +0.000 A 
ATOM     12  C   UNL     1       1.271  10.992  19.202  0.00  0.00    +0.000 A 
ATOM     13  C   UNL     1       0.847  12.286  19.482  0.00  0.00    +0.000 A 
ATOM     14  N   UNL     1       0.245  12.644  20.632  0.00  0.00    +0.000 NA
ATOM     15  N   UNL     1       0.033  11.705  21.575  0.00  0.00    +0.000 NA
ATOM     16  C   UNL     1       0.429  10.429  21.345  0.00  0.00    +0.000 A 
ATOM     17  C   UNL     1       1.064   9.989  20.171  0.00  0.00    +0.000 A 
ATOM     18  N   UNL     1       2.572   7.094  18.300  0.00  0.00    +0.000 NA
ATOM     19  C   UNL     1       2.385   6.107  19.118  0.00  0.00    +0.000 A 
ENDROOT
BRANCH   1  21
ATOM     20  O   UNL     1       3.168   3.358  16.837  0.00  0.00    +0.000 OA
ATOM     21  C   UNL     1       3.496   4.361  17.463  0.00  0.00    +0.000 C 
ATOM     22  N   UNL     1       4.504   5.202  17.052  0.00  0.00    +0.000 N 
ATOM     23  H   UNL     1       4.526   6.134  17.466  0.00  0.00    +0.000 HD
BRANCH  22  24
ATOM     24  C   UNL     1       5.119   4.981  15.762  0.00  0.00    +0.000 C 
BRANCH  24  25
ATOM     25  C   UNL     1       6.405   4.139  15.810  0.00  0.00    +0.000 C 
BRANCH  25  26
ATOM     26  N   UNL     1       7.530   4.916  16.361  0.00  0.00    +0.000 NA
ATOM     27  C   UNL     1       7.948   4.452  17.688  0.00  0.00    +0.000 C 
ATOM     28  C   UNL     1       7.346   5.445  18.661  0.00  0.00    +0.000 C 
ATOM     29  C   UNL     1       7.482   6.752  17.912  0.00  0.00    +0.000 C 
ATOM     30  C   UNL     1       7.236   6.357  16.466  0.00  0.00    +0.000 C 
ENDBRANCH  25  26
ENDBRANCH  24  25
ENDBRANCH  22  24
ENDBRANCH   1  21
TORSDOF 4
ENDMDL
MODEL 5
REMARK VINA RESULT:      -7.7      0.828      1.057
REMARK  Name = 
REMARK  4 active torsions:
REMARK  status: ('A' for Active; 'I' for Inactive)
REMARK    1  A    between atoms: C_2  and  C_11
REMARK    2  A    between atoms: N_3  and  C_4
REMARK    3  A    between atoms: C_4  and  C_5
REMARK    4  A    between atoms: C_5  and  N_6
REMARK                            x       y       z     vdW  Elec       q    Type
REMARK                         _______ _______ _______ _____ _____    ______ ____
ROOT
ATOM      1  C   UNL     1       2.268   7.669  19.223  0.00  0.00    +0.000 A 
ATOM      2  C   UNL     1       2.810   7.844  18.004  0.00  0.00    +0.000 A 
ATOM      3  C   UNL     1       2.546   9.025  17.234  0.00  0.00    +0.000 A 
ATOM      4  C   UNL     1       1.762   9.982  17.740  0.00  0.00    +0.000 A 
ATOM      5  N   UNL     1       1.186   9.877  19.003  0.00  0.00    +0.000 N 
ATOM      6  C   UNL     1       0.385  10.933  19.452  0.00  0.00    +0.000 A 
ATOM      7  O   UNL     1       0.153  11.930  18.768  0.00  0.00    +0.000 OA
ATOM      8  C   UNL     1      -0.193  10.818  20.816  0.00  0.00    +0.000 A 
ATOM      9  C   UNL     1       0.100   9.637  21.504  0.00  0.00    +0.000 A 
ATOM     10  C   UNL     1      -0.392   9.453  22.798  0.00  0.00    +0.000 A 
ATOM     11  C   UNL     1      -1.171  10.431  23.406  0.00  0.00    +0.000 A 
ATOM     12  C   UNL     1      -1.477  11.618  22.726  0.00  0.00    +0.000 A 
ATOM     13  C   UNL     1      -2.258  12.602  23.323  0.00  0.00    +0.000 A 
ATOM     14  N   UNL     1      -2.584  13.763  22.724  0.00  0.00    +0.000 NA
ATOM     15  N   UNL     1      -2.135  14.000  21.476  0.00  0.00    +0.000 NA
ATOM     16  C   UNL     1      -1.370  13.069  20.856  0.00  0.00    +0.000 A 
ATOM     17  C   UNL     1      -0.995  11.838  21.420  0.00  0.00    +0.000 A 
ATOM     18  N   UNL     1       0.879   8.607  20.973  0.00  0.00    +0.000 NA
ATOM     19  C   UNL     1       1.395   8.746  19.792  0.00  0.00    +0.000 A 
ENDROOT
BRANCH   1  21
ATOM     20  O   UNL     1       1.838   5.892  20.726  0.00  0.00    +0.000 OA
ATOM     21  C   UNL     1       2.602   6.390  19.905  0.00  0.00    +0.000 C 
ATOM     22  N   UNL     1       3.810   5.825  19.569  0.00  0.00    +0.000 N 
ATOM     23  H   UNL     1       4.244   6.142  18.702  0.00  0.00    +0.000 HD
BRANCH  22  24
ATOM     24  C   UNL     1       4.145   4.522  20.098  0.00  0.00    +0.000 C 
BRANCH  24  25
ATOM     25  C   UNL     1       3.881   3.358  19.128  0.00  0.00    +0.000 C 
BRANCH  25  26
ATOM     26  N   UNL     1       3.025   2.331  19.750  0.00  0.00    +0.000 NA
ATOM     27  C   UNL     1       1.721   2.200  19.092  0.00  0.00    +0.000 C 
ATOM     28  C   UNL     1       0.750   2.938  19.990  0.00  0.00    +0.000 C 
ATOM     29  C   UNL     1       1.270   2.604  21.370  0.00  0.00    +0.000 C 
ATOM     30  C   UNL     1       2.777   2.579  21.182  0.00  0.00    +0.000 C 
ENDBRANCH  25  26
ENDBRANCH  24  25
ENDBRANCH  22  24
ENDBRANCH   1  21
TORSDOF 4
ENDMDL
MODEL 6
REMARK VINA RESULT:      -7.7      3.310      5.417
REMARK  Name = 
REMARK  4 active torsions:
REMARK  status: ('A' for Active; 'I' for Inactive)
REMARK    1  A    between atoms: C_2  and  C_11
REMARK    2  A    between atoms: N_3  and  C_4
REMARK    3  A    between atoms: C_4  and  C_5
REMARK    4  A    between atoms: C_5  and  N_6
REMARK                            x       y       z     vdW  Elec       q    Type
REMARK                         _______ _______ _______ _____ _____    ______ ____
ROOT
ATOM      1  C   UNL     1       3.369   3.556  19.058  0.00  0.00    +0.000 A 
ATOM      2  C   UNL     1       3.122   2.651  20.022  0.00  0.00    +0.000 A 
ATOM      3  C   UNL     1       2.422   3.010  21.220  0.00  0.00    +0.000 A 
ATOM      4  C   UNL     1       1.987   4.263  21.381  0.00  0.00    +0.000 A 
ATOM      5  N   UNL     1       2.188   5.247  20.414  0.00  0.00    +0.000 N 
ATOM      6  C   UNL     1       1.690   6.530  20.667  0.00  0.00    +0.000 A 
ATOM      7  O   UNL     1       1.108   6.825  21.711  0.00  0.00    +0.000 OA
ATOM      8  C   UNL     1       1.884   7.556  19.611  0.00  0.00    +0.000 A 
ATOM      9  C   UNL     1       2.582   7.136  18.474  0.00  0.00    +0.000 A 
ATOM     10  C   UNL     1       2.796   8.033  17.426  0.00  0.00    +0.000 A 
ATOM     11  C   UNL     1       2.325   9.339  17.503  0.00  0.00    +0.000 A 
ATOM     12  C   UNL     1       1.628   9.776  18.638  0.00  0.00    +0.000 A 
ATOM     13  C   UNL     1       1.155  11.080  18.729  0.00  0.00    +0.000 A 
ATOM     14  N   UNL     1       0.477  11.558  19.789  0.00  0.00    +0.000 NA
ATOM     15  N   UNL     1       0.235  10.738  20.830  0.00  0.00    +0.000 NA
ATOM     16  C   UNL     1       0.678   9.458  20.786  0.00  0.00    +0.000 A 
ATOM     17  C   UNL     1       1.391   8.896  19.714  0.00  0.00    +0.000 A 
ATOM     18  N   UNL     1       3.083   5.843  18.310  0.00  0.00    +0.000 NA
ATOM     19  C   UNL     1       2.874   4.959  19.235  0.00  0.00    +0.000 A 
ENDROOT
BRANCH   1  21
ATOM     20  O   UNL     1       3.896   1.953  17.398  0.00  0.00    +0.000 OA
ATOM     21  C   UNL     1       4.126   3.059  17.878  0.00  0.00    +0.000 C 
ATOM     22  N   UNL     1       5.094   3.901  17.384  0.00  0.00    +0.000 N 
ATOM     23  H   UNL     1       5.035   4.883  17.653  0.00  0.00    +0.000 HD
BRANCH  22  24
ATOM     24  C   UNL     1       5.783   3.538  16.165  0.00  0.00    +0.000 C 
BRANCH  24  25
ATOM     25  C   UNL     1       6.822   4.570  15.693  0.00  0.00    +0.000 C 
BRANCH  25  26
ATOM     26  N   UNL     1       6.485   5.090  14.355  0.00  0.00    +0.000 NA
ATOM     27  C   UNL     1       5.440   4.309  13.686  0.00  0.00    +0.000 C 
ATOM     28  C   UNL     1       6.176   3.436  12.690  0.00  0.00    +0.000 C 
ATOM     29  C   UNL     1       7.275   4.356  12.206  0.00  0.00    +0.000 C 
ATOM     30  C   UNL     1       7.648   5.144  13.450  0.00  0.00    +0.000 C 
ENDBRANCH  25  26
ENDBRANCH  24  25
ENDBRANCH  22  24
ENDBRANCH   1  21
TORSDOF 4
ENDMDL
MODEL 7
REMARK VINA RESULT:      -7.6      3.867      5.798
REMARK  Name = 
REMARK  4 active torsions:
REMARK  status: ('A' for Active; 'I' for Inactive)
REMARK    1  A    between atoms: C_2  and  C_11
REMARK    2  A    between atoms: N_3  and  C_4
REMARK    3  A    between atoms: C_4  and  C_5
REMARK    4  A    between atoms: C_5  and  N_6
REMARK                            x       y       z     vdW  Elec       q    Type
REMARK                         _______ _______ _______ _____ _____    ______ ____
ROOT
ATOM      1  C   UNL     1       4.695   4.453  17.975  0.00  0.00    +0.000 A 
ATOM      2  C   UNL     1       4.707   3.263  18.601  0.00  0.00    +0.000 A 
ATOM      3  C   UNL     1       3.897   3.023  19.760  0.00  0.00    +0.000 A 
ATOM      4  C   UNL     1       3.100   3.990  20.221  0.00  0.00    +0.000 A 
ATOM      5  N   UNL     1       3.021   5.239  19.610  0.00  0.00    +0.000 N 
ATOM      6  C   UNL     1       2.152   6.188  20.160  0.00  0.00    +0.000 A 
ATOM      7  O   UNL     1       1.480   5.970  21.168  0.00  0.00    +0.000 OA
ATOM      8  C   UNL     1       2.056   7.503  19.475  0.00  0.00    +0.000 A 
ATOM      9  C   UNL     1       2.880   7.668  18.357  0.00  0.00    +0.000 A 
ATOM     10  C   UNL     1       2.842   8.868  17.644  0.00  0.00    +0.000 A 
ATOM     11  C   UNL     1       1.996   9.900  18.038  0.00  0.00    +0.000 A 
ATOM     12  C   UNL     1       1.169   9.750  19.159  0.00  0.00    +0.000 A 
ATOM     13  C   UNL     1       0.321  10.776  19.564  0.00  0.00    +0.000 A 
ATOM     14  N   UNL     1      -0.499  10.692  20.629  0.00  0.00    +0.000 NA
ATOM     15  N   UNL     1      -0.510   9.556  21.353  0.00  0.00    +0.000 NA
ATOM     16  C   UNL     1       0.300   8.530  20.996  0.00  0.00    +0.000 A 
ATOM     17  C   UNL     1       1.179   8.551  19.900  0.00  0.00    +0.000 A 
ATOM     18  N   UNL     1       3.753   6.684  17.888  0.00  0.00    +0.000 NA
ATOM     19  C   UNL     1       3.795   5.536  18.488  0.00  0.00    +0.000 A 
ENDROOT
BRANCH   1  21
ATOM     20  O   UNL     1       6.805   4.382  16.906  0.00  0.00    +0.000 OA
ATOM     21  C   UNL     1       5.599   4.579  16.800  0.00  0.00    +0.000 C 
ATOM     22  N   UNL     1       5.002   4.941  15.616  0.00  0.00    +0.000 N 
ATOM     23  H   UNL     1       3.992   4.817  15.550  0.00  0.00    +0.000 HD
BRANCH  22  24
ATOM     24  C   UNL     1       5.797   4.962  14.408  0.00  0.00    +0.000 C 
BRANCH  24  25
ATOM     25  C   UNL     1       6.137   3.570  13.850  0.00  0.00    +0.000 C 
BRANCH  25  26
ATOM     26  N   UNL     1       6.169   3.580  12.376  0.00  0.00    +0.000 NA
ATOM     27  C   UNL     1       5.134   2.731  11.777  0.00  0.00    +0.000 C 
ATOM     28  C   UNL     1       5.856   1.468  11.356  0.00  0.00    +0.000 C 
ATOM     29  C   UNL     1       7.187   2.002  10.875  0.00  0.00    +0.000 C 
ATOM     30  C   UNL     1       7.468   3.152  11.826  0.00  0.00    +0.000 C 
ENDBRANCH  25  26
ENDBRANCH  24  25
ENDBRANCH  22  24
ENDBRANCH   1  21
TORSDOF 4
ENDMDL
MODEL 8
REMARK VINA RESULT:      -7.5      2.710      4.744
REMARK  Name = 
REMARK  4 active torsions:
REMARK  status: ('A' for Active; 'I' for Inactive)
REMARK    1  A    between atoms: C_2  and  C_11
REMARK    2  A    between atoms: N_3  and  C_4
REMARK    3  A    between atoms: C_4  and  C_5
REMARK    4  A    between atoms: C_5  and  N_6
REMARK                            x       y       z     vdW  Elec       q    Type
REMARK                         _______ _______ _______ _____ _____    ______ ____
ROOT
ATOM      1  C   UNL     1       3.081   4.276  18.870  0.00  0.00    +0.000 A 
ATOM      2  C   UNL     1       2.882   3.299  19.772  0.00  0.00    +0.000 A 
ATOM      3  C   UNL     1       2.223   3.558  21.019  0.00  0.00    +0.000 A 
ATOM      4  C   UNL     1       1.778   4.788  21.287  0.00  0.00    +0.000 A 
ATOM      5  N   UNL     1       1.929   5.843  20.390  0.00  0.00    +0.000 N 
ATOM      6  C   UNL     1       1.424   7.096  20.754  0.00  0.00    +0.000 A 
ATOM      7  O   UNL     1       0.878   7.305  21.838  0.00  0.00    +0.000 OA
ATOM      8  C   UNL     1       1.564   8.200  19.770  0.00  0.00    +0.000 A 
ATOM      9  C   UNL     1       2.224   7.876  18.581  0.00  0.00    +0.000 A 
ATOM     10  C   UNL     1       2.386   8.851  17.594  0.00  0.00    +0.000 A 
ATOM     11  C   UNL     1       1.900  10.140  17.785  0.00  0.00    +0.000 A 
ATOM     12  C   UNL     1       1.241  10.481  18.974  0.00  0.00    +0.000 A 
ATOM     13  C   UNL     1       0.754  11.767  19.178  0.00  0.00    +0.000 A 
ATOM     14  N   UNL     1       0.110  12.155  20.295  0.00  0.00    +0.000 NA
ATOM     15  N   UNL     1      -0.081  11.257  21.281  0.00  0.00    +0.000 NA
ATOM     16  C   UNL     1       0.377   9.991  21.126  0.00  0.00    +0.000 A 
ATOM     17  C   UNL     1       1.057   9.521  19.990  0.00  0.00    +0.000 A 
ATOM     18  N   UNL     1       2.736   6.606  18.303  0.00  0.00    +0.000 NA
ATOM     19  C   UNL     1       2.574   5.654  19.168  0.00  0.00    +0.000 A 
ENDROOT
BRANCH   1  21
ATOM     20  O   UNL     1       3.188   3.648  16.590  0.00  0.00    +0.000 OA
ATOM     21  C   UNL     1       3.799   3.879  17.629  0.00  0.00    +0.000 C 
ATOM     22  N   UNL     1       5.166   3.773  17.732  0.00  0.00    +0.000 N 
ATOM     23  H   UNL     1       5.608   4.237  18.525  0.00  0.00    +0.000 HD
BRANCH  22  24
ATOM     24  C   UNL     1       5.940   3.513  16.538  0.00  0.00    +0.000 C 
BRANCH  24  25
ATOM     25  C   UNL     1       7.269   4.283  16.464  0.00  0.00    +0.000 C 
BRANCH  25  26
ATOM     26  N   UNL     1       7.087   5.601  15.831  0.00  0.00    +0.000 NA
ATOM     27  C   UNL     1       7.207   6.712  16.781  0.00  0.00    +0.000 C 
ATOM     28  C   UNL     1       5.783   7.134  17.075  0.00  0.00    +0.000 C 
ATOM     29  C   UNL     1       5.112   6.969  15.729  0.00  0.00    +0.000 C 
ATOM     30  C   UNL     1       5.786   5.737  15.150  0.00  0.00    +0.000 C 
ENDBRANCH  25  26
ENDBRANCH  24  25
ENDBRANCH  22  24
ENDBRANCH   1  21
TORSDOF 4
ENDMDL
MODEL 9
REMARK VINA RESULT:      -7.5      3.151      5.385
REMARK  Name = 
REMARK  4 active torsions:
REMARK  status: ('A' for Active; 'I' for Inactive)
REMARK    1  A    between atoms: C_2  and  C_11
REMARK    2  A    between atoms: N_3  and  C_4
REMARK    3  A    between atoms: C_4  and  C_5
REMARK    4  A    between atoms: C_5  and  N_6
REMARK                            x       y       z     vdW  Elec       q    Type
REMARK                         _______ _______ _______ _____ _____    ______ ____
ROOT
ATOM      1  C   UNL     1      -0.020  11.052  21.954  0.00  0.00    +0.000 A 
ATOM      2  C   UNL     1      -1.152  11.039  22.680  0.00  0.00    +0.000 A 
ATOM      3  C   UNL     1      -2.003  12.191  22.753  0.00  0.00    +0.000 A 
ATOM      4  C   UNL     1      -1.680  13.295  22.074  0.00  0.00    +0.000 A 
ATOM      5  N   UNL     1      -0.534  13.371  21.285  0.00  0.00    +0.000 N 
ATOM      6  C   UNL     1      -0.281  14.567  20.604  0.00  0.00    +0.000 A 
ATOM      7  O   UNL     1      -1.013  15.553  20.695  0.00  0.00    +0.000 OA
ATOM      8  C   UNL     1       0.927  14.618  19.741  0.00  0.00    +0.000 A 
ATOM      9  C   UNL     1       1.713  13.461  19.725  0.00  0.00    +0.000 A 
ATOM     10  C   UNL     1       2.859  13.417  18.929  0.00  0.00    +0.000 A 
ATOM     11  C   UNL     1       3.227  14.513  18.155  0.00  0.00    +0.000 A 
ATOM     12  C   UNL     1       2.452  15.681  18.165  0.00  0.00    +0.000 A 
ATOM     13  C   UNL     1       2.811  16.784  17.398  0.00  0.00    +0.000 A 
ATOM     14  N   UNL     1       2.108  17.931  17.362  0.00  0.00    +0.000 NA
ATOM     15  N   UNL     1       0.989  18.031  18.106  0.00  0.00    +0.000 NA
ATOM     16  C   UNL     1       0.600  16.981  18.869  0.00  0.00    +0.000 A 
ATOM     17  C   UNL     1       1.287  15.758  18.955  0.00  0.00    +0.000 A 
ATOM     18  N   UNL     1       1.414  12.314  20.465  0.00  0.00    +0.000 NA
ATOM     19  C   UNL     1       0.338  12.288  21.187  0.00  0.00    +0.000 A 
ENDROOT
BRANCH   1  21
ATOM     20  O   UNL     1       1.390   9.460  22.995  0.00  0.00    +0.000 OA
ATOM     21  C   UNL     1       0.785   9.800  21.983  0.00  0.00    +0.000 C 
ATOM     22  N   UNL     1       0.816   9.076  20.814  0.00  0.00    +0.000 N 
ATOM     23  H   UNL     1       0.086   9.272  20.129  0.00  0.00    +0.000 HD
BRANCH  22  24
ATOM     24  C   UNL     1       1.474   7.789  20.805  0.00  0.00    +0.000 C 
BRANCH  24  25
ATOM     25  C   UNL     1       2.209   7.463  19.494  0.00  0.00    +0.000 C 
BRANCH  25  26
ATOM     26  N   UNL     1       2.733   6.085  19.506  0.00  0.00    +0.000 NA
ATOM     27  C   UNL     1       2.944   5.543  18.160  0.00  0.00    +0.000 C 
ATOM     28  C   UNL     1       1.759   4.632  17.911  0.00  0.00    +0.000 C 
ATOM     29  C   UNL     1       1.539   4.011  19.273  0.00  0.00    +0.000 C 
ATOM     30  C   UNL     1       1.861   5.144  20.232  0.00  0.00    +0.000 C 
ENDBRANCH  25  26
ENDBRANCH  24  25
ENDBRANCH  22  24
ENDBRANCH   1  21
TORSDOF 4
ENDMDL
