MODEL 1
REMARK VINA RESULT:      -8.7      0.000      0.000
REMARK  Name = 
REMARK  6 active torsions:
REMARK  status: ('A' for Active; 'I' for Inactive)
REMARK    1  A    between atoms: C_1  and  C_2
REMARK    2  A    between atoms: C_4  and  N_5
REMARK    3  A    between atoms: C_6  and  C_8
REMARK    4  A    between atoms: C_8  and  N_9
REMARK    5  A    between atoms: N_12  and  S_13
REMARK    6  A    between atoms: S_13  and  C_16
REMARK                            x       y       z     vdW  Elec       q    Type
REMARK                         _______ _______ _______ _____ _____    ______ ____
ROOT
ATOM      1  N   UNL     1       5.315   3.520  19.119  0.00  0.00    +0.000 NA
ATOM      2  C   UNL     1       4.367   3.197  18.018  0.00  0.00    +0.000 C 
ATOM      3  C   UNL     1       3.520   1.941  18.332  0.00  0.00    +0.000 C 
ATOM      4  N   UNL     1       2.778   2.060  19.625  0.00  0.00    +0.000 NA
ATOM      5  C   UNL     1       3.718   2.459  20.723  0.00  0.00    +0.000 C 
ATOM      6  C   UNL     1       4.526   3.720  20.360  0.00  0.00    +0.000 C 
ENDROOT
BRANCH   4   7
ATOM      7  S   UNL     1       1.308   2.924  19.598  0.00  0.00    +0.000 S 
ATOM      8  O   UNL     1       0.569   2.512  18.424  0.00  0.00    +0.000 OA
ATOM      9  O   UNL     1       0.714   2.838  20.914  0.00  0.00    +0.000 OA
BRANCH   7  10
ATOM     10  C   UNL     1       1.799   4.613  19.322  0.00  0.00    +0.000 A 
ATOM     11  C   UNL     1       2.011   5.057  18.011  0.00  0.00    +0.000 A 
ATOM     12  C   UNL     1       2.297   6.406  17.780  0.00  0.00    +0.000 A 
ATOM     13  C   UNL     1       2.359   7.291  18.853  0.00  0.00    +0.000 A 
ATOM     14  F   UNL     1       2.612   8.586  18.624  0.00  0.00    +0.000 F 
ATOM     15  C   UNL     1       2.147   6.855  20.158  0.00  0.00    +0.000 A 
ATOM     16  C   UNL     1       1.866   5.508  20.399  0.00  0.00    +0.000 A 
ENDBRANCH   7  10
ENDBRANCH   4   7
BRANCH   1  17
ATOM     17  C   UNL     1       6.071   4.758  18.811  0.00  0.00    +0.000 C 
BRANCH  17  19
ATOM     18  N   UNL     1       6.115   4.945  16.381  0.00  0.00    +0.000 N 
ATOM     19  C   UNL     1       6.862   4.626  17.502  0.00  0.00    +0.000 C 
ATOM     20  O   UNL     1       8.030   4.250  17.518  0.00  0.00    +0.000 OA
ATOM     21  H   UNL     1       5.172   5.284  16.516  0.00  0.00    +0.000 HD
BRANCH  18  25
ATOM     22  C   UNL     1       7.257   4.146  11.583  0.00  0.00    +0.000 C 
ATOM     23  C   UNL     1       7.176   4.582  12.995  0.00  0.00    +0.000 A 
ATOM     24  C   UNL     1       6.264   4.186  14.003  0.00  0.00    +0.000 A 
ATOM     25  C   UNL     1       6.642   4.904  15.112  0.00  0.00    +0.000 A 
ATOM     26  O   UNL     1       7.716   5.672  14.789  0.00  0.00    +0.000 OA
ATOM     27  N   UNL     1       8.053   5.477  13.460  0.00  0.00    +0.000 NA
ENDBRANCH  18  25
ENDBRANCH  17  19
ENDBRANCH   1  17
TORSDOF 5
ENDMDL
MODEL 2
REMARK VINA RESULT:      -8.5      5.115      8.728
REMARK  Name = 
REMARK  6 active torsions:
REMARK  status: ('A' for Active; 'I' for Inactive)
REMARK    1  A    between atoms: C_1  and  C_2
REMARK    2  A    between atoms: C_4  and  N_5
REMARK    3  A    between atoms: C_6  and  C_8
REMARK    4  A    between atoms: C_8  and  N_9
REMARK    5  A    between atoms: N_12  and  S_13
REMARK    6  A    between atoms: S_13  and  C_16
REMARK                            x       y       z     vdW  Elec       q    Type
REMARK                         _______ _______ _______ _____ _____    ______ ____
ROOT
ATOM      1  N   UNL     1       1.573   7.055  20.236  0.00  0.00    +0.000 NA
ATOM      2  C   UNL     1       1.784   5.707  20.831  0.00  0.00    +0.000 C 
ATOM      3  C   UNL     1       1.737   4.588  19.764  0.00  0.00    +0.000 C 
ATOM      4  N   UNL     1       2.716   4.813  18.656  0.00  0.00    +0.000 NA
ATOM      5  C   UNL     1       2.556   6.198  18.103  0.00  0.00    +0.000 C 
ATOM      6  C   UNL     1       2.621   7.271  19.208  0.00  0.00    +0.000 C 
ENDROOT
BRANCH   4   7
ATOM      7  S   UNL     1       4.330   4.342  18.938  0.00  0.00    +0.000 S 
ATOM      8  O   UNL     1       4.901   5.262  19.899  0.00  0.00    +0.000 OA
ATOM      9  O   UNL     1       4.346   2.917  19.178  0.00  0.00    +0.000 OA
BRANCH   7  10
ATOM     10  C   UNL     1       5.153   4.651  17.389  0.00  0.00    +0.000 A 
ATOM     11  C   UNL     1       6.212   5.568  17.349  0.00  0.00    +0.000 A 
ATOM     12  C   UNL     1       6.927   5.739  16.161  0.00  0.00    +0.000 A 
ATOM     13  C   UNL     1       6.585   4.994  15.036  0.00  0.00    +0.000 A 
ATOM     14  F   UNL     1       7.286   5.147  13.906  0.00  0.00    +0.000 F 
ATOM     15  C   UNL     1       5.533   4.082  15.071  0.00  0.00    +0.000 A 
ATOM     16  C   UNL     1       4.809   3.906  16.253  0.00  0.00    +0.000 A 
ENDBRANCH   7  10
ENDBRANCH   4   7
BRANCH   1  17
ATOM     17  C   UNL     1       1.678   8.107  21.275  0.00  0.00    +0.000 C 
BRANCH  17  19
ATOM     18  N   UNL     1       0.403  10.127  21.765  0.00  0.00    +0.000 N 
ATOM     19  C   UNL     1       0.317   8.761  21.555  0.00  0.00    +0.000 C 
ATOM     20  O   UNL     1      -0.702   8.079  21.596  0.00  0.00    +0.000 OA
ATOM     21  H   UNL     1       1.305  10.571  21.658  0.00  0.00    +0.000 HD
BRANCH  18  25
ATOM     22  C   UNL     1      -3.496  12.617  23.652  0.00  0.00    +0.000 C 
ATOM     23  C   UNL     1      -2.431  12.021  22.814  0.00  0.00    +0.000 A 
ATOM     24  C   UNL     1      -1.409  11.111  23.179  0.00  0.00    +0.000 A 
ATOM     25  C   UNL     1      -0.704  10.901  22.018  0.00  0.00    +0.000 A 
ATOM     26  O   UNL     1      -1.273  11.631  21.023  0.00  0.00    +0.000 OA
ATOM     27  N   UNL     1      -2.355  12.340  21.518  0.00  0.00    +0.000 NA
ENDBRANCH  18  25
ENDBRANCH  17  19
ENDBRANCH   1  17
TORSDOF 5
ENDMDL
MODEL 3
REMARK VINA RESULT:      -8.5      4.833      7.909
REMARK  Name = 
REMARK  6 active torsions:
REMARK  status: ('A' for Active; 'I' for Inactive)
REMARK    1  A    between atoms: C_1  and  C_2
REMARK    2  A    between atoms: C_4  and  N_5
REMARK    3  A    between atoms: C_6  and  C_8
REMARK    4  A    between atoms: C_8  and  N_9
REMARK    5  A    between atoms: N_12  and  S_13
REMARK    6  A    between atoms: S_13  and  C_16
REMARK                            x       y       z     vdW  Elec       q    Type
REMARK                         _______ _______ _______ _____ _____    ______ ____
ROOT
ATOM      1  N   UNL     1       1.745   6.914  19.902  0.00  0.00    +0.000 NA
ATOM      2  C   UNL     1       2.064   5.665  20.645  0.00  0.00    +0.000 C 
ATOM      3  C   UNL     1       2.193   4.446  19.701  0.00  0.00    +0.000 C 
ATOM      4  N   UNL     1       3.201   4.665  18.618  0.00  0.00    +0.000 NA
ATOM      5  C   UNL     1       2.926   5.961  17.916  0.00  0.00    +0.000 C 
ATOM      6  C   UNL     1       2.818   7.141  18.902  0.00  0.00    +0.000 C 
ENDROOT
BRANCH   4   7
ATOM      7  S   UNL     1       4.838   4.406  19.017  0.00  0.00    +0.000 S 
ATOM      8  O   UNL     1       5.285   5.526  19.817  0.00  0.00    +0.000 OA
ATOM      9  O   UNL     1       4.973   3.050  19.502  0.00  0.00    +0.000 OA
BRANCH   7  10
ATOM     10  C   UNL     1       5.692   4.523  17.459  0.00  0.00    +0.000 A 
ATOM     11  C   UNL     1       5.279   3.715  16.391  0.00  0.00    +0.000 A 
ATOM     12  C   UNL     1       5.877   3.875  15.138  0.00  0.00    +0.000 A 
ATOM     13  C   UNL     1       6.869   4.837  14.965  0.00  0.00    +0.000 A 
ATOM     14  F   UNL     1       7.425   5.000  13.757  0.00  0.00    +0.000 F 
ATOM     15  C   UNL     1       7.282   5.642  16.023  0.00  0.00    +0.000 A 
ATOM     16  C   UNL     1       6.693   5.487  17.280  0.00  0.00    +0.000 A 
ENDBRANCH   7  10
ENDBRANCH   4   7
BRANCH   1  17
ATOM     17  C   UNL     1       1.682   8.071  20.827  0.00  0.00    +0.000 C 
BRANCH  17  19
ATOM     18  N   UNL     1       0.310   9.662  19.590  0.00  0.00    +0.000 N 
ATOM     19  C   UNL     1       0.353   8.829  20.694  0.00  0.00    +0.000 C 
ATOM     20  O   UNL     1      -0.532   8.679  21.531  0.00  0.00    +0.000 OA
ATOM     21  H   UNL     1       1.097   9.655  18.955  0.00  0.00    +0.000 HD
BRANCH  18  25
ATOM     22  C   UNL     1      -3.896  11.667  17.787  0.00  0.00    +0.000 C 
ATOM     23  C   UNL     1      -2.653  11.333  18.518  0.00  0.00    +0.000 A 
ATOM     24  C   UNL     1      -1.775  10.237  18.335  0.00  0.00    +0.000 A 
ATOM     25  C   UNL     1      -0.796  10.417  19.283  0.00  0.00    +0.000 A 
ATOM     26  O   UNL     1      -1.068  11.553  19.980  0.00  0.00    +0.000 OA
ATOM     27  N   UNL     1      -2.235  12.128  19.507  0.00  0.00    +0.000 NA
ENDBRANCH  18  25
ENDBRANCH  17  19
ENDBRANCH   1  17
TORSDOF 5
ENDMDL
MODEL 4
REMARK VINA RESULT:      -8.4      3.837      8.009
REMARK  Name = 
REMARK  6 active torsions:
REMARK  status: ('A' for Active; 'I' for Inactive)
REMARK    1  A    between atoms: C_1  and  C_2
REMARK    2  A    between atoms: C_4  and  N_5
REMARK    3  A    between atoms: C_6  and  C_8
REMARK    4  A    between atoms: C_8  and  N_9
REMARK    5  A    between atoms: N_12  and  S_13
REMARK    6  A    between atoms: S_13  and  C_16
REMARK                            x       y       z     vdW  Elec       q    Type
REMARK                         _______ _______ _______ _____ _____    ______ ____
ROOT
ATOM      1  N   UNL     1       4.008   5.789  19.011  0.00  0.00    +0.000 NA
ATOM      2  C   UNL     1       3.703   5.443  17.596  0.00  0.00    +0.000 C 
ATOM      3  C   UNL     1       4.682   6.121  16.609  0.00  0.00    +0.000 C 
ATOM      4  N   UNL     1       6.112   5.803  16.912  0.00  0.00    +0.000 NA
ATOM      5  C   UNL     1       6.404   6.080  18.357  0.00  0.00    +0.000 C 
ATOM      6  C   UNL     1       5.405   5.372  19.294  0.00  0.00    +0.000 C 
ENDROOT
BRANCH   4   7
ATOM      7  S   UNL     1       6.715   4.316  16.337  0.00  0.00    +0.000 S 
ATOM      8  O   UNL     1       8.062   4.156  16.843  0.00  0.00    +0.000 OA
ATOM      9  O   UNL     1       5.711   3.303  16.574  0.00  0.00    +0.000 OA
BRANCH   7  10
ATOM     10  C   UNL     1       6.858   4.552  14.578  0.00  0.00    +0.000 A 
ATOM     11  C   UNL     1       7.805   5.460  14.086  0.00  0.00    +0.000 A 
ATOM     12  C   UNL     1       7.993   5.576  12.706  0.00  0.00    +0.000 A 
ATOM     13  C   UNL     1       7.244   4.784  11.839  0.00  0.00    +0.000 A 
ATOM     14  F   UNL     1       7.443   4.883  10.518  0.00  0.00    +0.000 F 
ATOM     15  C   UNL     1       6.303   3.879  12.324  0.00  0.00    +0.000 A 
ATOM     16  C   UNL     1       6.104   3.760  13.701  0.00  0.00    +0.000 A 
ENDBRANCH   7  10
ENDBRANCH   4   7
BRANCH   1  17
ATOM     17  C   UNL     1       3.087   5.081  19.933  0.00  0.00    +0.000 C 
BRANCH  17  19
ATOM     18  N   UNL     1       2.282   7.333  20.408  0.00  0.00    +0.000 N 
ATOM     19  C   UNL     1       1.940   5.992  20.393  0.00  0.00    +0.000 C 
ATOM     20  O   UNL     1       0.860   5.510  20.721  0.00  0.00    +0.000 OA
ATOM     21  H   UNL     1       3.198   7.596  20.068  0.00  0.00    +0.000 HD
BRANCH  18  25
ATOM     22  C   UNL     1      -0.737  10.587  22.701  0.00  0.00    +0.000 C 
ATOM     23  C   UNL     1       0.051   9.770  21.751  0.00  0.00    +0.000 A 
ATOM     24  C   UNL     1       0.933   8.694  22.014  0.00  0.00    +0.000 A 
ATOM     25  C   UNL     1       1.392   8.313  20.775  0.00  0.00    +0.000 A 
ATOM     26  O   UNL     1       0.813   9.104  19.834  0.00  0.00    +0.000 OA
ATOM     27  N   UNL     1      -0.026  10.023  20.441  0.00  0.00    +0.000 NA
ENDBRANCH  18  25
ENDBRANCH  17  19
ENDBRANCH   1  17
TORSDOF 5
ENDMDL
MODEL 5
REMARK VINA RESULT:      -8.3      4.827      8.133
REMARK  Name = 
REMARK  6 active torsions:
REMARK  status: ('A' for Active; 'I' for Inactive)
REMARK    1  A    between atoms: C_1  and  C_2
REMARK    2  A    between atoms: C_4  and  N_5
REMARK    3  A    between atoms: C_6  and  C_8
REMARK    4  A    between atoms: C_8  and  N_9
REMARK    5  A    between atoms: N_12  and  S_13
REMARK    6  A    between atoms: S_13  and  C_16
REMARK                            x       y       z     vdW  Elec       q    Type
REMARK                         _______ _______ _______ _____ _____    ______ ____
ROOT
ATOM      1  N   UNL     1       1.717   6.818  20.114  0.00  0.00    +0.000 NA
ATOM      2  C   UNL     1       2.004   5.485  20.708  0.00  0.00    +0.000 C 
ATOM      3  C   UNL     1       2.117   4.380  19.631  0.00  0.00    +0.000 C 
ATOM      4  N   UNL     1       3.138   4.702  18.586  0.00  0.00    +0.000 NA
ATOM      5  C   UNL     1       2.896   6.076  18.037  0.00  0.00    +0.000 C 
ATOM      6  C   UNL     1       2.804   7.136  19.153  0.00  0.00    +0.000 C 
ENDROOT
BRANCH   4   7
ATOM      7  S   UNL     1       4.766   4.363  18.963  0.00  0.00    +0.000 S 
ATOM      8  O   UNL     1       5.266   5.442  19.789  0.00  0.00    +0.000 OA
ATOM      9  O   UNL     1       4.847   2.991  19.411  0.00  0.00    +0.000 OA
BRANCH   7  10
ATOM     10  C   UNL     1       5.611   4.486  17.401  0.00  0.00    +0.000 A 
ATOM     11  C   UNL     1       5.108   3.788  16.295  0.00  0.00    +0.000 A 
ATOM     12  C   UNL     1       5.706   3.960  15.044  0.00  0.00    +0.000 A 
ATOM     13  C   UNL     1       6.788   4.826  14.910  0.00  0.00    +0.000 A 
ATOM     14  F   UNL     1       7.345   5.004  13.705  0.00  0.00    +0.000 F 
ATOM     15  C   UNL     1       7.291   5.522  16.006  0.00  0.00    +0.000 A 
ATOM     16  C   UNL     1       6.703   5.354  17.261  0.00  0.00    +0.000 A 
ENDBRANCH   7  10
ENDBRANCH   4   7
BRANCH   1  17
ATOM     17  C   UNL     1       1.670   7.861  21.166  0.00  0.00    +0.000 C 
BRANCH  17  19
ATOM     18  N   UNL     1       0.472   9.805  20.312  0.00  0.00    +0.000 N 
ATOM     19  C   UNL     1       0.368   8.672  21.100  0.00  0.00    +0.000 C 
ATOM     20  O   UNL     1      -0.622   8.305  21.725  0.00  0.00    +0.000 OA
ATOM     21  H   UNL     1       1.339   9.964  19.816  0.00  0.00    +0.000 HD
BRANCH  18  25
ATOM     22  C   UNL     1      -3.105  13.288  20.499  0.00  0.00    +0.000 C 
ATOM     23  C   UNL     1      -2.177  12.187  20.153  0.00  0.00    +0.000 A 
ATOM     24  C   UNL     1      -1.110  11.646  20.910  0.00  0.00    +0.000 A 
ATOM     25  C   UNL     1      -0.586  10.658  20.111  0.00  0.00    +0.000 A 
ATOM     26  O   UNL     1      -1.301  10.607  18.956  0.00  0.00    +0.000 OA
ATOM     27  N   UNL     1      -2.298  11.568  18.975  0.00  0.00    +0.000 NA
ENDBRANCH  18  25
ENDBRANCH  17  19
ENDBRANCH   1  17
TORSDOF 5
ENDMDL
MODEL 6
REMARK VINA RESULT:      -8.3      4.564      8.000
REMARK  Name = 
REMARK  6 active torsions:
REMARK  status: ('A' for Active; 'I' for Inactive)
REMARK    1  A    between atoms: C_1  and  C_2
REMARK    2  A    between atoms: C_4  and  N_5
REMARK    3  A    between atoms: C_6  and  C_8
REMARK    4  A    between atoms: C_8  and  N_9
REMARK    5  A    between atoms: N_12  and  S_13
REMARK    6  A    between atoms: S_13  and  C_16
REMARK                            x       y       z     vdW  Elec       q    Type
REMARK                         _______ _______ _______ _____ _____    ______ ____
ROOT
ATOM      1  N   UNL     1       1.648   6.191  20.095  0.00  0.00    +0.000 NA
ATOM      2  C   UNL     1       1.634   4.879  20.798  0.00  0.00    +0.000 C 
ATOM      3  C   UNL     1       1.169   3.730  19.873  0.00  0.00    +0.000 C 
ATOM      4  N   UNL     1       1.990   3.630  18.627  0.00  0.00    +0.000 NA
ATOM      5  C   UNL     1       2.069   4.968  17.955  0.00  0.00    +0.000 C 
ATOM      6  C   UNL     1       2.547   6.071  18.919  0.00  0.00    +0.000 C 
ENDROOT
BRANCH   4   7
ATOM      7  S   UNL     1       3.477   2.804  18.742  0.00  0.00    +0.000 S 
ATOM      8  O   UNL     1       3.789   2.642  20.147  0.00  0.00    +0.000 OA
ATOM      9  O   UNL     1       3.425   1.660  17.860  0.00  0.00    +0.000 OA
BRANCH   7  10
ATOM     10  C   UNL     1       4.668   3.954  18.087  0.00  0.00    +0.000 A 
ATOM     11  C   UNL     1       5.510   4.643  18.969  0.00  0.00    +0.000 A 
ATOM     12  C   UNL     1       6.514   5.469  18.457  0.00  0.00    +0.000 A 
ATOM     13  C   UNL     1       6.670   5.592  17.079  0.00  0.00    +0.000 A 
ATOM     14  F   UNL     1       7.647   6.368  16.593  0.00  0.00    +0.000 F 
ATOM     15  C   UNL     1       5.836   4.908  16.198  0.00  0.00    +0.000 A 
ATOM     16  C   UNL     1       4.827   4.083  16.700  0.00  0.00    +0.000 A 
ENDBRANCH   7  10
ENDBRANCH   4   7
BRANCH   1  17
ATOM     17  C   UNL     1       2.150   7.260  20.992  0.00  0.00    +0.000 C 
BRANCH  17  19
ATOM     18  N   UNL     1       0.979   9.017  22.210  0.00  0.00    +0.000 N 
ATOM     19  C   UNL     1       1.245   8.499  20.954  0.00  0.00    +0.000 C 
ATOM     20  O   UNL     1       0.819   8.923  19.884  0.00  0.00    +0.000 OA
ATOM     21  H   UNL     1       1.433   8.593  23.007  0.00  0.00    +0.000 HD
BRANCH  18  25
ATOM     22  C   UNL     1      -2.471  12.435  23.385  0.00  0.00    +0.000 C 
ATOM     23  C   UNL     1      -1.298  11.675  22.896  0.00  0.00    +0.000 A 
ATOM     24  C   UNL     1      -1.016  10.292  23.015  0.00  0.00    +0.000 A 
ATOM     25  C   UNL     1       0.200  10.134  22.392  0.00  0.00    +0.000 A 
ATOM     26  O   UNL     1       0.611  11.343  21.924  0.00  0.00    +0.000 OA
ATOM     27  N   UNL     1      -0.324  12.314  22.242  0.00  0.00    +0.000 NA
ENDBRANCH  18  25
ENDBRANCH  17  19
ENDBRANCH   1  17
TORSDOF 5
ENDMDL
MODEL 7
REMARK VINA RESULT:      -8.2      5.000      8.584
REMARK  Name = 
REMARK  6 active torsions:
REMARK  status: ('A' for Active; 'I' for Inactive)
REMARK    1  A    between atoms: C_1  and  C_2
REMARK    2  A    between atoms: C_4  and  N_5
REMARK    3  A    between atoms: C_6  and  C_8
REMARK    4  A    between atoms: C_8  and  N_9
REMARK    5  A    between atoms: N_12  and  S_13
REMARK    6  A    between atoms: S_13  and  C_16
REMARK                            x       y       z     vdW  Elec       q    Type
REMARK                         _______ _______ _______ _____ _____    ______ ____
ROOT
ATOM      1  N   UNL     1       1.668   6.993  20.252  0.00  0.00    +0.000 NA
ATOM      2  C   UNL     1       1.760   5.584  20.722  0.00  0.00    +0.000 C 
ATOM      3  C   UNL     1       1.747   4.578  19.547  0.00  0.00    +0.000 C 
ATOM      4  N   UNL     1       2.825   4.852  18.547  0.00  0.00    +0.000 NA
ATOM      5  C   UNL     1       2.782   6.291  18.127  0.00  0.00    +0.000 C 
ATOM      6  C   UNL     1       2.808   7.246  19.336  0.00  0.00    +0.000 C 
ENDROOT
BRANCH   4   7
ATOM      7  S   UNL     1       4.383   4.262  18.906  0.00  0.00    +0.000 S 
ATOM      8  O   UNL     1       4.991   5.161  19.865  0.00  0.00    +0.000 OA
ATOM      9  O   UNL     1       4.275   2.848  19.185  0.00  0.00    +0.000 OA
BRANCH   7  10
ATOM     10  C   UNL     1       5.287   4.458  17.384  0.00  0.00    +0.000 A 
ATOM     11  C   UNL     1       4.780   3.885  16.210  0.00  0.00    +0.000 A 
ATOM     12  C   UNL     1       5.429   4.121  14.995  0.00  0.00    +0.000 A 
ATOM     13  C   UNL     1       6.565   4.926  14.965  0.00  0.00    +0.000 A 
ATOM     14  F   UNL     1       7.172   5.165  13.795  0.00  0.00    +0.000 F 
ATOM     15  C   UNL     1       7.072   5.498  16.129  0.00  0.00    +0.000 A 
ATOM     16  C   UNL     1       6.433   5.265  17.349  0.00  0.00    +0.000 A 
ENDBRANCH   7  10
ENDBRANCH   4   7
BRANCH   1  17
ATOM     17  C   UNL     1       1.738   7.932  21.397  0.00  0.00    +0.000 C 
BRANCH  17  19
ATOM     18  N   UNL     1       0.559  10.021  21.831  0.00  0.00    +0.000 N 
ATOM     19  C   UNL     1       0.405   8.663  21.610  0.00  0.00    +0.000 C 
ATOM     20  O   UNL     1      -0.653   8.041  21.594  0.00  0.00    +0.000 OA
ATOM     21  H   UNL     1       1.490  10.412  21.774  0.00  0.00    +0.000 HD
BRANCH  18  25
ATOM     22  C   UNL     1      -3.294  13.188  21.534  0.00  0.00    +0.000 C 
ATOM     23  C   UNL     1      -2.223  12.250  21.940  0.00  0.00    +0.000 A 
ATOM     24  C   UNL     1      -1.232  11.626  21.145  0.00  0.00    +0.000 A 
ATOM     25  C   UNL     1      -0.513  10.858  22.030  0.00  0.00    +0.000 A 
ATOM     26  O   UNL     1      -1.035  11.022  23.274  0.00  0.00    +0.000 OA
ATOM     27  N   UNL     1      -2.112  11.891  23.222  0.00  0.00    +0.000 NA
ENDBRANCH  18  25
ENDBRANCH  17  19
ENDBRANCH   1  17
TORSDOF 5
ENDMDL
MODEL 8
REMARK VINA RESULT:      -8.1      0.875      1.319
REMARK  Name = 
REMARK  6 active torsions:
REMARK  status: ('A' for Active; 'I' for Inactive)
REMARK    1  A    between atoms: C_1  and  C_2
REMARK    2  A    between atoms: C_4  and  N_5
REMARK    3  A    between atoms: C_6  and  C_8
REMARK    4  A    between atoms: C_8  and  N_9
REMARK    5  A    between atoms: N_12  and  S_13
REMARK    6  A    between atoms: S_13  and  C_16
REMARK                            x       y       z     vdW  Elec       q    Type
REMARK                         _______ _______ _______ _____ _____    ______ ____
ROOT
ATOM      1  N   UNL     1       5.148   3.725  18.512  0.00  0.00    +0.000 NA
ATOM      2  C   UNL     1       4.026   3.440  17.577  0.00  0.00    +0.000 C 
ATOM      3  C   UNL     1       3.340   2.089  17.887  0.00  0.00    +0.000 C 
ATOM      4  N   UNL     1       2.859   2.002  19.300  0.00  0.00    +0.000 NA
ATOM      5  C   UNL     1       3.968   2.362  20.244  0.00  0.00    +0.000 C 
ATOM      6  C   UNL     1       4.606   3.720  19.894  0.00  0.00    +0.000 C 
ENDROOT
BRANCH   4   7
ATOM      7  S   UNL     1       1.360   2.733  19.655  0.00  0.00    +0.000 S 
ATOM      8  O   UNL     1       0.405   2.300  18.656  0.00  0.00    +0.000 OA
ATOM      9  O   UNL     1       1.091   2.546  21.064  0.00  0.00    +0.000 OA
BRANCH   7  10
ATOM     10  C   UNL     1       1.640   4.468  19.371  0.00  0.00    +0.000 A 
ATOM     11  C   UNL     1       1.887   5.308  20.465  0.00  0.00    +0.000 A 
ATOM     12  C   UNL     1       2.208   6.650  20.242  0.00  0.00    +0.000 A 
ATOM     13  C   UNL     1       2.286   7.133  18.938  0.00  0.00    +0.000 A 
ATOM     14  F   UNL     1       2.614   8.414  18.729  0.00  0.00    +0.000 F 
ATOM     15  C   UNL     1       2.042   6.301  17.848  0.00  0.00    +0.000 A 
ATOM     16  C   UNL     1       1.715   4.960  18.061  0.00  0.00    +0.000 A 
ENDBRANCH   7  10
ENDBRANCH   4   7
BRANCH   1  17
ATOM     17  C   UNL     1       5.747   5.050  18.223  0.00  0.00    +0.000 C 
BRANCH  17  19
ATOM     18  N   UNL     1       6.899   4.659  16.110  0.00  0.00    +0.000 N 
ATOM     19  C   UNL     1       5.837   5.311  16.712  0.00  0.00    +0.000 C 
ATOM     20  O   UNL     1       5.028   6.052  16.162  0.00  0.00    +0.000 OA
ATOM     21  H   UNL     1       7.464   4.041  16.677  0.00  0.00    +0.000 HD
BRANCH  18  25
ATOM     22  C   UNL     1       7.066   4.273  11.131  0.00  0.00    +0.000 C 
ATOM     23  C   UNL     1       7.246   4.614  12.561  0.00  0.00    +0.000 A 
ATOM     24  C   UNL     1       6.610   4.062  13.699  0.00  0.00    +0.000 A 
ATOM     25  C   UNL     1       7.146   4.750  14.761  0.00  0.00    +0.000 A 
ATOM     26  O   UNL     1       8.051   5.648  14.288  0.00  0.00    +0.000 OA
ATOM     27  N   UNL     1       8.114   5.569  12.907  0.00  0.00    +0.000 NA
ENDBRANCH  18  25
ENDBRANCH  17  19
ENDBRANCH   1  17
TORSDOF 5
ENDMDL
MODEL 9
REMARK VINA RESULT:      -7.9      4.247      7.221
REMARK  Name = 
REMARK  6 active torsions:
REMARK  status: ('A' for Active; 'I' for Inactive)
REMARK    1  A    between atoms: C_1  and  C_2
REMARK    2  A    between atoms: C_4  and  N_5
REMARK    3  A    between atoms: C_6  and  C_8
REMARK    4  A    between atoms: C_8  and  N_9
REMARK    5  A    between atoms: N_12  and  S_13
REMARK    6  A    between atoms: S_13  and  C_16
REMARK                            x       y       z     vdW  Elec       q    Type
REMARK                         _______ _______ _______ _____ _____    ______ ____
ROOT
ATOM      1  N   UNL     1       2.214   6.472  18.587  0.00  0.00    +0.000 NA
ATOM      2  C   UNL     1       3.286   6.171  19.575  0.00  0.00    +0.000 C 
ATOM      3  C   UNL     1       2.966   4.912  20.414  0.00  0.00    +0.000 C 
ATOM      4  N   UNL     1       2.706   3.709  19.563  0.00  0.00    +0.000 NA
ATOM      5  C   UNL     1       1.680   4.031  18.518  0.00  0.00    +0.000 C 
ATOM      6  C   UNL     1       2.055   5.287  17.708  0.00  0.00    +0.000 C 
ENDROOT
BRANCH   4   7
ATOM      7  S   UNL     1       4.066   2.859  18.986  0.00  0.00    +0.000 S 
ATOM      8  O   UNL     1       4.756   2.293  20.126  0.00  0.00    +0.000 OA
ATOM      9  O   UNL     1       3.638   2.019  17.889  0.00  0.00    +0.000 OA
BRANCH   7  10
ATOM     10  C   UNL     1       5.129   4.128  18.328  0.00  0.00    +0.000 A 
ATOM     11  C   UNL     1       6.082   4.722  19.165  0.00  0.00    +0.000 A 
ATOM     12  C   UNL     1       6.986   5.644  18.631  0.00  0.00    +0.000 A 
ATOM     13  C   UNL     1       6.933   5.955  17.275  0.00  0.00    +0.000 A 
ATOM     14  F   UNL     1       7.814   6.824  16.763  0.00  0.00    +0.000 F 
ATOM     15  C   UNL     1       5.987   5.367  16.439  0.00  0.00    +0.000 A 
ATOM     16  C   UNL     1       5.077   4.447  16.964  0.00  0.00    +0.000 A 
ENDBRANCH   7  10
ENDBRANCH   4   7
BRANCH   1  17
ATOM     17  C   UNL     1       2.577   7.651  17.764  0.00  0.00    +0.000 C 
BRANCH  17  19
ATOM     18  N   UNL     1       1.247   8.745  19.489  0.00  0.00    +0.000 N 
ATOM     19  C   UNL     1       1.923   8.934  18.296  0.00  0.00    +0.000 C 
ATOM     20  O   UNL     1       2.012   9.983  17.666  0.00  0.00    +0.000 OA
ATOM     21  H   UNL     1       1.291   7.833  19.925  0.00  0.00    +0.000 HD
BRANCH  18  25
ATOM     22  C   UNL     1      -1.857  12.267  21.201  0.00  0.00    +0.000 C 
ATOM     23  C   UNL     1      -0.739  11.335  20.927  0.00  0.00    +0.000 A 
ATOM     24  C   UNL     1      -0.633  10.334  19.932  0.00  0.00    +0.000 A 
ATOM     25  C   UNL     1       0.605   9.772  20.139  0.00  0.00    +0.000 A 
ATOM     26  O   UNL     1       1.202  10.404  21.184  0.00  0.00    +0.000 OA
ATOM     27  N   UNL     1       0.360  11.383  21.685  0.00  0.00    +0.000 NA
ENDBRANCH  18  25
ENDBRANCH  17  19
ENDBRANCH   1  17
TORSDOF 5
ENDMDL
