MODEL 1
REMARK VINA RESULT:      -7.0      0.000      0.000
REMARK  Name = 
REMARK  13 active torsions:
REMARK  status: ('A' for Active; 'I' for Inactive)
REMARK    1  A    between atoms: C_1  and  C_2
REMARK    2  A    between atoms: C_2  and  C_3
REMARK    3  A    between atoms: C_3  and  C_4
REMARK    4  A    between atoms: C_3  and  C_11
REMARK    5  A    between atoms: C_7  and  O_8
REMARK    6  A    between atoms: C_11  and  C_12
REMARK    7  A    between atoms: C_11  and  C_14
REMARK    8  A    between atoms: C_12  and  C_13
REMARK    9  A    between atoms: C_17  and  O_18
REMARK   10  A    between atoms: O_18  and  C_19
REMARK   11  A    between atoms: C_19  and  C_20
REMARK   12  A    between atoms: C_20  and  O_21
REMARK   13  A    between atoms: C_20  and  C_22
REMARK                            x       y       z     vdW  Elec       q    Type
REMARK                         _______ _______ _______ _____ _____    ______ ____
ROOT
ATOM      1  C   UNL     1       2.533   4.297  17.917  0.00  0.00    +0.000 C 
ENDROOT
BRANCH   1   2
ATOM      2  C   UNL     1       2.396   5.622  18.660  0.00  0.00    +0.000 A 
ATOM      3  C   UNL     1       2.591   6.824  17.966  0.00  0.00    +0.000 A 
ATOM      4  C   UNL     1       2.327   8.055  18.571  0.00  0.00    +0.000 A 
ATOM      5  C   UNL     1       1.863   8.111  19.888  0.00  0.00    +0.000 A 
ATOM      6  C   UNL     1       1.714   6.919  20.601  0.00  0.00    +0.000 A 
ATOM      7  C   UNL     1       1.984   5.686  19.999  0.00  0.00    +0.000 A 
BRANCH   5   8
ATOM      8  O   UNL     1       1.519   9.251  20.562  0.00  0.00    +0.000 OA
BRANCH   8   9
ATOM      9  C   UNL     1       1.159   9.086  21.941  0.00  0.00    +0.000 C 
BRANCH   9  10
ATOM     10  C   UNL     1      -0.294   9.538  22.154  0.00  0.00    +0.000 C 
BRANCH  10  11
ATOM     11  O   UNL     1      -0.766   9.010  23.399  0.00  0.00    +0.000 OA
ATOM     12  H   UNL     1      -0.074   8.410  23.735  0.00  0.00    +0.000 HD
ENDBRANCH  10  11
BRANCH  10  13
ATOM     13  C   UNL     1      -0.399  11.065  22.126  0.00  0.00    +0.000 C 
ATOM     14 CL   UNL     1      -1.794  11.640  23.079  0.00  0.00    +0.000 Cl
ENDBRANCH  10  13
ENDBRANCH   9  10
ENDBRANCH   8   9
ENDBRANCH   5   8
ENDBRANCH   1   2
BRANCH   1  15
ATOM     15  C   UNL     1       1.398   3.326  18.375  0.00  0.00    +0.000 C 
ATOM     16  C   UNL     1       1.739   1.840  18.272  0.00  0.00    +0.000 C 
ENDBRANCH   1  15
BRANCH   1  17
ATOM     17  C   UNL     1       3.953   3.632  18.088  0.00  0.00    +0.000 C 
BRANCH  17  18
ATOM     18  C   UNL     1       4.944   4.222  17.084  0.00  0.00    +0.000 A 
ATOM     19  C   UNL     1       4.753   4.086  15.699  0.00  0.00    +0.000 A 
ATOM     20  C   UNL     1       5.723   4.533  14.799  0.00  0.00    +0.000 A 
ATOM     21  C   UNL     1       6.881   5.128  15.284  0.00  0.00    +0.000 A 
ATOM     22  C   UNL     1       7.068   5.319  16.647  0.00  0.00    +0.000 A 
ATOM     23  C   UNL     1       6.100   4.869  17.546  0.00  0.00    +0.000 A 
BRANCH  21  24
ATOM     24  O   UNL     1       7.877   5.530  14.443  0.00  0.00    +0.000 OA
ATOM     25  H   UNL     1       8.181   6.408  14.727  0.00  0.00    +0.000 HD
ENDBRANCH  21  24
ENDBRANCH  17  18
BRANCH  17  27
ATOM     26  C   UNL     1       4.529   2.397  20.268  0.00  0.00    +0.000 C 
ATOM     27  C   UNL     1       4.514   3.736  19.530  0.00  0.00    +0.000 C 
ENDBRANCH  17  27
ENDBRANCH   1  17
TORSDOF 11
ENDMDL
MODEL 2
REMARK VINA RESULT:      -7.0      3.812      8.460
REMARK  Name = 
REMARK  13 active torsions:
REMARK  status: ('A' for Active; 'I' for Inactive)
REMARK    1  A    between atoms: C_1  and  C_2
REMARK    2  A    between atoms: C_2  and  C_3
REMARK    3  A    between atoms: C_3  and  C_4
REMARK    4  A    between atoms: C_3  and  C_11
REMARK    5  A    between atoms: C_7  and  O_8
REMARK    6  A    between atoms: C_11  and  C_12
REMARK    7  A    between atoms: C_11  and  C_14
REMARK    8  A    between atoms: C_12  and  C_13
REMARK    9  A    between atoms: C_17  and  O_18
REMARK   10  A    between atoms: O_18  and  C_19
REMARK   11  A    between atoms: C_19  and  C_20
REMARK   12  A    between atoms: C_20  and  O_21
REMARK   13  A    between atoms: C_20  and  C_22
REMARK                            x       y       z     vdW  Elec       q    Type
REMARK                         _______ _______ _______ _____ _____    ______ ____
ROOT
ATOM      1  C   UNL     1       4.676   5.927  18.310  0.00  0.00    +0.000 C 
ENDROOT
BRANCH   1   2
ATOM      2  C   UNL     1       5.008   5.229  16.995  0.00  0.00    +0.000 A 
ATOM      3  C   UNL     1       5.254   5.999  15.850  0.00  0.00    +0.000 A 
ATOM      4  C   UNL     1       5.709   5.407  14.670  0.00  0.00    +0.000 A 
ATOM      5  C   UNL     1       5.926   4.028  14.608  0.00  0.00    +0.000 A 
ATOM      6  C   UNL     1       5.636   3.249  15.730  0.00  0.00    +0.000 A 
ATOM      7  C   UNL     1       5.174   3.840  16.911  0.00  0.00    +0.000 A 
BRANCH   5   8
ATOM      8  O   UNL     1       6.421   3.349  13.528  0.00  0.00    +0.000 OA
BRANCH   8   9
ATOM      9  C   UNL     1       6.203   3.953  12.245  0.00  0.00    +0.000 C 
BRANCH   9  10
ATOM     10  C   UNL     1       5.443   2.976  11.335  0.00  0.00    +0.000 C 
BRANCH  10  11
ATOM     11  O   UNL     1       5.816   1.637  11.679  0.00  0.00    +0.000 OA
ATOM     12  H   UNL     1       6.676   1.463  11.252  0.00  0.00    +0.000 HD
ENDBRANCH  10  11
BRANCH  10  13
ATOM     13  C   UNL     1       3.931   3.178  11.461  0.00  0.00    +0.000 C 
ATOM     14 CL   UNL     1       3.253   3.946   9.999  0.00  0.00    +0.000 Cl
ENDBRANCH  10  13
ENDBRANCH   9  10
ENDBRANCH   8   9
ENDBRANCH   5   8
ENDBRANCH   1   2
BRANCH   1  15
ATOM     15  C   UNL     1       5.595   5.366  19.442  0.00  0.00    +0.000 C 
ATOM     16  C   UNL     1       7.087   5.632  19.253  0.00  0.00    +0.000 C 
ENDBRANCH   1  15
BRANCH   1  17
ATOM     17  C   UNL     1       3.153   5.814  18.706  0.00  0.00    +0.000 C 
BRANCH  17  18
ATOM     18  C   UNL     1       2.539   7.204  18.873  0.00  0.00    +0.000 A 
ATOM     19  C   UNL     1       1.866   7.572  20.051  0.00  0.00    +0.000 A 
ATOM     20  C   UNL     1       1.216   8.804  20.144  0.00  0.00    +0.000 A 
ATOM     21  C   UNL     1       1.248   9.676  19.061  0.00  0.00    +0.000 A 
ATOM     22  C   UNL     1       1.950   9.354  17.907  0.00  0.00    +0.000 A 
ATOM     23  C   UNL     1       2.597   8.122  17.813  0.00  0.00    +0.000 A 
BRANCH  21  24
ATOM     24  O   UNL     1       0.582  10.866  19.091  0.00  0.00    +0.000 OA
ATOM     25  H   UNL     1      -0.088  10.824  19.793  0.00  0.00    +0.000 HD
ENDBRANCH  21  24
ENDBRANCH  17  18
BRANCH  17  27
ATOM     26  C   UNL     1       1.726   3.706  18.343  0.00  0.00    +0.000 C 
ATOM     27  C   UNL     1       2.317   4.966  17.711  0.00  0.00    +0.000 C 
ENDBRANCH  17  27
ENDBRANCH   1  17
TORSDOF 11
ENDMDL
MODEL 3
REMARK VINA RESULT:      -6.9      4.344      8.541
REMARK  Name = 
REMARK  13 active torsions:
REMARK  status: ('A' for Active; 'I' for Inactive)
REMARK    1  A    between atoms: C_1  and  C_2
REMARK    2  A    between atoms: C_2  and  C_3
REMARK    3  A    between atoms: C_3  and  C_4
REMARK    4  A    between atoms: C_3  and  C_11
REMARK    5  A    between atoms: C_7  and  O_8
REMARK    6  A    between atoms: C_11  and  C_12
REMARK    7  A    between atoms: C_11  and  C_14
REMARK    8  A    between atoms: C_12  and  C_13
REMARK    9  A    between atoms: C_17  and  O_18
REMARK   10  A    between atoms: O_18  and  C_19
REMARK   11  A    between atoms: C_19  and  C_20
REMARK   12  A    between atoms: C_20  and  O_21
REMARK   13  A    between atoms: C_20  and  C_22
REMARK                            x       y       z     vdW  Elec       q    Type
REMARK                         _______ _______ _______ _____ _____    ______ ____
ROOT
ATOM      1  C   UNL     1       4.467   6.301  17.983  0.00  0.00    +0.000 C 
ENDROOT
BRANCH   1   2
ATOM      2  C   UNL     1       4.867   5.471  16.768  0.00  0.00    +0.000 A 
ATOM      3  C   UNL     1       5.275   6.120  15.594  0.00  0.00    +0.000 A 
ATOM      4  C   UNL     1       5.791   5.399  14.516  0.00  0.00    +0.000 A 
ATOM      5  C   UNL     1       5.908   4.008  14.586  0.00  0.00    +0.000 A 
ATOM      6  C   UNL     1       5.458   3.351  15.733  0.00  0.00    +0.000 A 
ATOM      7  C   UNL     1       4.934   4.071  16.812  0.00  0.00    +0.000 A 
BRANCH   5   8
ATOM      8  O   UNL     1       6.449   3.206  13.618  0.00  0.00    +0.000 OA
BRANCH   8   9
ATOM      9  C   UNL     1       6.525   3.768  12.300  0.00  0.00    +0.000 C 
BRANCH   9  10
ATOM     10  C   UNL     1       5.573   3.014  11.360  0.00  0.00    +0.000 C 
BRANCH  10  11
ATOM     11  O   UNL     1       5.757   1.606  11.546  0.00  0.00    +0.000 OA
ATOM     12  H   UNL     1       5.571   1.178  10.689  0.00  0.00    +0.000 HD
ENDBRANCH  10  11
BRANCH  10  13
ATOM     13  C   UNL     1       4.120   3.420  11.614  0.00  0.00    +0.000 C 
ATOM     14 CL   UNL     1       3.113   3.182  10.160  0.00  0.00    +0.000 Cl
ENDBRANCH  10  13
ENDBRANCH   9  10
ENDBRANCH   8   9
ENDBRANCH   5   8
ENDBRANCH   1   2
BRANCH   1  15
ATOM     15  C   UNL     1       4.983   5.602  19.281  0.00  0.00    +0.000 C 
ATOM     16  C   UNL     1       6.503   5.514  19.407  0.00  0.00    +0.000 C 
ENDBRANCH   1  15
BRANCH   1  17
ATOM     17  C   UNL     1       2.916   6.577  18.065  0.00  0.00    +0.000 C 
BRANCH  17  18
ATOM     18  C   UNL     1       2.234   5.539  18.955  0.00  0.00    +0.000 A 
ATOM     19  C   UNL     1       2.098   5.735  20.340  0.00  0.00    +0.000 A 
ATOM     20  C   UNL     1       1.573   4.729  21.154  0.00  0.00    +0.000 A 
ATOM     21  C   UNL     1       1.173   3.527  20.581  0.00  0.00    +0.000 A 
ATOM     22  C   UNL     1       1.252   3.330  19.209  0.00  0.00    +0.000 A 
ATOM     23  C   UNL     1       1.779   4.334  18.397  0.00  0.00    +0.000 A 
BRANCH  21  24
ATOM     24  O   UNL     1       0.706   2.499  21.346  0.00  0.00    +0.000 OA
ATOM     25  H   UNL     1       0.745   2.769  22.278  0.00  0.00    +0.000 HD
ENDBRANCH  21  24
ENDBRANCH  17  18
BRANCH  17  27
ATOM     26  C   UNL     1       1.534   8.706  17.653  0.00  0.00    +0.000 C 
ATOM     27  C   UNL     1       2.569   8.013  18.540  0.00  0.00    +0.000 C 
ENDBRANCH  17  27
ENDBRANCH   1  17
TORSDOF 11
ENDMDL
MODEL 4
REMARK VINA RESULT:      -6.8      1.189      1.307
REMARK  Name = 
REMARK  13 active torsions:
REMARK  status: ('A' for Active; 'I' for Inactive)
REMARK    1  A    between atoms: C_1  and  C_2
REMARK    2  A    between atoms: C_2  and  C_3
REMARK    3  A    between atoms: C_3  and  C_4
REMARK    4  A    between atoms: C_3  and  C_11
REMARK    5  A    between atoms: C_7  and  O_8
REMARK    6  A    between atoms: C_11  and  C_12
REMARK    7  A    between atoms: C_11  and  C_14
REMARK    8  A    between atoms: C_12  and  C_13
REMARK    9  A    between atoms: C_17  and  O_18
REMARK   10  A    between atoms: O_18  and  C_19
REMARK   11  A    between atoms: C_19  and  C_20
REMARK   12  A    between atoms: C_20  and  O_21
REMARK   13  A    between atoms: C_20  and  C_22
REMARK                            x       y       z     vdW  Elec       q    Type
REMARK                         _______ _______ _______ _____ _____    ______ ____
ROOT
ATOM      1  C   UNL     1       2.684   5.008  18.097  0.00  0.00    +0.000 C 
ENDROOT
BRANCH   1   2
ATOM      2  C   UNL     1       2.303   6.226  18.933  0.00  0.00    +0.000 A 
ATOM      3  C   UNL     1       2.256   7.489  18.328  0.00  0.00    +0.000 A 
ATOM      4  C   UNL     1       1.767   8.600  19.019  0.00  0.00    +0.000 A 
ATOM      5  C   UNL     1       1.315   8.472  20.335  0.00  0.00    +0.000 A 
ATOM      6  C   UNL     1       1.405   7.226  20.960  0.00  0.00    +0.000 A 
ATOM      7  C   UNL     1       1.901   6.114  20.272  0.00  0.00    +0.000 A 
BRANCH   5   8
ATOM      8  O   UNL     1       0.765   9.473  21.088  0.00  0.00    +0.000 OA
BRANCH   8   9
ATOM      9  C   UNL     1      -0.492   9.176  21.714  0.00  0.00    +0.000 C 
BRANCH   9  10
ATOM     10  C   UNL     1      -0.614   9.963  23.028  0.00  0.00    +0.000 C 
BRANCH  10  11
ATOM     11  O   UNL     1       0.554   9.724  23.822  0.00  0.00    +0.000 OA
ATOM     12  H   UNL     1       1.282  10.235  23.420  0.00  0.00    +0.000 HD
ENDBRANCH  10  11
BRANCH  10  13
ATOM     13  C   UNL     1      -0.799  11.457  22.753  0.00  0.00    +0.000 C 
ATOM     14 CL   UNL     1      -2.505  11.947  22.943  0.00  0.00    +0.000 Cl
ENDBRANCH  10  13
ENDBRANCH   9  10
ENDBRANCH   8   9
ENDBRANCH   5   8
ENDBRANCH   1   2
BRANCH   1  15
ATOM     15  C   UNL     1       1.733   3.820  18.448  0.00  0.00    +0.000 C 
ATOM     16  C   UNL     1       2.118   2.479  17.827  0.00  0.00    +0.000 C 
ENDBRANCH   1  15
BRANCH   1  17
ATOM     17  C   UNL     1       4.197   4.592  18.260  0.00  0.00    +0.000 C 
BRANCH  17  18
ATOM     18  C   UNL     1       4.934   4.724  16.927  0.00  0.00    +0.000 A 
ATOM     19  C   UNL     1       5.565   3.622  16.325  0.00  0.00    +0.000 A 
ATOM     20  C   UNL     1       6.326   3.784  15.165  0.00  0.00    +0.000 A 
ATOM     21  C   UNL     1       6.449   5.048  14.600  0.00  0.00    +0.000 A 
ATOM     22  C   UNL     1       5.793   6.141  15.149  0.00  0.00    +0.000 A 
ATOM     23  C   UNL     1       5.035   5.980  16.309  0.00  0.00    +0.000 A 
BRANCH  21  24
ATOM     24  O   UNL     1       7.227   5.259  13.500  0.00  0.00    +0.000 OA
ATOM     25  H   UNL     1       7.994   4.665  13.549  0.00  0.00    +0.000 HD
ENDBRANCH  21  24
ENDBRANCH  17  18
BRANCH  17  27
ATOM     26  C   UNL     1       6.455   5.188  19.334  0.00  0.00    +0.000 C 
ATOM     27  C   UNL     1       4.939   5.379  19.371  0.00  0.00    +0.000 C 
ENDBRANCH  17  27
ENDBRANCH   1  17
TORSDOF 11
ENDMDL
MODEL 5
REMARK VINA RESULT:      -6.8      4.522      7.080
REMARK  Name = 
REMARK  13 active torsions:
REMARK  status: ('A' for Active; 'I' for Inactive)
REMARK    1  A    between atoms: C_1  and  C_2
REMARK    2  A    between atoms: C_2  and  C_3
REMARK    3  A    between atoms: C_3  and  C_4
REMARK    4  A    between atoms: C_3  and  C_11
REMARK    5  A    between atoms: C_7  and  O_8
REMARK    6  A    between atoms: C_11  and  C_12
REMARK    7  A    between atoms: C_11  and  C_14
REMARK    8  A    between atoms: C_12  and  C_13
REMARK    9  A    between atoms: C_17  and  O_18
REMARK   10  A    between atoms: O_18  and  C_19
REMARK   11  A    between atoms: C_19  and  C_20
REMARK   12  A    between atoms: C_20  and  O_21
REMARK   13  A    between atoms: C_20  and  C_22
REMARK                            x       y       z     vdW  Elec       q    Type
REMARK                         _______ _______ _______ _____ _____    ______ ____
ROOT
ATOM      1  C   UNL     1       4.902   4.761  17.421  0.00  0.00    +0.000 C 
ENDROOT
BRANCH   1   2
ATOM      2  C   UNL     1       6.059   5.719  17.687  0.00  0.00    +0.000 A 
ATOM      3  C   UNL     1       6.173   6.889  16.924  0.00  0.00    +0.000 A 
ATOM      4  C   UNL     1       7.126   7.861  17.237  0.00  0.00    +0.000 A 
ATOM      5  C   UNL     1       7.989   7.683  18.320  0.00  0.00    +0.000 A 
ATOM      6  C   UNL     1       7.913   6.497  19.055  0.00  0.00    +0.000 A 
ATOM      7  C   UNL     1       6.964   5.520  18.739  0.00  0.00    +0.000 A 
BRANCH   5   8
ATOM      8  O   UNL     1       8.919   8.589  18.754  0.00  0.00    +0.000 OA
BRANCH   8   9
ATOM      9  C   UNL     1       8.685   9.957  18.393  0.00  0.00    +0.000 C 
BRANCH   9  10
ATOM     10  C   UNL     1       9.435  10.883  19.363  0.00  0.00    +0.000 C 
BRANCH  10  11
ATOM     11  O   UNL     1       9.474  10.267  20.655  0.00  0.00    +0.000 OA
ATOM     12  H   UNL     1       8.673   9.716  20.732  0.00  0.00    +0.000 HD
ENDBRANCH  10  11
BRANCH  10  13
ATOM     13  C   UNL     1      10.845  11.184  18.850  0.00  0.00    +0.000 C 
ATOM     14 CL   UNL     1      11.016  12.897  18.380  0.00  0.00    +0.000 Cl
ENDBRANCH  10  13
ENDBRANCH   9  10
ENDBRANCH   8   9
ENDBRANCH   5   8
ENDBRANCH   1   2
BRANCH   1  15
ATOM     15  C   UNL     1       4.872   4.393  15.904  0.00  0.00    +0.000 C 
ATOM     16  C   UNL     1       6.153   3.755  15.368  0.00  0.00    +0.000 C 
ENDBRANCH   1  15
BRANCH   1  17
ATOM     17  C   UNL     1       3.507   5.324  17.897  0.00  0.00    +0.000 C 
BRANCH  17  18
ATOM     18  C   UNL     1       2.913   4.430  18.986  0.00  0.00    +0.000 A 
ATOM     19  C   UNL     1       1.580   4.573  19.405  0.00  0.00    +0.000 A 
ATOM     20  C   UNL     1       1.087   3.824  20.477  0.00  0.00    +0.000 A 
ATOM     21  C   UNL     1       1.925   2.923  21.123  0.00  0.00    +0.000 A 
ATOM     22  C   UNL     1       3.231   2.729  20.692  0.00  0.00    +0.000 A 
ATOM     23  C   UNL     1       3.724   3.479  19.624  0.00  0.00    +0.000 A 
BRANCH  21  24
ATOM     24  O   UNL     1       1.499   2.212  22.206  0.00  0.00    +0.000 OA
ATOM     25  H   UNL     1       0.592   2.487  22.415  0.00  0.00    +0.000 HD
ENDBRANCH  21  24
ENDBRANCH  17  18
BRANCH  17  27
ATOM     26  C   UNL     1       2.397   7.643  17.870  0.00  0.00    +0.000 C 
ATOM     27  C   UNL     1       3.567   6.798  18.376  0.00  0.00    +0.000 C 
ENDBRANCH  17  27
ENDBRANCH   1  17
TORSDOF 11
ENDMDL
MODEL 6
REMARK VINA RESULT:      -6.8      1.404      1.893
REMARK  Name = 
REMARK  13 active torsions:
REMARK  status: ('A' for Active; 'I' for Inactive)
REMARK    1  A    between atoms: C_1  and  C_2
REMARK    2  A    between atoms: C_2  and  C_3
REMARK    3  A    between atoms: C_3  and  C_4
REMARK    4  A    between atoms: C_3  and  C_11
REMARK    5  A    between atoms: C_7  and  O_8
REMARK    6  A    between atoms: C_11  and  C_12
REMARK    7  A    between atoms: C_11  and  C_14
REMARK    8  A    between atoms: C_12  and  C_13
REMARK    9  A    between atoms: C_17  and  O_18
REMARK   10  A    between atoms: O_18  and  C_19
REMARK   11  A    between atoms: C_19  and  C_20
REMARK   12  A    between atoms: C_20  and  O_21
REMARK   13  A    between atoms: C_20  and  C_22
REMARK                            x       y       z     vdW  Elec       q    Type
REMARK                         _______ _______ _______ _____ _____    ______ ____
ROOT
ATOM      1  C   UNL     1       2.556   4.239  17.899  0.00  0.00    +0.000 C 
ENDROOT
BRANCH   1   2
ATOM      2  C   UNL     1       2.381   5.504  18.731  0.00  0.00    +0.000 A 
ATOM      3  C   UNL     1       2.608   6.755  18.140  0.00  0.00    +0.000 A 
ATOM      4  C   UNL     1       2.312   7.937  18.821  0.00  0.00    +0.000 A 
ATOM      5  C   UNL     1       1.784   7.895  20.114  0.00  0.00    +0.000 A 
ATOM      6  C   UNL     1       1.602   6.654  20.728  0.00  0.00    +0.000 A 
ATOM      7  C   UNL     1       1.904   5.469  20.049  0.00  0.00    +0.000 A 
BRANCH   5   8
ATOM      8  O   UNL     1       1.405   8.982  20.854  0.00  0.00    +0.000 OA
BRANCH   8   9
ATOM      9  C   UNL     1       0.025   9.363  20.756  0.00  0.00    +0.000 C 
BRANCH   9  10
ATOM     10  C   UNL     1      -0.077  10.865  20.451  0.00  0.00    +0.000 C 
BRANCH  10  11
ATOM     11  O   UNL     1       1.183  11.322  19.947  0.00  0.00    +0.000 OA
ATOM     12  H   UNL     1       1.393  10.775  19.166  0.00  0.00    +0.000 HD
ENDBRANCH  10  11
BRANCH  10  13
ATOM     13  C   UNL     1      -1.205  11.143  19.454  0.00  0.00    +0.000 C 
ATOM     14 CL   UNL     1      -1.045  10.135  17.990  0.00  0.00    +0.000 Cl
ENDBRANCH  10  13
ENDBRANCH   9  10
ENDBRANCH   8   9
ENDBRANCH   5   8
ENDBRANCH   1   2
BRANCH   1  15
ATOM     15  C   UNL     1       1.326   3.301  18.114  0.00  0.00    +0.000 C 
ATOM     16  C   UNL     1       1.669   1.847  18.434  0.00  0.00    +0.000 C 
ENDBRANCH   1  15
BRANCH   1  17
ATOM     17  C   UNL     1       3.907   3.480  18.197  0.00  0.00    +0.000 C 
BRANCH  17  18
ATOM     18  C   UNL     1       5.002   3.939  17.235  0.00  0.00    +0.000 A 
ATOM     19  C   UNL     1       6.254   4.373  17.701  0.00  0.00    +0.000 A 
ATOM     20  C   UNL     1       7.202   4.893  16.817  0.00  0.00    +0.000 A 
ATOM     21  C   UNL     1       6.903   4.969  15.462  0.00  0.00    +0.000 A 
ATOM     22  C   UNL     1       5.691   4.499  14.972  0.00  0.00    +0.000 A 
ATOM     23  C   UNL     1       4.743   3.982  15.856  0.00  0.00    +0.000 A 
BRANCH  21  24
ATOM     24  O   UNL     1       7.778   5.519  14.573  0.00  0.00    +0.000 OA
ATOM     25  H   UNL     1       7.777   4.977  13.767  0.00  0.00    +0.000 HD
ENDBRANCH  21  24
ENDBRANCH  17  18
BRANCH  17  27
ATOM     26  C   UNL     1       4.449   2.284  20.408  0.00  0.00    +0.000 C 
ATOM     27  C   UNL     1       4.382   3.620  19.668  0.00  0.00    +0.000 C 
ENDBRANCH  17  27
ENDBRANCH   1  17
TORSDOF 11
ENDMDL
MODEL 7
REMARK VINA RESULT:      -6.8      4.292      8.748
REMARK  Name = 
REMARK  13 active torsions:
REMARK  status: ('A' for Active; 'I' for Inactive)
REMARK    1  A    between atoms: C_1  and  C_2
REMARK    2  A    between atoms: C_2  and  C_3
REMARK    3  A    between atoms: C_3  and  C_4
REMARK    4  A    between atoms: C_3  and  C_11
REMARK    5  A    between atoms: C_7  and  O_8
REMARK    6  A    between atoms: C_11  and  C_12
REMARK    7  A    between atoms: C_11  and  C_14
REMARK    8  A    between atoms: C_12  and  C_13
REMARK    9  A    between atoms: C_17  and  O_18
REMARK   10  A    between atoms: O_18  and  C_19
REMARK   11  A    between atoms: C_19  and  C_20
REMARK   12  A    between atoms: C_20  and  O_21
REMARK   13  A    between atoms: C_20  and  C_22
REMARK                            x       y       z     vdW  Elec       q    Type
REMARK                         _______ _______ _______ _____ _____    ______ ____
ROOT
ATOM      1  C   UNL     1       4.675   5.892  18.353  0.00  0.00    +0.000 C 
ENDROOT
BRANCH   1   2
ATOM      2  C   UNL     1       5.039   5.284  17.002  0.00  0.00    +0.000 A 
ATOM      3  C   UNL     1       5.229   6.125  15.897  0.00  0.00    +0.000 A 
ATOM      4  C   UNL     1       5.709   5.624  14.686  0.00  0.00    +0.000 A 
ATOM      5  C   UNL     1       6.008   4.266  14.551  0.00  0.00    +0.000 A 
ATOM      6  C   UNL     1       5.775   3.414  15.633  0.00  0.00    +0.000 A 
ATOM      7  C   UNL     1       5.287   3.913  16.845  0.00  0.00    +0.000 A 
BRANCH   5   8
ATOM      8  O   UNL     1       6.536   3.674  13.435  0.00  0.00    +0.000 OA
BRANCH   8   9
ATOM      9  C   UNL     1       5.769   3.801  12.229  0.00  0.00    +0.000 C 
BRANCH   9  10
ATOM     10  C   UNL     1       5.252   2.421  11.797  0.00  0.00    +0.000 C 
BRANCH  10  11
ATOM     11  O   UNL     1       4.147   2.599  10.904  0.00  0.00    +0.000 OA
ATOM     12  H   UNL     1       4.097   3.552  10.698  0.00  0.00    +0.000 HD
ENDBRANCH  10  11
BRANCH  10  13
ATOM     13  C   UNL     1       6.366   1.601  11.142  0.00  0.00    +0.000 C 
ATOM     14 CL   UNL     1       6.026  -0.149  11.232  0.00  0.00    +0.000 Cl
ENDBRANCH  10  13
ENDBRANCH   9  10
ENDBRANCH   8   9
ENDBRANCH   5   8
ENDBRANCH   1   2
BRANCH   1  15
ATOM     15  C   UNL     1       5.558   5.245  19.467  0.00  0.00    +0.000 C 
ATOM     16  C   UNL     1       7.029   5.659  19.447  0.00  0.00    +0.000 C 
ENDBRANCH   1  15
BRANCH   1  17
ATOM     17  C   UNL     1       3.141   5.764  18.699  0.00  0.00    +0.000 C 
BRANCH  17  18
ATOM     18  C   UNL     1       2.514   7.148  18.867  0.00  0.00    +0.000 A 
ATOM     19  C   UNL     1       1.911   7.538  20.075  0.00  0.00    +0.000 A 
ATOM     20  C   UNL     1       1.246   8.763  20.176  0.00  0.00    +0.000 A 
ATOM     21  C   UNL     1       1.194   9.604  19.071  0.00  0.00    +0.000 A 
ATOM     22  C   UNL     1       1.827   9.262  17.883  0.00  0.00    +0.000 A 
ATOM     23  C   UNL     1       2.489   8.038  17.781  0.00  0.00    +0.000 A 
BRANCH  21  24
ATOM     24  O   UNL     1       0.511  10.784  19.110  0.00  0.00    +0.000 OA
ATOM     25  H   UNL     1      -0.321  10.671  18.622  0.00  0.00    +0.000 HD
ENDBRANCH  21  24
ENDBRANCH  17  18
BRANCH  17  27
ATOM     26  C   UNL     1       1.638   3.720  18.284  0.00  0.00    +0.000 C 
ATOM     27  C   UNL     1       2.342   4.928  17.665  0.00  0.00    +0.000 C 
ENDBRANCH  17  27
ENDBRANCH   1  17
TORSDOF 11
ENDMDL
MODEL 8
REMARK VINA RESULT:      -6.7      3.988      8.372
REMARK  Name = 
REMARK  13 active torsions:
REMARK  status: ('A' for Active; 'I' for Inactive)
REMARK    1  A    between atoms: C_1  and  C_2
REMARK    2  A    between atoms: C_2  and  C_3
REMARK    3  A    between atoms: C_3  and  C_4
REMARK    4  A    between atoms: C_3  and  C_11
REMARK    5  A    between atoms: C_7  and  O_8
REMARK    6  A    between atoms: C_11  and  C_12
REMARK    7  A    between atoms: C_11  and  C_14
REMARK    8  A    between atoms: C_12  and  C_13
REMARK    9  A    between atoms: C_17  and  O_18
REMARK   10  A    between atoms: O_18  and  C_19
REMARK   11  A    between atoms: C_19  and  C_20
REMARK   12  A    between atoms: C_20  and  O_21
REMARK   13  A    between atoms: C_20  and  C_22
REMARK                            x       y       z     vdW  Elec       q    Type
REMARK                         _______ _______ _______ _____ _____    ______ ____
ROOT
ATOM      1  C   UNL     1       0.975   9.721  20.289  0.00  0.00    +0.000 C 
ENDROOT
BRANCH   1   2
ATOM      2  C   UNL     1       1.619   8.415  19.836  0.00  0.00    +0.000 A 
ATOM      3  C   UNL     1       1.604   7.306  20.693  0.00  0.00    +0.000 A 
ATOM      4  C   UNL     1       2.046   6.055  20.258  0.00  0.00    +0.000 A 
ATOM      5  C   UNL     1       2.518   5.885  18.955  0.00  0.00    +0.000 A 
ATOM      6  C   UNL     1       2.582   6.996  18.111  0.00  0.00    +0.000 A 
ATOM      7  C   UNL     1       2.145   8.252  18.547  0.00  0.00    +0.000 A 
BRANCH   5   8
ATOM      8  O   UNL     1       2.922   4.699  18.403  0.00  0.00    +0.000 OA
BRANCH   8   9
ATOM      9  C   UNL     1       4.134   4.139  18.927  0.00  0.00    +0.000 C 
BRANCH   9  10
ATOM     10  C   UNL     1       3.969   2.621  19.101  0.00  0.00    +0.000 C 
BRANCH  10  11
ATOM     11  O   UNL     1       5.017   2.135  19.947  0.00  0.00    +0.000 OA
ATOM     12  H   UNL     1       4.684   1.324  20.376  0.00  0.00    +0.000 HD
ENDBRANCH  10  11
BRANCH  10  13
ATOM     13  C   UNL     1       2.591   2.285  19.677  0.00  0.00    +0.000 C 
ATOM     14 CL   UNL     1       2.498   2.680  21.415  0.00  0.00    +0.000 Cl
ENDBRANCH  10  13
ENDBRANCH   9  10
ENDBRANCH   8   9
ENDBRANCH   5   8
ENDBRANCH   1   2
BRANCH   1  15
ATOM     15  C   UNL     1      -0.364   9.408  21.031  0.00  0.00    +0.000 C 
ATOM     16  C   UNL     1      -0.428   9.894  22.478  0.00  0.00    +0.000 C 
ENDBRANCH   1  15
BRANCH   1  17
ATOM     17  C   UNL     1       0.745  10.743  19.109  0.00  0.00    +0.000 C 
BRANCH  17  18
ATOM     18  C   UNL     1      -0.715  10.716  18.656  0.00  0.00    +0.000 A 
ATOM     19  C   UNL     1      -1.164   9.811  17.680  0.00  0.00    +0.000 A 
ATOM     20  C   UNL     1      -2.473   9.874  17.198  0.00  0.00    +0.000 A 
ATOM     21  C   UNL     1      -3.339  10.838  17.700  0.00  0.00    +0.000 A 
ATOM     22  C   UNL     1      -2.932  11.711  18.701  0.00  0.00    +0.000 A 
ATOM     23  C   UNL     1      -1.623  11.649  19.180  0.00  0.00    +0.000 A 
BRANCH  21  24
ATOM     24  O   UNL     1      -4.608  10.970  17.219  0.00  0.00    +0.000 OA
ATOM     25  H   UNL     1      -5.051  11.679  17.713  0.00  0.00    +0.000 HD
ENDBRANCH  21  24
ENDBRANCH  17  18
BRANCH  17  27
ATOM     26  C   UNL     1       2.091  12.813  18.392  0.00  0.00    +0.000 C 
ATOM     27  C   UNL     1       1.181  12.191  19.453  0.00  0.00    +0.000 C 
ENDBRANCH  17  27
ENDBRANCH   1  17
TORSDOF 11
ENDMDL
MODEL 9
REMARK VINA RESULT:      -6.6      4.144      6.985
REMARK  Name = 
REMARK  13 active torsions:
REMARK  status: ('A' for Active; 'I' for Inactive)
REMARK    1  A    between atoms: C_1  and  C_2
REMARK    2  A    between atoms: C_2  and  C_3
REMARK    3  A    between atoms: C_3  and  C_4
REMARK    4  A    between atoms: C_3  and  C_11
REMARK    5  A    between atoms: C_7  and  O_8
REMARK    6  A    between atoms: C_11  and  C_12
REMARK    7  A    between atoms: C_11  and  C_14
REMARK    8  A    between atoms: C_12  and  C_13
REMARK    9  A    between atoms: C_17  and  O_18
REMARK   10  A    between atoms: O_18  and  C_19
REMARK   11  A    between atoms: C_19  and  C_20
REMARK   12  A    between atoms: C_20  and  O_21
REMARK   13  A    between atoms: C_20  and  C_22
REMARK                            x       y       z     vdW  Elec       q    Type
REMARK                         _______ _______ _______ _____ _____    ______ ____
ROOT
ATOM      1  C   UNL     1       4.879   4.890  17.256  0.00  0.00    +0.000 C 
ENDROOT
BRANCH   1   2
ATOM      2  C   UNL     1       6.053   5.813  17.565  0.00  0.00    +0.000 A 
ATOM      3  C   UNL     1       6.200   7.006  16.843  0.00  0.00    +0.000 A 
ATOM      4  C   UNL     1       7.169   7.946  17.198  0.00  0.00    +0.000 A 
ATOM      5  C   UNL     1       8.018   7.713  18.282  0.00  0.00    +0.000 A 
ATOM      6  C   UNL     1       7.910   6.505  18.975  0.00  0.00    +0.000 A 
ATOM      7  C   UNL     1       6.944   5.559  18.617  0.00  0.00    +0.000 A 
BRANCH   5   8
ATOM      8  O   UNL     1       8.963   8.583  18.755  0.00  0.00    +0.000 OA
BRANCH   8   9
ATOM      9  C   UNL     1       8.632   9.977  18.681  0.00  0.00    +0.000 C 
BRANCH   9  10
ATOM     10  C   UNL     1       9.915  10.806  18.517  0.00  0.00    +0.000 C 
BRANCH  10  11
ATOM     11  O   UNL     1       9.656  11.886  17.612  0.00  0.00    +0.000 OA
ATOM     12  H   UNL     1       8.907  11.613  17.050  0.00  0.00    +0.000 HD
ENDBRANCH  10  11
BRANCH  10  13
ATOM     13  C   UNL     1      10.408  11.323  19.870  0.00  0.00    +0.000 C 
ATOM     14 CL   UNL     1       9.122  11.243  21.105  0.00  0.00    +0.000 Cl
ENDBRANCH  10  13
ENDBRANCH   9  10
ENDBRANCH   8   9
ENDBRANCH   5   8
ENDBRANCH   1   2
BRANCH   1  15
ATOM     15  C   UNL     1       4.913   4.496  15.745  0.00  0.00    +0.000 C 
ATOM     16  C   UNL     1       6.193   3.798  15.289  0.00  0.00    +0.000 C 
ENDBRANCH   1  15
BRANCH   1  17
ATOM     17  C   UNL     1       3.482   5.508  17.651  0.00  0.00    +0.000 C 
BRANCH  17  18
ATOM     18  C   UNL     1       2.800   4.651  18.717  0.00  0.00    +0.000 A 
ATOM     19  C   UNL     1       1.789   3.734  18.386  0.00  0.00    +0.000 A 
ATOM     20  C   UNL     1       1.101   3.041  19.384  0.00  0.00    +0.000 A 
ATOM     21  C   UNL     1       1.432   3.256  20.717  0.00  0.00    +0.000 A 
ATOM     22  C   UNL     1       2.463   4.119  21.065  0.00  0.00    +0.000 A 
ATOM     23  C   UNL     1       3.148   4.814  20.068  0.00  0.00    +0.000 A 
BRANCH  21  24
ATOM     24  O   UNL     1       0.750   2.641  21.724  0.00  0.00    +0.000 OA
ATOM     25  H   UNL     1       0.789   1.681  21.579  0.00  0.00    +0.000 HD
ENDBRANCH  21  24
ENDBRANCH  17  18
BRANCH  17  27
ATOM     26  C   UNL     1       2.246   7.739  17.973  0.00  0.00    +0.000 C 
ATOM     27  C   UNL     1       3.569   6.986  18.115  0.00  0.00    +0.000 C 
ENDBRANCH  17  27
ENDBRANCH   1  17
TORSDOF 11
ENDMDL
