MODEL 1
REMARK VINA RESULT:      -6.0      0.000      0.000
REMARK  Name = 
REMARK  5 active torsions:
REMARK  status: ('A' for Active; 'I' for Inactive)
REMARK    1  A    between atoms: C_1  and  O_2
REMARK    2  A    between atoms: O_2  and  C_3
REMARK    3  A    between atoms: C_4  and  N_5
REMARK    4  A    between atoms: C_8  and  N_9
REMARK    5  A    between atoms: N_20  and  C_21
REMARK                            x       y       z     vdW  Elec       q    Type
REMARK                         _______ _______ _______ _____ _____    ______ ____
ROOT
ATOM      1  C   UNL     1       2.153   6.899  19.614  0.00  0.00    +0.000 A 
ATOM      2  C   UNL     1       2.998   6.209  18.651  0.00  0.00    +0.000 A 
ATOM      3  C   UNL     1       3.432   6.980  17.560  0.00  0.00    +0.000 A 
ATOM      4  F   UNL     1       4.196   6.442  16.585  0.00  0.00    +0.000 F 
ATOM      5  C   UNL     1       3.100   8.309  17.400  0.00  0.00    +0.000 A 
ATOM      6  C   UNL     1       2.320   8.949  18.365  0.00  0.00    +0.000 A 
ATOM      7  C   UNL     1       2.031  10.365  18.131  0.00  0.00    +0.000 A 
ATOM      8  O   UNL     1       2.544  10.997  17.217  0.00  0.00    +0.000 OA
ATOM      9  N   UNL     1       1.154  10.935  18.993  0.00  0.00    +0.000 N 
ATOM     10  C   UNL     1       0.860  10.472  20.235  0.00  0.00    +0.000 A 
ATOM     11  O   UNL     1       0.340  11.281  21.003  0.00  0.00    +0.000 OA
ATOM     12  N   UNL     1       1.173   9.138  20.529  0.00  0.00    +0.000 N 
ATOM     13  C   UNL     1       1.853   8.302  19.525  0.00  0.00    +0.000 A 
ATOM     14  H   UNL     1       0.982  11.921  18.864  0.00  0.00    +0.000 HD
ENDROOT
BRANCH   2  15
ATOM     15  N   UNL     1       3.411   4.883  18.778  0.00  0.00    +0.000 N 
ATOM     16  C   UNL     1       2.949   3.764  17.958  0.00  0.00    +0.000 C 
ATOM     17  C   UNL     1       3.852   2.580  18.327  0.00  0.00    +0.000 C 
ATOM     18  C   UNL     1       4.433   2.936  19.690  0.00  0.00    +0.000 C 
ATOM     19  C   UNL     1       4.572   4.470  19.582  0.00  0.00    +0.000 C 
BRANCH  18  20
ATOM     20  N   UNL     1       3.526   2.502  20.767  0.00  0.00    +0.000 NA
ATOM     21  H   UNL     1       2.570   2.750  20.510  0.00  0.00    +0.000 HD
ATOM     22  H   UNL     1       3.720   3.055  21.604  0.00  0.00    +0.000 HD
ENDBRANCH  18  20
ENDBRANCH   2  15
BRANCH  12  23
ATOM     23  C   UNL     1       0.901   8.626  21.875  0.00  0.00    +0.000 C 
ATOM     24  C   UNL     1       0.243   9.342  23.038  0.00  0.00    +0.000 C 
ATOM     25  C   UNL     1      -0.548   8.346  22.266  0.00  0.00    +0.000 C 
ENDBRANCH  12  23
BRANCH   1  27
ATOM     26  C   UNL     1       0.849   5.098  20.423  0.00  0.00    +0.000 C 
ATOM     27  O   UNL     1       1.771   6.149  20.704  0.00  0.00    +0.000 OA
ENDBRANCH   1  27
TORSDOF 4
ENDMDL
MODEL 2
REMARK VINA RESULT:      -5.9      8.514     10.066
REMARK  Name = 
REMARK  5 active torsions:
REMARK  status: ('A' for Active; 'I' for Inactive)
REMARK    1  A    between atoms: C_1  and  O_2
REMARK    2  A    between atoms: O_2  and  C_3
REMARK    3  A    between atoms: C_4  and  N_5
REMARK    4  A    between atoms: C_8  and  N_9
REMARK    5  A    between atoms: N_20  and  C_21
REMARK                            x       y       z     vdW  Elec       q    Type
REMARK                         _______ _______ _______ _____ _____    ______ ____
ROOT
ATOM      1  C   UNL     1       8.361  14.130  20.353  0.00  0.00    +0.000 A 
ATOM      2  C   UNL     1       9.556  13.353  20.067  0.00  0.00    +0.000 A 
ATOM      3  C   UNL     1       9.822  12.297  20.956  0.00  0.00    +0.000 A 
ATOM      4  F   UNL     1      10.919  11.522  20.812  0.00  0.00    +0.000 F 
ATOM      5  C   UNL     1       9.008  11.994  22.027  0.00  0.00    +0.000 A 
ATOM      6  C   UNL     1       7.847  12.738  22.247  0.00  0.00    +0.000 A 
ATOM      7  C   UNL     1       7.027  12.338  23.393  0.00  0.00    +0.000 A 
ATOM      8  O   UNL     1       7.263  11.332  24.049  0.00  0.00    +0.000 OA
ATOM      9  N   UNL     1       5.986  13.156  23.683  0.00  0.00    +0.000 N 
ATOM     10  C   UNL     1       5.403  14.024  22.816  0.00  0.00    +0.000 A 
ATOM     11  O   UNL     1       4.275  14.410  23.117  0.00  0.00    +0.000 OA
ATOM     12  N   UNL     1       6.124  14.391  21.670  0.00  0.00    +0.000 N 
ATOM     13  C   UNL     1       7.445  13.796  21.409  0.00  0.00    +0.000 A 
ATOM     14  H   UNL     1       5.392  12.865  24.445  0.00  0.00    +0.000 HD
ENDROOT
BRANCH   2  15
ATOM     15  N   UNL     1      10.394  13.573  18.975  0.00  0.00    +0.000 N 
ATOM     16  C   UNL     1      11.800  13.968  19.045  0.00  0.00    +0.000 C 
ATOM     17  C   UNL     1      12.333  13.861  17.610  0.00  0.00    +0.000 C 
ATOM     18  C   UNL     1      11.094  13.909  16.724  0.00  0.00    +0.000 C 
ATOM     19  C   UNL     1      10.052  13.179  17.599  0.00  0.00    +0.000 C 
BRANCH  18  20
ATOM     20  N   UNL     1      10.732  15.305  16.420  0.00  0.00    +0.000 NA
ATOM     21  H   UNL     1      11.106  15.908  17.154  0.00  0.00    +0.000 HD
ATOM     22  H   UNL     1       9.718  15.406  16.494  0.00  0.00    +0.000 HD
ENDBRANCH  18  20
ENDBRANCH   2  15
BRANCH  12  23
ATOM     23  C   UNL     1       5.499  15.295  20.701  0.00  0.00    +0.000 C 
ATOM     24  C   UNL     1       4.208  16.075  20.838  0.00  0.00    +0.000 C 
ATOM     25  C   UNL     1       5.501  16.792  20.998  0.00  0.00    +0.000 C 
ENDBRANCH  12  23
BRANCH   1  27
ATOM     26  C   UNL     1       8.843  16.328  19.619  0.00  0.00    +0.000 C 
ATOM     27  O   UNL     1       8.083  15.133  19.450  0.00  0.00    +0.000 OA
ENDBRANCH   1  27
TORSDOF 4
ENDMDL
MODEL 3
REMARK VINA RESULT:      -5.9      6.270      9.635
REMARK  Name = 
REMARK  5 active torsions:
REMARK  status: ('A' for Active; 'I' for Inactive)
REMARK    1  A    between atoms: C_1  and  O_2
REMARK    2  A    between atoms: O_2  and  C_3
REMARK    3  A    between atoms: C_4  and  N_5
REMARK    4  A    between atoms: C_8  and  N_9
REMARK    5  A    between atoms: N_20  and  C_21
REMARK                            x       y       z     vdW  Elec       q    Type
REMARK                         _______ _______ _______ _____ _____    ______ ____
ROOT
ATOM      1  C   UNL     1      -3.815  12.310  19.603  0.00  0.00    +0.000 A 
ATOM      2  C   UNL     1      -5.181  12.486  19.133  0.00  0.00    +0.000 A 
ATOM      3  C   UNL     1      -5.468  11.927  17.876  0.00  0.00    +0.000 A 
ATOM      4  F   UNL     1      -6.693  12.051  17.321  0.00  0.00    +0.000 F 
ATOM      5  C   UNL     1      -4.534  11.242  17.127  0.00  0.00    +0.000 A 
ATOM      6  C   UNL     1      -3.245  11.059  17.628  0.00  0.00    +0.000 A 
ATOM      7  C   UNL     1      -2.321  10.302  16.780  0.00  0.00    +0.000 A 
ATOM      8  O   UNL     1      -2.682   9.745  15.751  0.00  0.00    +0.000 OA
ATOM      9  N   UNL     1      -1.035  10.258  17.207  0.00  0.00    +0.000 N 
ATOM     10  C   UNL     1      -0.624  10.468  18.484  0.00  0.00    +0.000 A 
ATOM     11  O   UNL     1       0.495  10.043  18.766  0.00  0.00    +0.000 OA
ATOM     12  N   UNL     1      -1.498  11.135  19.353  0.00  0.00    +0.000 N 
ATOM     13  C   UNL     1      -2.837  11.533  18.889  0.00  0.00    +0.000 A 
ATOM     14  H   UNL     1      -0.402   9.703  16.650  0.00  0.00    +0.000 HD
ENDROOT
BRANCH   2  15
ATOM     15  N   UNL     1      -6.185  13.123  19.861  0.00  0.00    +0.000 N 
ATOM     16  C   UNL     1      -6.665  14.486  19.637  0.00  0.00    +0.000 C 
ATOM     17  C   UNL     1      -7.908  14.638  20.524  0.00  0.00    +0.000 C 
ATOM     18  C   UNL     1      -7.774  13.549  21.581  0.00  0.00    +0.000 C 
ATOM     19  C   UNL     1      -7.088  12.418  20.784  0.00  0.00    +0.000 C 
BRANCH  18  20
ATOM     20  N   UNL     1      -6.977  14.032  22.722  0.00  0.00    +0.000 NA
ATOM     21  H   UNL     1      -6.993  15.053  22.724  0.00  0.00    +0.000 HD
ATOM     22  H   UNL     1      -5.997  13.789  22.565  0.00  0.00    +0.000 HD
ENDBRANCH  18  20
ENDBRANCH   2  15
BRANCH  12  23
ATOM     23  C   UNL     1      -1.092  11.339  20.747  0.00  0.00    +0.000 C 
ATOM     24  C   UNL     1       0.248  11.043  21.389  0.00  0.00    +0.000 C 
ATOM     25  C   UNL     1      -0.094  12.452  21.056  0.00  0.00    +0.000 C 
ENDBRANCH  12  23
BRANCH   1  27
ATOM     26  C   UNL     1      -3.225  14.207  20.888  0.00  0.00    +0.000 C 
ATOM     27  O   UNL     1      -3.554  12.819  20.856  0.00  0.00    +0.000 OA
ENDBRANCH   1  27
TORSDOF 4
ENDMDL
MODEL 4
REMARK VINA RESULT:      -5.8      4.965      8.634
REMARK  Name = 
REMARK  5 active torsions:
REMARK  status: ('A' for Active; 'I' for Inactive)
REMARK    1  A    between atoms: C_1  and  O_2
REMARK    2  A    between atoms: O_2  and  C_3
REMARK    3  A    between atoms: C_4  and  N_5
REMARK    4  A    between atoms: C_8  and  N_9
REMARK    5  A    between atoms: N_20  and  C_21
REMARK                            x       y       z     vdW  Elec       q    Type
REMARK                         _______ _______ _______ _____ _____    ______ ____
ROOT
ATOM      1  C   UNL     1      -1.793  12.089  20.973  0.00  0.00    +0.000 A 
ATOM      2  C   UNL     1      -3.112  12.679  20.809  0.00  0.00    +0.000 A 
ATOM      3  C   UNL     1      -3.732  12.447  19.569  0.00  0.00    +0.000 A 
ATOM      4  F   UNL     1      -4.946  12.968  19.287  0.00  0.00    +0.000 F 
ATOM      5  C   UNL     1      -3.150  11.701  18.566  0.00  0.00    +0.000 A 
ATOM      6  C   UNL     1      -1.899  11.117  18.775  0.00  0.00    +0.000 A 
ATOM      7  C   UNL     1      -1.361  10.323  17.668  0.00  0.00    +0.000 A 
ATOM      8  O   UNL     1      -2.015  10.069  16.665  0.00  0.00    +0.000 OA
ATOM      9  N   UNL     1      -0.088   9.886  17.825  0.00  0.00    +0.000 N 
ATOM     10  C   UNL     1       0.557   9.752  19.013  0.00  0.00    +0.000 A 
ATOM     11  O   UNL     1       1.545   9.020  19.010  0.00  0.00    +0.000 OA
ATOM     12  N   UNL     1       0.044  10.445  20.119  0.00  0.00    +0.000 N 
ATOM     13  C   UNL     1      -1.188  11.239  19.984  0.00  0.00    +0.000 A 
ATOM     14  H   UNL     1       0.275   9.303  17.085  0.00  0.00    +0.000 HD
ENDROOT
BRANCH   2  15
ATOM     15  N   UNL     1      -3.778  13.401  21.798  0.00  0.00    +0.000 N 
ATOM     16  C   UNL     1      -3.865  14.859  21.877  0.00  0.00    +0.000 C 
ATOM     17  C   UNL     1      -4.877  15.154  22.992  0.00  0.00    +0.000 C 
ATOM     18  C   UNL     1      -4.925  13.881  23.829  0.00  0.00    +0.000 C 
ATOM     19  C   UNL     1      -4.714  12.791  22.756  0.00  0.00    +0.000 C 
BRANCH  18  20
ATOM     20  N   UNL     1      -3.874  13.902  24.861  0.00  0.00    +0.000 NA
ATOM     21  H   UNL     1      -2.973  14.061  24.408  0.00  0.00    +0.000 HD
ATOM     22  H   UNL     1      -3.796  12.970  25.271  0.00  0.00    +0.000 HD
ENDBRANCH  18  20
ENDBRANCH   2  15
BRANCH  12  23
ATOM     23  C   UNL     1       0.700  10.285  21.420  0.00  0.00    +0.000 C 
ATOM     24  C   UNL     1       0.142   9.663  22.683  0.00  0.00    +0.000 C 
ATOM     25  C   UNL     1       1.104   8.881  21.861  0.00  0.00    +0.000 C 
ENDBRANCH  12  23
BRANCH   1  27
ATOM     26  C   UNL     1      -0.417  13.460  22.325  0.00  0.00    +0.000 C 
ATOM     27  O   UNL     1      -1.213  12.282  22.208  0.00  0.00    +0.000 OA
ENDBRANCH   1  27
TORSDOF 4
ENDMDL
MODEL 5
REMARK VINA RESULT:      -5.7      2.082      6.041
REMARK  Name = 
REMARK  5 active torsions:
REMARK  status: ('A' for Active; 'I' for Inactive)
REMARK    1  A    between atoms: C_1  and  O_2
REMARK    2  A    between atoms: O_2  and  C_3
REMARK    3  A    between atoms: C_4  and  N_5
REMARK    4  A    between atoms: C_8  and  N_9
REMARK    5  A    between atoms: N_20  and  C_21
REMARK                            x       y       z     vdW  Elec       q    Type
REMARK                         _______ _______ _______ _____ _____    ______ ____
ROOT
ATOM      1  C   UNL     1       1.704   7.941  19.798  0.00  0.00    +0.000 A 
ATOM      2  C   UNL     1       1.510   9.227  19.146  0.00  0.00    +0.000 A 
ATOM      3  C   UNL     1       2.262   9.435  17.976  0.00  0.00    +0.000 A 
ATOM      4  F   UNL     1       2.191  10.602  17.299  0.00  0.00    +0.000 F 
ATOM      5  C   UNL     1       3.122   8.490  17.459  0.00  0.00    +0.000 A 
ATOM      6  C   UNL     1       3.252   7.252  18.090  0.00  0.00    +0.000 A 
ATOM      7  C   UNL     1       4.169   6.297  17.463  0.00  0.00    +0.000 A 
ATOM      8  O   UNL     1       4.697   6.509  16.380  0.00  0.00    +0.000 OA
ATOM      9  N   UNL     1       4.398   5.159  18.163  0.00  0.00    +0.000 N 
ATOM     10  C   UNL     1       3.586   4.651  19.125  0.00  0.00    +0.000 A 
ATOM     11  O   UNL     1       3.747   3.461  19.393  0.00  0.00    +0.000 OA
ATOM     12  N   UNL     1       2.648   5.510  19.714  0.00  0.00    +0.000 N 
ATOM     13  C   UNL     1       2.527   6.901  19.245  0.00  0.00    +0.000 A 
ATOM     14  H   UNL     1       4.996   4.478  17.719  0.00  0.00    +0.000 HD
ENDROOT
BRANCH   2  15
ATOM     15  N   UNL     1       0.621  10.206  19.588  0.00  0.00    +0.000 N 
ATOM     16  C   UNL     1      -0.837  10.118  19.537  0.00  0.00    +0.000 C 
ATOM     17  C   UNL     1      -1.353  11.321  20.337  0.00  0.00    +0.000 C 
ATOM     18  C   UNL     1      -0.190  12.305  20.366  0.00  0.00    +0.000 C 
ATOM     19  C   UNL     1       1.026  11.354  20.415  0.00  0.00    +0.000 C 
BRANCH  18  20
ATOM     20  N   UNL     1      -0.214  13.167  19.171  0.00  0.00    +0.000 NA
ATOM     21  H   UNL     1      -1.171  13.213  18.819  0.00  0.00    +0.000 HD
ATOM     22  H   UNL     1       0.314  12.711  18.425  0.00  0.00    +0.000 HD
ENDBRANCH  18  20
ENDBRANCH   2  15
BRANCH  12  23
ATOM     23  C   UNL     1       1.734   4.974  20.726  0.00  0.00    +0.000 C 
ATOM     24  C   UNL     1       0.994   3.652  20.719  0.00  0.00    +0.000 C 
ATOM     25  C   UNL     1       2.202   3.796  21.576  0.00  0.00    +0.000 C 
ENDBRANCH  12  23
BRANCH   1  27
ATOM     26  C   UNL     1       1.347   8.428  22.086  0.00  0.00    +0.000 C 
ATOM     27  O   UNL     1       0.928   7.728  20.916  0.00  0.00    +0.000 OA
ENDBRANCH   1  27
TORSDOF 4
ENDMDL
MODEL 6
REMARK VINA RESULT:      -5.7      2.103      5.972
REMARK  Name = 
REMARK  5 active torsions:
REMARK  status: ('A' for Active; 'I' for Inactive)
REMARK    1  A    between atoms: C_1  and  O_2
REMARK    2  A    between atoms: O_2  and  C_3
REMARK    3  A    between atoms: C_4  and  N_5
REMARK    4  A    between atoms: C_8  and  N_9
REMARK    5  A    between atoms: N_20  and  C_21
REMARK                            x       y       z     vdW  Elec       q    Type
REMARK                         _______ _______ _______ _____ _____    ______ ____
ROOT
ATOM      1  C   UNL     1       1.766   7.962  19.825  0.00  0.00    +0.000 A 
ATOM      2  C   UNL     1       1.595   9.263  19.197  0.00  0.00    +0.000 A 
ATOM      3  C   UNL     1       2.311   9.461  18.004  0.00  0.00    +0.000 A 
ATOM      4  F   UNL     1       2.256  10.639  17.345  0.00  0.00    +0.000 F 
ATOM      5  C   UNL     1       3.119   8.494  17.443  0.00  0.00    +0.000 A 
ATOM      6  C   UNL     1       3.228   7.244  18.053  0.00  0.00    +0.000 A 
ATOM      7  C   UNL     1       4.088   6.267  17.382  0.00  0.00    +0.000 A 
ATOM      8  O   UNL     1       4.584   6.476  16.283  0.00  0.00    +0.000 OA
ATOM      9  N   UNL     1       4.303   5.112  18.058  0.00  0.00    +0.000 N 
ATOM     10  C   UNL     1       3.508   4.618  19.042  0.00  0.00    +0.000 A 
ATOM     11  O   UNL     1       3.638   3.420  19.289  0.00  0.00    +0.000 OA
ATOM     12  N   UNL     1       2.622   5.501  19.675  0.00  0.00    +0.000 N 
ATOM     13  C   UNL     1       2.533   6.901  19.230  0.00  0.00    +0.000 A 
ATOM     14  H   UNL     1       4.860   4.417  17.584  0.00  0.00    +0.000 HD
ENDROOT
BRANCH   2  15
ATOM     15  N   UNL     1       0.757  10.265  19.684  0.00  0.00    +0.000 N 
ATOM     16  C   UNL     1       1.179  11.601  20.101  0.00  0.00    +0.000 C 
ATOM     17  C   UNL     1      -0.116  12.391  20.333  0.00  0.00    +0.000 C 
ATOM     18  C   UNL     1      -1.193  11.333  20.536  0.00  0.00    +0.000 C 
ATOM     19  C   UNL     1      -0.711  10.208  19.594  0.00  0.00    +0.000 C 
BRANCH  18  20
ATOM     20  N   UNL     1      -1.259  10.927  21.951  0.00  0.00    +0.000 NA
ATOM     21  H   UNL     1      -0.864  11.674  22.524  0.00  0.00    +0.000 HD
ATOM     22  H   UNL     1      -0.633  10.133  22.095  0.00  0.00    +0.000 HD
ENDBRANCH  18  20
ENDBRANCH   2  15
BRANCH  12  23
ATOM     23  C   UNL     1       1.726   4.982  20.713  0.00  0.00    +0.000 C 
ATOM     24  C   UNL     1       1.026   3.640  20.765  0.00  0.00    +0.000 C 
ATOM     25  C   UNL     1       2.232   3.855  21.610  0.00  0.00    +0.000 C 
ENDBRANCH  12  23
BRANCH   1  27
ATOM     26  C   UNL     1       1.440   8.517  22.102  0.00  0.00    +0.000 C 
ATOM     27  O   UNL     1       1.024   7.759  20.968  0.00  0.00    +0.000 OA
ENDBRANCH   1  27
TORSDOF 4
ENDMDL
MODEL 7
REMARK VINA RESULT:      -5.7      6.190      9.698
REMARK  Name = 
REMARK  5 active torsions:
REMARK  status: ('A' for Active; 'I' for Inactive)
REMARK    1  A    between atoms: C_1  and  O_2
REMARK    2  A    between atoms: O_2  and  C_3
REMARK    3  A    between atoms: C_4  and  N_5
REMARK    4  A    between atoms: C_8  and  N_9
REMARK    5  A    between atoms: N_20  and  C_21
REMARK                            x       y       z     vdW  Elec       q    Type
REMARK                         _______ _______ _______ _____ _____    ______ ____
ROOT
ATOM      1  C   UNL     1      -3.490  12.502  20.101  0.00  0.00    +0.000 A 
ATOM      2  C   UNL     1      -4.884  12.908  20.015  0.00  0.00    +0.000 A 
ATOM      3  C   UNL     1      -5.544  12.568  18.821  0.00  0.00    +0.000 A 
ATOM      4  F   UNL     1      -6.832  12.918  18.612  0.00  0.00    +0.000 F 
ATOM      5  C   UNL     1      -4.932  11.884  17.793  0.00  0.00    +0.000 A 
ATOM      6  C   UNL     1      -3.604  11.475  17.927  0.00  0.00    +0.000 A 
ATOM      7  C   UNL     1      -3.035  10.735  16.799  0.00  0.00    +0.000 A 
ATOM      8  O   UNL     1      -3.711  10.375  15.844  0.00  0.00    +0.000 OA
ATOM      9  N   UNL     1      -1.708  10.474  16.878  0.00  0.00    +0.000 N 
ATOM     10  C   UNL     1      -0.978  10.453  18.023  0.00  0.00    +0.000 A 
ATOM     11  O   UNL     1       0.097   9.858  17.966  0.00  0.00    +0.000 OA
ATOM     12  N   UNL     1      -1.507  11.097  19.151  0.00  0.00    +0.000 N 
ATOM     13  C   UNL     1      -2.841  11.717  19.086  0.00  0.00    +0.000 A 
ATOM     14  H   UNL     1      -1.317   9.928  16.125  0.00  0.00    +0.000 HD
ENDROOT
BRANCH   2  15
ATOM     15  N   UNL     1      -5.577  13.558  21.036  0.00  0.00    +0.000 N 
ATOM     16  C   UNL     1      -5.935  14.975  21.055  0.00  0.00    +0.000 C 
ATOM     17  C   UNL     1      -6.871  15.150  22.258  0.00  0.00    +0.000 C 
ATOM     18  C   UNL     1      -6.592  13.949  23.153  0.00  0.00    +0.000 C 
ATOM     19  C   UNL     1      -6.280  12.848  22.116  0.00  0.00    +0.000 C 
BRANCH  18  20
ATOM     20  N   UNL     1      -5.469  14.234  24.064  0.00  0.00    +0.000 NA
ATOM     21  H   UNL     1      -4.683  13.633  23.813  0.00  0.00    +0.000 HD
ATOM     22  H   UNL     1      -5.727  13.941  25.007  0.00  0.00    +0.000 HD
ENDBRANCH  18  20
ENDBRANCH   2  15
BRANCH  12  23
ATOM     23  C   UNL     1      -0.756  11.054  20.408  0.00  0.00    +0.000 C 
ATOM     24  C   UNL     1       0.644  10.528  20.650  0.00  0.00    +0.000 C 
ATOM     25  C   UNL     1       0.431  11.999  20.576  0.00  0.00    +0.000 C 
ENDBRANCH  12  23
BRANCH   1  27
ATOM     26  C   UNL     1      -2.359  14.127  21.397  0.00  0.00    +0.000 C 
ATOM     27  O   UNL     1      -2.865  12.797  21.292  0.00  0.00    +0.000 OA
ENDBRANCH   1  27
TORSDOF 4
ENDMDL
MODEL 8
REMARK VINA RESULT:      -5.7      8.531      9.636
REMARK  Name = 
REMARK  5 active torsions:
REMARK  status: ('A' for Active; 'I' for Inactive)
REMARK    1  A    between atoms: C_1  and  O_2
REMARK    2  A    between atoms: O_2  and  C_3
REMARK    3  A    between atoms: C_4  and  N_5
REMARK    4  A    between atoms: C_8  and  N_9
REMARK    5  A    between atoms: N_20  and  C_21
REMARK                            x       y       z     vdW  Elec       q    Type
REMARK                         _______ _______ _______ _____ _____    ______ ____
ROOT
ATOM      1  C   UNL     1       8.363  13.620  20.755  0.00  0.00    +0.000 A 
ATOM      2  C   UNL     1       8.707  14.127  19.436  0.00  0.00    +0.000 A 
ATOM      3  C   UNL     1       7.752  14.969  18.840  0.00  0.00    +0.000 A 
ATOM      4  F   UNL     1       7.944  15.478  17.604  0.00  0.00    +0.000 F 
ATOM      5  C   UNL     1       6.566  15.312  19.455  0.00  0.00    +0.000 A 
ATOM      6  C   UNL     1       6.288  14.838  20.737  0.00  0.00    +0.000 A 
ATOM      7  C   UNL     1       5.017  15.267  21.326  0.00  0.00    +0.000 A 
ATOM      8  O   UNL     1       4.294  16.097  20.792  0.00  0.00    +0.000 OA
ATOM      9  N   UNL     1       4.692  14.684  22.506  0.00  0.00    +0.000 N 
ATOM     10  C   UNL     1       5.568  14.096  23.360  0.00  0.00    +0.000 A 
ATOM     11  O   UNL     1       5.176  13.947  24.517  0.00  0.00    +0.000 OA
ATOM     12  N   UNL     1       6.822  13.721  22.859  0.00  0.00    +0.000 N 
ATOM     13  C   UNL     1       7.176  14.020  21.461  0.00  0.00    +0.000 A 
ATOM     14  H   UNL     1       3.839  15.006  22.939  0.00  0.00    +0.000 HD
ENDROOT
BRANCH   2  15
ATOM     15  N   UNL     1       9.908  13.860  18.781  0.00  0.00    +0.000 N 
ATOM     16  C   UNL     1      11.204  14.457  19.099  0.00  0.00    +0.000 C 
ATOM     17  C   UNL     1      12.233  13.683  18.265  0.00  0.00    +0.000 C 
ATOM     18  C   UNL     1      11.429  13.039  17.143  0.00  0.00    +0.000 C 
ATOM     19  C   UNL     1      10.089  12.735  17.850  0.00  0.00    +0.000 C 
BRANCH  18  20
ATOM     20  N   UNL     1      11.295  13.966  16.005  0.00  0.00    +0.000 NA
ATOM     21  H   UNL     1      10.596  13.595  15.361  0.00  0.00    +0.000 HD
ATOM     22  H   UNL     1      12.166  13.961  15.472  0.00  0.00    +0.000 HD
ENDBRANCH  18  20
ENDBRANCH   2  15
BRANCH  12  23
ATOM     23  C   UNL     1       7.799  13.120  23.772  0.00  0.00    +0.000 C 
ATOM     24  C   UNL     1       7.599  12.684  25.208  0.00  0.00    +0.000 C 
ATOM     25  C   UNL     1       7.636  11.648  24.141  0.00  0.00    +0.000 C 
ENDBRANCH  12  23
BRANCH   1  27
ATOM     26  C   UNL     1       9.277  11.452  21.004  0.00  0.00    +0.000 C 
ATOM     27  O   UNL     1       9.324  12.834  21.351  0.00  0.00    +0.000 OA
ENDBRANCH   1  27
TORSDOF 4
ENDMDL
MODEL 9
REMARK VINA RESULT:      -5.6      5.817      9.785
REMARK  Name = 
REMARK  5 active torsions:
REMARK  status: ('A' for Active; 'I' for Inactive)
REMARK    1  A    between atoms: C_1  and  O_2
REMARK    2  A    between atoms: O_2  and  C_3
REMARK    3  A    between atoms: C_4  and  N_5
REMARK    4  A    between atoms: C_8  and  N_9
REMARK    5  A    between atoms: N_20  and  C_21
REMARK                            x       y       z     vdW  Elec       q    Type
REMARK                         _______ _______ _______ _____ _____    ______ ____
ROOT
ATOM      1  C   UNL     1      -3.003  12.767  20.815  0.00  0.00    +0.000 A 
ATOM      2  C   UNL     1      -2.973  13.505  22.069  0.00  0.00    +0.000 A 
ATOM      3  C   UNL     1      -1.862  13.256  22.894  0.00  0.00    +0.000 A 
ATOM      4  F   UNL     1      -1.737  13.858  24.096  0.00  0.00    +0.000 F 
ATOM      5  C   UNL     1      -0.852  12.382  22.550  0.00  0.00    +0.000 A 
ATOM      6  C   UNL     1      -0.895  11.722  21.321  0.00  0.00    +0.000 A 
ATOM      7  C   UNL     1       0.227  10.830  21.023  0.00  0.00    +0.000 A 
ATOM      8  O   UNL     1       1.216  10.758  21.741  0.00  0.00    +0.000 OA
ATOM      9  N   UNL     1       0.102  10.085  19.898  0.00  0.00    +0.000 N 
ATOM     10  C   UNL     1      -0.715  10.373  18.852  0.00  0.00    +0.000 A 
ATOM     11  O   UNL     1      -0.446   9.814  17.789  0.00  0.00    +0.000 OA
ATOM     12  N   UNL     1      -1.769  11.270  19.070  0.00  0.00    +0.000 N 
ATOM     13  C   UNL     1      -1.931  11.912  20.385  0.00  0.00    +0.000 A 
ATOM     14  H   UNL     1       0.889   9.498  19.664  0.00  0.00    +0.000 HD
ENDROOT
BRANCH   2  15
ATOM     15  N   UNL     1      -3.934  14.437  22.454  0.00  0.00    +0.000 N 
ATOM     16  C   UNL     1      -4.163  15.736  21.823  0.00  0.00    +0.000 C 
ATOM     17  C   UNL     1      -5.454  16.280  22.449  0.00  0.00    +0.000 C 
ATOM     18  C   UNL     1      -5.612  15.513  23.756  0.00  0.00    +0.000 C 
ATOM     19  C   UNL     1      -5.033  14.130  23.383  0.00  0.00    +0.000 C 
BRANCH  18  20
ATOM     20  N   UNL     1      -4.876  16.185  24.842  0.00  0.00    +0.000 NA
ATOM     21  H   UNL     1      -4.158  16.782  24.429  0.00  0.00    +0.000 HD
ATOM     22  H   UNL     1      -4.356  15.483  25.371  0.00  0.00    +0.000 HD
ENDBRANCH  18  20
ENDBRANCH   2  15
BRANCH  12  23
ATOM     23  C   UNL     1      -2.639  11.627  17.946  0.00  0.00    +0.000 C 
ATOM     24  C   UNL     1      -2.658  11.042  16.548  0.00  0.00    +0.000 C 
ATOM     25  C   UNL     1      -3.712  10.630  17.514  0.00  0.00    +0.000 C 
ENDBRANCH  12  23
BRANCH   1  27
ATOM     26  C   UNL     1      -5.267  12.331  20.280  0.00  0.00    +0.000 C 
ATOM     27  O   UNL     1      -4.070  13.052  19.992  0.00  0.00    +0.000 OA
ENDBRANCH   1  27
TORSDOF 4
ENDMDL
