MODEL 1
REMARK VINA RESULT:      -8.3      0.000      0.000
REMARK  Name = 
REMARK  9 active torsions:
REMARK  status: ('A' for Active; 'I' for Inactive)
REMARK    1  A    between atoms: C_1  and  O_2
REMARK    2  A    between atoms: O_2  and  C_3
REMARK    3  A    between atoms: C_3  and  C_5
REMARK    4  A    between atoms: C_5  and  C_6
REMARK    5  A    between atoms: C_5  and  C_19
REMARK    6  A    between atoms: C_6  and  C_8
REMARK    7  A    between atoms: N_10  and  C_11
REMARK    8  A    between atoms: C_15  and  O_16
REMARK    9  A    between atoms: O_16  and  C_17
REMARK                            x       y       z     vdW  Elec       q    Type
REMARK                         _______ _______ _______ _____ _____    ______ ____
ROOT
ATOM      1  C   UNL     1       6.674   5.699  17.769  0.00  0.00    +0.000 C 
ENDROOT
BRANCH   1   2
ATOM      2  C   UNL     1       5.289   5.113  17.963  0.00  0.00    +0.000 A 
ATOM      3  C   UNL     1       4.730   4.258  17.032  0.00  0.00    +0.000 A 
ATOM      4  N   UNL     1       3.470   3.777  17.143  0.00  0.00    +0.000 NA
ATOM      5  C   UNL     1       2.804   4.074  18.265  0.00  0.00    +0.000 A 
ATOM      6  C   UNL     1       1.523   3.560  18.422  0.00  0.00    +0.000 A 
ATOM      7  C   UNL     1       0.847   3.664  19.634  0.00  0.00    +0.000 A 
ATOM      8  C   UNL     1       1.451   4.323  20.692  0.00  0.00    +0.000 A 
ATOM      9  C   UNL     1       2.698   4.938  20.507  0.00  0.00    +0.000 A 
ATOM     10  C   UNL     1       3.396   4.834  19.299  0.00  0.00    +0.000 A 
ATOM     11  N   UNL     1       4.621   5.402  19.120  0.00  0.00    +0.000 NA
ENDBRANCH   1   2
BRANCH   1  12
ATOM     12  C   UNL     1       7.412   4.993  16.656  0.00  0.00    +0.000 C 
ATOM     13  O   UNL     1       8.126   4.010  16.799  0.00  0.00    +0.000 OA
BRANCH  12  15
ATOM     14  C   UNL     1       7.097   4.803  14.312  0.00  0.00    +0.000 C 
ATOM     15  O   UNL     1       7.179   5.629  15.475  0.00  0.00    +0.000 OA
ENDBRANCH  12  15
ENDBRANCH   1  12
BRANCH   1  16
ATOM     16  C   UNL     1       6.684   7.206  17.548  0.00  0.00    +0.000 C 
ATOM     17  O   UNL     1       5.862   7.852  16.906  0.00  0.00    +0.000 OA
BRANCH  16  18
ATOM     18  C   UNL     1       7.863   7.952  18.166  0.00  0.00    +0.000 C 
ATOM     19  O   UNL     1       8.628   7.306  18.877  0.00  0.00    +0.000 OA
ATOM     20  N   UNL     1       7.942   9.294  17.840  0.00  0.00    +0.000 N 
ATOM     21  H   UNL     1       7.303   9.617  17.120  0.00  0.00    +0.000 HD
BRANCH  20  22
ATOM     22  C   UNL     1       8.852  10.234  18.395  0.00  0.00    +0.000 A 
ATOM     23  C   UNL     1       9.223  10.211  19.744  0.00  0.00    +0.000 A 
ATOM     24  C   UNL     1      10.108  11.157  20.260  0.00  0.00    +0.000 A 
ATOM     25  C   UNL     1      10.632  12.143  19.433  0.00  0.00    +0.000 A 
ATOM     26  C   UNL     1      10.268  12.197  18.086  0.00  0.00    +0.000 A 
ATOM     27  C   UNL     1       9.373  11.246  17.569  0.00  0.00    +0.000 A 
BRANCH  26  28
ATOM     28  O   UNL     1      10.857  13.222  17.400  0.00  0.00    +0.000 OA
ATOM     29  C   UNL     1      12.271  13.334  17.466  0.00  0.00    +0.000 C 
ENDBRANCH  26  28
ENDBRANCH  20  22
ENDBRANCH  16  18
ENDBRANCH   1  16
TORSDOF 7
ENDMDL
MODEL 2
REMARK VINA RESULT:      -8.2      1.069      1.246
REMARK  Name = 
REMARK  9 active torsions:
REMARK  status: ('A' for Active; 'I' for Inactive)
REMARK    1  A    between atoms: C_1  and  O_2
REMARK    2  A    between atoms: O_2  and  C_3
REMARK    3  A    between atoms: C_3  and  C_5
REMARK    4  A    between atoms: C_5  and  C_6
REMARK    5  A    between atoms: C_5  and  C_19
REMARK    6  A    between atoms: C_6  and  C_8
REMARK    7  A    between atoms: N_10  and  C_11
REMARK    8  A    between atoms: C_15  and  O_16
REMARK    9  A    between atoms: O_16  and  C_17
REMARK                            x       y       z     vdW  Elec       q    Type
REMARK                         _______ _______ _______ _____ _____    ______ ____
ROOT
ATOM      1  C   UNL     1       6.725   5.687  18.029  0.00  0.00    +0.000 C 
ENDROOT
BRANCH   1   2
ATOM      2  C   UNL     1       5.328   5.462  18.573  0.00  0.00    +0.000 A 
ATOM      3  C   UNL     1       4.316   6.380  18.365  0.00  0.00    +0.000 A 
ATOM      4  N   UNL     1       3.079   6.240  18.899  0.00  0.00    +0.000 NA
ATOM      5  C   UNL     1       2.829   5.104  19.561  0.00  0.00    +0.000 A 
ATOM      6  C   UNL     1       1.557   4.918  20.084  0.00  0.00    +0.000 A 
ATOM      7  C   UNL     1       1.165   3.691  20.613  0.00  0.00    +0.000 A 
ATOM      8  C   UNL     1       2.075   2.648  20.648  0.00  0.00    +0.000 A 
ATOM      9  C   UNL     1       3.394   2.862  20.220  0.00  0.00    +0.000 A 
ATOM     10  C   UNL     1       3.801   4.084  19.676  0.00  0.00    +0.000 A 
ATOM     11  N   UNL     1       5.071   4.291  19.230  0.00  0.00    +0.000 NA
ENDBRANCH   1   2
BRANCH   1  12
ATOM     12  C   UNL     1       7.066   4.666  16.968  0.00  0.00    +0.000 C 
ATOM     13  O   UNL     1       8.146   4.104  16.856  0.00  0.00    +0.000 OA
BRANCH  12  15
ATOM     14  C   UNL     1       6.285   4.087  14.805  0.00  0.00    +0.000 C 
ATOM     15  O   UNL     1       5.997   4.484  16.146  0.00  0.00    +0.000 OA
ENDBRANCH  12  15
ENDBRANCH   1  12
BRANCH   1  16
ATOM     16  C   UNL     1       6.969   7.099  17.513  0.00  0.00    +0.000 C 
ATOM     17  O   UNL     1       6.430   7.623  16.543  0.00  0.00    +0.000 OA
BRANCH  16  18
ATOM     18  C   UNL     1       8.022   7.902  18.272  0.00  0.00    +0.000 C 
ATOM     19  O   UNL     1       8.708   7.298  19.091  0.00  0.00    +0.000 OA
ATOM     20  N   UNL     1       8.089   9.243  17.937  0.00  0.00    +0.000 N 
ATOM     21  H   UNL     1       7.541   9.530  17.132  0.00  0.00    +0.000 HD
BRANCH  20  22
ATOM     22  C   UNL     1       8.874  10.228  18.594  0.00  0.00    +0.000 A 
ATOM     23  C   UNL     1       9.096  10.209  19.976  0.00  0.00    +0.000 A 
ATOM     24  C   UNL     1       9.862  11.199  20.592  0.00  0.00    +0.000 A 
ATOM     25  C   UNL     1      10.414  12.224  19.833  0.00  0.00    +0.000 A 
ATOM     26  C   UNL     1      10.197  12.274  18.455  0.00  0.00    +0.000 A 
ATOM     27  C   UNL     1       9.422  11.279  17.837  0.00  0.00    +0.000 A 
BRANCH  26  28
ATOM     28  O   UNL     1      10.795  13.340  17.844  0.00  0.00    +0.000 OA
ATOM     29  C   UNL     1      11.337  13.138  16.547  0.00  0.00    +0.000 C 
ENDBRANCH  26  28
ENDBRANCH  20  22
ENDBRANCH  16  18
ENDBRANCH   1  16
TORSDOF 7
ENDMDL
MODEL 3
REMARK VINA RESULT:      -8.2      2.825      7.330
REMARK  Name = 
REMARK  9 active torsions:
REMARK  status: ('A' for Active; 'I' for Inactive)
REMARK    1  A    between atoms: C_1  and  O_2
REMARK    2  A    between atoms: O_2  and  C_3
REMARK    3  A    between atoms: C_3  and  C_5
REMARK    4  A    between atoms: C_5  and  C_6
REMARK    5  A    between atoms: C_5  and  C_19
REMARK    6  A    between atoms: C_6  and  C_8
REMARK    7  A    between atoms: N_10  and  C_11
REMARK    8  A    between atoms: C_15  and  O_16
REMARK    9  A    between atoms: O_16  and  C_17
REMARK                            x       y       z     vdW  Elec       q    Type
REMARK                         _______ _______ _______ _____ _____    ______ ____
ROOT
ATOM      1  C   UNL     1       6.273   5.929  17.031  0.00  0.00    +0.000 C 
ENDROOT
BRANCH   1   2
ATOM      2  C   UNL     1       5.039   5.647  17.866  0.00  0.00    +0.000 A 
ATOM      3  C   UNL     1       3.893   6.409  17.741  0.00  0.00    +0.000 A 
ATOM      4  N   UNL     1       2.803   6.226  18.523  0.00  0.00    +0.000 NA
ATOM      5  C   UNL     1       2.829   5.188  19.367  0.00  0.00    +0.000 A 
ATOM      6  C   UNL     1       1.708   4.954  20.152  0.00  0.00    +0.000 A 
ATOM      7  C   UNL     1       1.585   3.792  20.908  0.00  0.00    +0.000 A 
ATOM      8  C   UNL     1       2.617   2.868  20.902  0.00  0.00    +0.000 A 
ATOM      9  C   UNL     1       3.797   3.149  20.197  0.00  0.00    +0.000 A 
ATOM     10  C   UNL     1       3.933   4.307  19.423  0.00  0.00    +0.000 A 
ATOM     11  N   UNL     1       5.063   4.574  18.712  0.00  0.00    +0.000 NA
ENDBRANCH   1   2
BRANCH   1  12
ATOM     12  C   UNL     1       7.243   6.817  17.777  0.00  0.00    +0.000 C 
ATOM     13  O   UNL     1       7.817   6.515  18.813  0.00  0.00    +0.000 OA
BRANCH  12  15
ATOM     14  C   UNL     1       8.115   9.022  17.798  0.00  0.00    +0.000 C 
ATOM     15  O   UNL     1       7.363   8.009  17.130  0.00  0.00    +0.000 OA
ENDBRANCH  12  15
ENDBRANCH   1  12
BRANCH   1  16
ATOM     16  C   UNL     1       6.975   4.678  16.520  0.00  0.00    +0.000 C 
ATOM     17  O   UNL     1       8.085   4.278  16.857  0.00  0.00    +0.000 OA
BRANCH  16  18
ATOM     18  C   UNL     1       6.216   3.887  15.458  0.00  0.00    +0.000 C 
ATOM     19  O   UNL     1       5.396   3.062  15.850  0.00  0.00    +0.000 OA
ATOM     20  N   UNL     1       6.538   4.205  14.151  0.00  0.00    +0.000 N 
ATOM     21  H   UNL     1       7.133   5.018  14.022  0.00  0.00    +0.000 HD
BRANCH  20  22
ATOM     22  C   UNL     1       6.085   3.520  12.991  0.00  0.00    +0.000 A 
ATOM     23  C   UNL     1       6.890   2.608  12.298  0.00  0.00    +0.000 A 
ATOM     24  C   UNL     1       6.420   1.962  11.155  0.00  0.00    +0.000 A 
ATOM     25  C   UNL     1       5.137   2.222  10.687  0.00  0.00    +0.000 A 
ATOM     26  C   UNL     1       4.319   3.137  11.352  0.00  0.00    +0.000 A 
ATOM     27  C   UNL     1       4.796   3.790  12.500  0.00  0.00    +0.000 A 
BRANCH  26  28
ATOM     28  O   UNL     1       3.089   3.295  10.774  0.00  0.00    +0.000 OA
ATOM     29  C   UNL     1       2.981   4.210   9.694  0.00  0.00    +0.000 C 
ENDBRANCH  26  28
ENDBRANCH  20  22
ENDBRANCH  16  18
ENDBRANCH   1  16
TORSDOF 7
ENDMDL
MODEL 4
REMARK VINA RESULT:      -8.1      1.200      1.444
REMARK  Name = 
REMARK  9 active torsions:
REMARK  status: ('A' for Active; 'I' for Inactive)
REMARK    1  A    between atoms: C_1  and  O_2
REMARK    2  A    between atoms: O_2  and  C_3
REMARK    3  A    between atoms: C_3  and  C_5
REMARK    4  A    between atoms: C_5  and  C_6
REMARK    5  A    between atoms: C_5  and  C_19
REMARK    6  A    between atoms: C_6  and  C_8
REMARK    7  A    between atoms: N_10  and  C_11
REMARK    8  A    between atoms: C_15  and  O_16
REMARK    9  A    between atoms: O_16  and  C_17
REMARK                            x       y       z     vdW  Elec       q    Type
REMARK                         _______ _______ _______ _____ _____    ______ ____
ROOT
ATOM      1  C   UNL     1       6.776   5.753  18.020  0.00  0.00    +0.000 C 
ENDROOT
BRANCH   1   2
ATOM      2  C   UNL     1       5.337   5.287  18.121  0.00  0.00    +0.000 A 
ATOM      3  C   UNL     1       4.285   6.107  17.761  0.00  0.00    +0.000 A 
ATOM      4  N   UNL     1       2.988   5.744  17.909  0.00  0.00    +0.000 NA
ATOM      5  C   UNL     1       2.753   4.493  18.321  0.00  0.00    +0.000 A 
ATOM      6  C   UNL     1       1.432   4.081  18.442  0.00  0.00    +0.000 A 
ATOM      7  C   UNL     1       1.109   2.748  18.677  0.00  0.00    +0.000 A 
ATOM      8  C   UNL     1       2.128   1.821  18.826  0.00  0.00    +0.000 A 
ATOM      9  C   UNL     1       3.464   2.249  18.813  0.00  0.00    +0.000 A 
ATOM     10  C   UNL     1       3.806   3.583  18.567  0.00  0.00    +0.000 A 
ATOM     11  N   UNL     1       5.101   4.001  18.522  0.00  0.00    +0.000 NA
ENDBRANCH   1   2
BRANCH   1  12
ATOM     12  C   UNL     1       7.612   4.770  17.233  0.00  0.00    +0.000 C 
ATOM     13  O   UNL     1       8.391   3.963  17.720  0.00  0.00    +0.000 OA
BRANCH  12  15
ATOM     14  C   UNL     1       6.571   3.942  15.269  0.00  0.00    +0.000 C 
ATOM     15  O   UNL     1       7.381   4.934  15.901  0.00  0.00    +0.000 OA
ENDBRANCH  12  15
ENDBRANCH   1  12
BRANCH   1  16
ATOM     16  C   UNL     1       6.933   7.161  17.459  0.00  0.00    +0.000 C 
ATOM     17  O   UNL     1       6.334   7.632  16.497  0.00  0.00    +0.000 OA
BRANCH  16  18
ATOM     18  C   UNL     1       7.971   8.033  18.159  0.00  0.00    +0.000 C 
ATOM     19  O   UNL     1       8.695   7.491  18.990  0.00  0.00    +0.000 OA
ATOM     20  N   UNL     1       7.984   9.358  17.762  0.00  0.00    +0.000 N 
ATOM     21  H   UNL     1       7.411   9.589  16.957  0.00  0.00    +0.000 HD
BRANCH  20  22
ATOM     22  C   UNL     1       8.748  10.399  18.358  0.00  0.00    +0.000 A 
ATOM     23  C   UNL     1       9.398  10.242  19.587  0.00  0.00    +0.000 A 
ATOM     24  C   UNL     1      10.128  11.288  20.150  0.00  0.00    +0.000 A 
ATOM     25  C   UNL     1      10.217  12.508  19.491  0.00  0.00    +0.000 A 
ATOM     26  C   UNL     1       9.568  12.695  18.270  0.00  0.00    +0.000 A 
ATOM     27  C   UNL     1       8.828  11.642  17.706  0.00  0.00    +0.000 A 
BRANCH  26  28
ATOM     28  O   UNL     1       9.738  13.946  17.744  0.00  0.00    +0.000 OA
ATOM     29  C   UNL     1       9.212  15.045  18.473  0.00  0.00    +0.000 C 
ENDBRANCH  26  28
ENDBRANCH  20  22
ENDBRANCH  16  18
ENDBRANCH   1  16
TORSDOF 7
ENDMDL
MODEL 5
REMARK VINA RESULT:      -8.1      2.841      7.432
REMARK  Name = 
REMARK  9 active torsions:
REMARK  status: ('A' for Active; 'I' for Inactive)
REMARK    1  A    between atoms: C_1  and  O_2
REMARK    2  A    between atoms: O_2  and  C_3
REMARK    3  A    between atoms: C_3  and  C_5
REMARK    4  A    between atoms: C_5  and  C_6
REMARK    5  A    between atoms: C_5  and  C_19
REMARK    6  A    between atoms: C_6  and  C_8
REMARK    7  A    between atoms: N_10  and  C_11
REMARK    8  A    between atoms: C_15  and  O_16
REMARK    9  A    between atoms: O_16  and  C_17
REMARK                            x       y       z     vdW  Elec       q    Type
REMARK                         _______ _______ _______ _____ _____    ______ ____
ROOT
ATOM      1  C   UNL     1       6.502   6.057  16.673  0.00  0.00    +0.000 C 
ENDROOT
BRANCH   1   2
ATOM      2  C   UNL     1       5.171   5.625  17.258  0.00  0.00    +0.000 A 
ATOM      3  C   UNL     1       4.227   6.548  17.664  0.00  0.00    +0.000 A 
ATOM      4  N   UNL     1       3.061   6.193  18.255  0.00  0.00    +0.000 NA
ATOM      5  C   UNL     1       2.798   4.884  18.337  0.00  0.00    +0.000 A 
ATOM      6  C   UNL     1       1.591   4.493  18.903  0.00  0.00    +0.000 A 
ATOM      7  C   UNL     1       1.163   3.170  18.850  0.00  0.00    +0.000 A 
ATOM      8  C   UNL     1       1.973   2.220  18.250  0.00  0.00    +0.000 A 
ATOM      9  C   UNL     1       3.240   2.588  17.773  0.00  0.00    +0.000 A 
ATOM     10  C   UNL     1       3.681   3.915  17.809  0.00  0.00    +0.000 A 
ATOM     11  N   UNL     1       4.897   4.287  17.321  0.00  0.00    +0.000 NA
ENDBRANCH   1   2
BRANCH   1  12
ATOM     12  C   UNL     1       7.324   6.812  17.693  0.00  0.00    +0.000 C 
ATOM     13  O   UNL     1       7.446   6.498  18.868  0.00  0.00    +0.000 OA
BRANCH  12  15
ATOM     14  C   UNL     1       7.985   9.079  17.912  0.00  0.00    +0.000 C 
ATOM     15  O   UNL     1       7.890   7.903  17.108  0.00  0.00    +0.000 OA
ENDBRANCH  12  15
ENDBRANCH   1  12
BRANCH   1  16
ATOM     16  C   UNL     1       7.311   4.919  16.067  0.00  0.00    +0.000 C 
ATOM     17  O   UNL     1       8.145   4.230  16.647  0.00  0.00    +0.000 OA
BRANCH  16  18
ATOM     18  C   UNL     1       7.069   4.660  14.583  0.00  0.00    +0.000 C 
ATOM     19  O   UNL     1       7.519   5.479  13.787  0.00  0.00    +0.000 OA
ATOM     20  N   UNL     1       6.365   3.503  14.299  0.00  0.00    +0.000 N 
ATOM     21  H   UNL     1       6.203   2.876  15.080  0.00  0.00    +0.000 HD
BRANCH  20  22
ATOM     22  C   UNL     1       5.886   3.112  13.019  0.00  0.00    +0.000 A 
ATOM     23  C   UNL     1       6.608   2.254  12.180  0.00  0.00    +0.000 A 
ATOM     24  C   UNL     1       6.116   1.900  10.924  0.00  0.00    +0.000 A 
ATOM     25  C   UNL     1       4.895   2.402  10.489  0.00  0.00    +0.000 A 
ATOM     26  C   UNL     1       4.162   3.269  11.300  0.00  0.00    +0.000 A 
ATOM     27  C   UNL     1       4.661   3.629  12.563  0.00  0.00    +0.000 A 
BRANCH  26  28
ATOM     28  O   UNL     1       2.987   3.685  10.737  0.00  0.00    +0.000 OA
ATOM     29  C   UNL     1       3.036   4.200   9.415  0.00  0.00    +0.000 C 
ENDBRANCH  26  28
ENDBRANCH  20  22
ENDBRANCH  16  18
ENDBRANCH   1  16
TORSDOF 7
ENDMDL
MODEL 6
REMARK VINA RESULT:      -8.0      1.324      1.585
REMARK  Name = 
REMARK  9 active torsions:
REMARK  status: ('A' for Active; 'I' for Inactive)
REMARK    1  A    between atoms: C_1  and  O_2
REMARK    2  A    between atoms: O_2  and  C_3
REMARK    3  A    between atoms: C_3  and  C_5
REMARK    4  A    between atoms: C_5  and  C_6
REMARK    5  A    between atoms: C_5  and  C_19
REMARK    6  A    between atoms: C_6  and  C_8
REMARK    7  A    between atoms: N_10  and  C_11
REMARK    8  A    between atoms: C_15  and  O_16
REMARK    9  A    between atoms: O_16  and  C_17
REMARK                            x       y       z     vdW  Elec       q    Type
REMARK                         _______ _______ _______ _____ _____    ______ ____
ROOT
ATOM      1  C   UNL     1       6.248   5.351  17.490  0.00  0.00    +0.000 C 
ENDROOT
BRANCH   1   2
ATOM      2  C   UNL     1       4.957   5.123  18.252  0.00  0.00    +0.000 A 
ATOM      3  C   UNL     1       3.849   5.923  18.051  0.00  0.00    +0.000 A 
ATOM      4  N   UNL     1       2.708   5.789  18.768  0.00  0.00    +0.000 NA
ATOM      5  C   UNL     1       2.646   4.761  19.622  0.00  0.00    +0.000 A 
ATOM      6  C   UNL     1       1.473   4.576  20.341  0.00  0.00    +0.000 A 
ATOM      7  C   UNL     1       1.262   3.428  21.099  0.00  0.00    +0.000 A 
ATOM      8  C   UNL     1       2.259   2.468  21.163  0.00  0.00    +0.000 A 
ATOM      9  C   UNL     1       3.488   2.698  20.528  0.00  0.00    +0.000 A 
ATOM     10  C   UNL     1       3.712   3.841  19.753  0.00  0.00    +0.000 A 
ATOM     11  N   UNL     1       4.891   4.059  19.109  0.00  0.00    +0.000 NA
ENDBRANCH   1   2
BRANCH   1  12
ATOM     12  C   UNL     1       6.361   4.404  16.317  0.00  0.00    +0.000 C 
ATOM     13  O   UNL     1       5.602   3.473  16.090  0.00  0.00    +0.000 OA
BRANCH  12  15
ATOM     14  C   UNL     1       7.260   4.745  14.149  0.00  0.00    +0.000 C 
ATOM     15  O   UNL     1       7.447   4.734  15.565  0.00  0.00    +0.000 OA
ENDBRANCH  12  15
ENDBRANCH   1  12
BRANCH   1  16
ATOM     16  C   UNL     1       6.456   6.790  17.040  0.00  0.00    +0.000 C 
ATOM     17  O   UNL     1       5.879   7.354  16.115  0.00  0.00    +0.000 OA
BRANCH  16  18
ATOM     18  C   UNL     1       7.519   7.571  17.808  0.00  0.00    +0.000 C 
ATOM     19  O   UNL     1       8.183   6.953  18.636  0.00  0.00    +0.000 OA
ATOM     20  N   UNL     1       7.622   8.908  17.468  0.00  0.00    +0.000 N 
ATOM     21  H   UNL     1       7.089   9.205  16.657  0.00  0.00    +0.000 HD
BRANCH  20  22
ATOM     22  C   UNL     1       8.424   9.877  18.130  0.00  0.00    +0.000 A 
ATOM     23  C   UNL     1       9.137   9.586  19.299  0.00  0.00    +0.000 A 
ATOM     24  C   UNL     1       9.905  10.563  19.932  0.00  0.00    +0.000 A 
ATOM     25  C   UNL     1       9.968  11.848  19.404  0.00  0.00    +0.000 A 
ATOM     26  C   UNL     1       9.256  12.167  18.247  0.00  0.00    +0.000 A 
ATOM     27  C   UNL     1       8.479  11.183  17.614  0.00  0.00    +0.000 A 
BRANCH  26  28
ATOM     28  O   UNL     1       9.408  13.468  17.851  0.00  0.00    +0.000 OA
ATOM     29  C   UNL     1       8.347  14.370  18.130  0.00  0.00    +0.000 C 
ENDBRANCH  26  28
ENDBRANCH  20  22
ENDBRANCH  16  18
ENDBRANCH   1  16
TORSDOF 7
ENDMDL
MODEL 7
REMARK VINA RESULT:      -8.0      1.055      1.566
REMARK  Name = 
REMARK  9 active torsions:
REMARK  status: ('A' for Active; 'I' for Inactive)
REMARK    1  A    between atoms: C_1  and  O_2
REMARK    2  A    between atoms: O_2  and  C_3
REMARK    3  A    between atoms: C_3  and  C_5
REMARK    4  A    between atoms: C_5  and  C_6
REMARK    5  A    between atoms: C_5  and  C_19
REMARK    6  A    between atoms: C_6  and  C_8
REMARK    7  A    between atoms: N_10  and  C_11
REMARK    8  A    between atoms: C_15  and  O_16
REMARK    9  A    between atoms: O_16  and  C_17
REMARK                            x       y       z     vdW  Elec       q    Type
REMARK                         _______ _______ _______ _____ _____    ______ ____
ROOT
ATOM      1  C   UNL     1       6.740   5.764  17.846  0.00  0.00    +0.000 C 
ENDROOT
BRANCH   1   2
ATOM      2  C   UNL     1       5.340   5.207  18.017  0.00  0.00    +0.000 A 
ATOM      3  C   UNL     1       4.754   4.418  17.045  0.00  0.00    +0.000 A 
ATOM      4  N   UNL     1       3.480   3.967  17.138  0.00  0.00    +0.000 NA
ATOM      5  C   UNL     1       2.828   4.224  18.278  0.00  0.00    +0.000 A 
ATOM      6  C   UNL     1       1.534   3.738  18.416  0.00  0.00    +0.000 A 
ATOM      7  C   UNL     1       0.866   3.797  19.635  0.00  0.00    +0.000 A 
ATOM      8  C   UNL     1       1.493   4.382  20.723  0.00  0.00    +0.000 A 
ATOM      9  C   UNL     1       2.756   4.971  20.563  0.00  0.00    +0.000 A 
ATOM     10  C   UNL     1       3.446   4.911  19.347  0.00  0.00    +0.000 A 
ATOM     11  N   UNL     1       4.685   5.454  19.191  0.00  0.00    +0.000 NA
ENDBRANCH   1   2
BRANCH   1  12
ATOM     12  C   UNL     1       7.488   5.030  16.756  0.00  0.00    +0.000 C 
ATOM     13  O   UNL     1       8.137   4.007  16.916  0.00  0.00    +0.000 OA
BRANCH  12  15
ATOM     14  C   UNL     1       7.130   4.888  14.416  0.00  0.00    +0.000 C 
ATOM     15  O   UNL     1       7.345   5.693  15.576  0.00  0.00    +0.000 OA
ENDBRANCH  12  15
ENDBRANCH   1  12
BRANCH   1  16
ATOM     16  C   UNL     1       6.785   7.267  17.608  0.00  0.00    +0.000 C 
ATOM     17  O   UNL     1       5.989   7.922  16.942  0.00  0.00    +0.000 OA
BRANCH  16  18
ATOM     18  C   UNL     1       7.966   7.997  18.241  0.00  0.00    +0.000 C 
ATOM     19  O   UNL     1       8.685   7.352  19.000  0.00  0.00    +0.000 OA
ATOM     20  N   UNL     1       8.100   9.323  17.872  0.00  0.00    +0.000 N 
ATOM     21  H   UNL     1       7.496   9.641  17.121  0.00  0.00    +0.000 HD
BRANCH  20  22
ATOM     22  C   UNL     1       9.021  10.254  18.426  0.00  0.00    +0.000 A 
ATOM     23  C   UNL     1      10.097  10.769  17.694  0.00  0.00    +0.000 A 
ATOM     24  C   UNL     1      10.990  11.671  18.272  0.00  0.00    +0.000 A 
ATOM     25  C   UNL     1      10.820  12.068  19.593  0.00  0.00    +0.000 A 
ATOM     26  C   UNL     1       9.763  11.559  20.349  0.00  0.00    +0.000 A 
ATOM     27  C   UNL     1       8.867  10.647  19.767  0.00  0.00    +0.000 A 
BRANCH  26  28
ATOM     28  O   UNL     1       9.727  12.034  21.631  0.00  0.00    +0.000 OA
ATOM     29  C   UNL     1       9.592  13.436  21.811  0.00  0.00    +0.000 C 
ENDBRANCH  26  28
ENDBRANCH  20  22
ENDBRANCH  16  18
ENDBRANCH   1  16
TORSDOF 7
ENDMDL
MODEL 8
REMARK VINA RESULT:      -8.0      4.650      7.185
REMARK  Name = 
REMARK  9 active torsions:
REMARK  status: ('A' for Active; 'I' for Inactive)
REMARK    1  A    between atoms: C_1  and  O_2
REMARK    2  A    between atoms: O_2  and  C_3
REMARK    3  A    between atoms: C_3  and  C_5
REMARK    4  A    between atoms: C_5  and  C_6
REMARK    5  A    between atoms: C_5  and  C_19
REMARK    6  A    between atoms: C_6  and  C_8
REMARK    7  A    between atoms: N_10  and  C_11
REMARK    8  A    between atoms: C_15  and  O_16
REMARK    9  A    between atoms: O_16  and  C_17
REMARK                            x       y       z     vdW  Elec       q    Type
REMARK                         _______ _______ _______ _____ _____    ______ ____
ROOT
ATOM      1  C   UNL     1       3.906   2.208  19.883  0.00  0.00    +0.000 C 
ENDROOT
BRANCH   1   2
ATOM      2  C   UNL     1       4.576   3.170  18.921  0.00  0.00    +0.000 A 
ATOM      3  C   UNL     1       4.155   3.290  17.610  0.00  0.00    +0.000 A 
ATOM      4  N   UNL     1       4.779   4.086  16.710  0.00  0.00    +0.000 NA
ATOM      5  C   UNL     1       5.774   4.855  17.168  0.00  0.00    +0.000 A 
ATOM      6  C   UNL     1       6.404   5.711  16.274  0.00  0.00    +0.000 A 
ATOM      7  C   UNL     1       7.310   6.673  16.711  0.00  0.00    +0.000 A 
ATOM      8  C   UNL     1       7.612   6.755  18.061  0.00  0.00    +0.000 A 
ATOM      9  C   UNL     1       7.061   5.823  18.953  0.00  0.00    +0.000 A 
ATOM     10  C   UNL     1       6.141   4.857  18.533  0.00  0.00    +0.000 A 
ATOM     11  N   UNL     1       5.578   3.968  19.397  0.00  0.00    +0.000 NA
ENDBRANCH   1   2
BRANCH   1  12
ATOM     12  C   UNL     1       4.930   1.378  20.623  0.00  0.00    +0.000 C 
ATOM     13  O   UNL     1       5.426   1.672  21.701  0.00  0.00    +0.000 OA
BRANCH  12  15
ATOM     14  C   UNL     1       5.996  -0.740  20.561  0.00  0.00    +0.000 C 
ATOM     15  O   UNL     1       5.231   0.267  19.897  0.00  0.00    +0.000 OA
ENDBRANCH  12  15
ENDBRANCH   1  12
BRANCH   1  16
ATOM     16  C   UNL     1       2.949   2.876  20.861  0.00  0.00    +0.000 C 
ATOM     17  O   UNL     1       2.712   2.514  22.009  0.00  0.00    +0.000 OA
BRANCH  16  18
ATOM     18  C   UNL     1       2.198   4.089  20.319  0.00  0.00    +0.000 C 
ATOM     19  O   UNL     1       1.056   3.906  19.907  0.00  0.00    +0.000 OA
ATOM     20  N   UNL     1       2.900   5.280  20.363  0.00  0.00    +0.000 N 
ATOM     21  H   UNL     1       3.778   5.262  20.873  0.00  0.00    +0.000 HD
BRANCH  20  22
ATOM     22  C   UNL     1       2.486   6.514  19.792  0.00  0.00    +0.000 A 
ATOM     23  C   UNL     1       2.821   6.884  18.485  0.00  0.00    +0.000 A 
ATOM     24  C   UNL     1       2.409   8.109  17.959  0.00  0.00    +0.000 A 
ATOM     25  C   UNL     1       1.657   8.981  18.737  0.00  0.00    +0.000 A 
ATOM     26  C   UNL     1       1.321   8.642  20.048  0.00  0.00    +0.000 A 
ATOM     27  C   UNL     1       1.741   7.411  20.578  0.00  0.00    +0.000 A 
BRANCH  26  28
ATOM     28  O   UNL     1       0.586   9.600  20.691  0.00  0.00    +0.000 OA
ATOM     29  C   UNL     1      -0.202  10.472  19.894  0.00  0.00    +0.000 C 
ENDBRANCH  26  28
ENDBRANCH  20  22
ENDBRANCH  16  18
ENDBRANCH   1  16
TORSDOF 7
ENDMDL
MODEL 9
REMARK VINA RESULT:      -7.9      4.915      7.642
REMARK  Name = 
REMARK  9 active torsions:
REMARK  status: ('A' for Active; 'I' for Inactive)
REMARK    1  A    between atoms: C_1  and  O_2
REMARK    2  A    between atoms: O_2  and  C_3
REMARK    3  A    between atoms: C_3  and  C_5
REMARK    4  A    between atoms: C_5  and  C_6
REMARK    5  A    between atoms: C_5  and  C_19
REMARK    6  A    between atoms: C_6  and  C_8
REMARK    7  A    between atoms: N_10  and  C_11
REMARK    8  A    between atoms: C_15  and  O_16
REMARK    9  A    between atoms: O_16  and  C_17
REMARK                            x       y       z     vdW  Elec       q    Type
REMARK                         _______ _______ _______ _____ _____    ______ ____
ROOT
ATOM      1  C   UNL     1       4.124   4.223  17.985  0.00  0.00    +0.000 C 
ENDROOT
BRANCH   1   2
ATOM      2  C   UNL     1       5.103   4.431  16.846  0.00  0.00    +0.000 A 
ATOM      3  C   UNL     1       6.359   4.965  17.062  0.00  0.00    +0.000 A 
ATOM      4  N   UNL     1       7.226   5.230  16.056  0.00  0.00    +0.000 NA
ATOM      5  C   UNL     1       6.862   4.847  14.826  0.00  0.00    +0.000 A 
ATOM      6  C   UNL     1       7.750   5.070  13.782  0.00  0.00    +0.000 A 
ATOM      7  C   UNL     1       7.529   4.531  12.518  0.00  0.00    +0.000 A 
ATOM      8  C   UNL     1       6.383   3.787  12.291  0.00  0.00    +0.000 A 
ATOM      9  C   UNL     1       5.430   3.649  13.311  0.00  0.00    +0.000 A 
ATOM     10  C   UNL     1       5.642   4.175  14.590  0.00  0.00    +0.000 A 
ATOM     11  N   UNL     1       4.736   4.020  15.595  0.00  0.00    +0.000 NA
ENDBRANCH   1   2
BRANCH   1  12
ATOM     12  C   UNL     1       4.356   2.893  18.664  0.00  0.00    +0.000 C 
ATOM     13  O   UNL     1       5.176   2.689  19.549  0.00  0.00    +0.000 OA
BRANCH  12  15
ATOM     14  C   UNL     1       2.172   1.973  18.569  0.00  0.00    +0.000 C 
ATOM     15  O   UNL     1       3.530   1.953  18.128  0.00  0.00    +0.000 OA
ENDBRANCH  12  15
ENDBRANCH   1  12
BRANCH   1  16
ATOM     16  C   UNL     1       4.112   5.352  19.007  0.00  0.00    +0.000 C 
ATOM     17  O   UNL     1       5.056   5.714  19.703  0.00  0.00    +0.000 OA
BRANCH  16  18
ATOM     18  C   UNL     1       2.771   6.058  19.188  0.00  0.00    +0.000 C 
ATOM     19  O   UNL     1       1.779   5.512  18.714  0.00  0.00    +0.000 OA
ATOM     20  N   UNL     1       2.828   7.251  19.886  0.00  0.00    +0.000 N 
ATOM     21  H   UNL     1       3.717   7.468  20.328  0.00  0.00    +0.000 HD
BRANCH  20  22
ATOM     22  C   UNL     1       1.755   8.165  20.063  0.00  0.00    +0.000 A 
ATOM     23  C   UNL     1       1.369   9.069  19.066  0.00  0.00    +0.000 A 
ATOM     24  C   UNL     1       0.318   9.962  19.277  0.00  0.00    +0.000 A 
ATOM     25  C   UNL     1      -0.358   9.966  20.491  0.00  0.00    +0.000 A 
ATOM     26  C   UNL     1       0.015   9.085  21.507  0.00  0.00    +0.000 A 
ATOM     27  C   UNL     1       1.076   8.189  21.294  0.00  0.00    +0.000 A 
BRANCH  26  28
ATOM     28  O   UNL     1      -0.735   9.208  22.643  0.00  0.00    +0.000 OA
ATOM     29  C   UNL     1      -0.975  10.518  23.135  0.00  0.00    +0.000 C 
ENDBRANCH  26  28
ENDBRANCH  20  22
ENDBRANCH  16  18
ENDBRANCH   1  16
TORSDOF 7
ENDMDL
