MODEL 1
REMARK VINA RESULT:      -9.6      0.000      0.000
REMARK  Name = 
REMARK  13 active torsions:
REMARK  status: ('A' for Active; 'I' for Inactive)
REMARK    1  A    between atoms: C_1  and  C_2
REMARK    2  A    between atoms: C_2  and  C_3
REMARK    3  A    between atoms: C_3  and  N_4
REMARK    4  A    between atoms: N_4  and  C_5
REMARK    5  A    between atoms: C_7  and  O_8
REMARK    6  A    between atoms: O_8  and  C_9
REMARK    7  A    between atoms: C_16  and  N_17
REMARK    8  A    between atoms: N_17  and  C_18
REMARK    9  A    between atoms: C_18  and  C_19
REMARK   10  A    between atoms: C_19  and  O_20
REMARK   11  A    between atoms: C_19  and  C_21
REMARK   12  A    between atoms: C_31  and  C_32
REMARK   13  A    between atoms: C_32  and  O_34
REMARK                            x       y       z     vdW  Elec       q    Type
REMARK                         _______ _______ _______ _____ _____    ______ ____
ROOT
ATOM      1  C   UNL     1       2.071   7.002  19.356  0.00  0.00    +0.000 A 
ATOM      2  C   UNL     1       1.760   6.448  20.601  0.00  0.00    +0.000 A 
ATOM      3  C   UNL     1       1.757   5.053  20.758  0.00  0.00    +0.000 A 
ATOM      4  C   UNL     1       2.068   4.208  19.676  0.00  0.00    +0.000 A 
ATOM      5  C   UNL     1       2.280   4.790  18.421  0.00  0.00    +0.000 A 
ATOM      6  C   UNL     1       2.224   6.176  18.260  0.00  0.00    +0.000 A 
ATOM      7  C   UNL     1       2.610   3.960  17.218  0.00  0.00    +0.000 C 
ATOM      8  C   UNL     1       3.480   2.741  17.540  0.00  0.00    +0.000 C 
ATOM      9  C   UNL     1       2.922   1.944  18.743  0.00  0.00    +0.000 C 
ATOM     10  C   UNL     1       2.130   2.713  19.829  0.00  0.00    +0.000 C 
ENDROOT
BRANCH   8  11
ATOM     11  N   UNL     1       4.872   3.232  17.649  0.00  0.00    +0.000 NA
ATOM     12  H   UNL     1       5.518   2.457  17.492  0.00  0.00    +0.000 HD
BRANCH  11  13
ATOM     13  C   UNL     1       5.273   4.396  16.836  0.00  0.00    +0.000 C 
BRANCH  13  14
ATOM     14  C   UNL     1       6.715   4.410  16.214  0.00  0.00    +0.000 C 
BRANCH  14  15
ATOM     15  C   UNL     1       6.748   4.448  14.699  0.00  0.00    +0.000 A 
ATOM     16  C   UNL     1       7.646   5.310  14.049  0.00  0.00    +0.000 A 
ATOM     17  C   UNL     1       7.828   5.243  12.664  0.00  0.00    +0.000 A 
ATOM     18  C   UNL     1       7.084   4.340  11.907  0.00  0.00    +0.000 A 
ATOM     19  C   UNL     1       6.147   3.523  12.534  0.00  0.00    +0.000 A 
ATOM     20 CL   UNL     1       5.248   2.389  11.599  0.00  0.00    +0.000 Cl
ATOM     21  C   UNL     1       5.964   3.582  13.915  0.00  0.00    +0.000 A 
ENDBRANCH  14  15
BRANCH  14  22
ATOM     22  O   UNL     1       7.461   5.497  16.774  0.00  0.00    +0.000 OA
ATOM     23  H   UNL     1       7.793   5.165  17.630  0.00  0.00    +0.000 HD
ENDBRANCH  14  22
ENDBRANCH  13  14
ENDBRANCH  11  13
ENDBRANCH   8  11
BRANCH   1  24
ATOM     24  O   UNL     1       2.291   8.343  19.130  0.00  0.00    +0.000 OA
BRANCH  24  27
ATOM     25  C   UNL     1      -0.513  10.700  18.896  0.00  0.00    +0.000 A 
ATOM     26  C   UNL     1       0.580   9.878  18.566  0.00  0.00    +0.000 A 
ATOM     27  C   UNL     1       1.345   9.254  19.564  0.00  0.00    +0.000 A 
ATOM     28  C   UNL     1       1.083   9.553  20.896  0.00  0.00    +0.000 A 
ATOM     29  C   UNL     1      -0.060  10.268  21.247  0.00  0.00    +0.000 A 
ATOM     30  C   UNL     1      -0.854  10.835  20.244  0.00  0.00    +0.000 A 
BRANCH  25  31
ATOM     31  N   UNL     1      -1.147  11.399  17.878  0.00  0.00    +0.000 N 
ATOM     32  H   UNL     1      -0.550  11.674  17.099  0.00  0.00    +0.000 HD
BRANCH  31  33
ATOM     33  C   UNL     1      -2.564  11.261  17.590  0.00  0.00    +0.000 C 
BRANCH  33  35
ATOM     34  C   UNL     1      -2.977   9.816  15.535  0.00  0.00    +0.000 C 
ATOM     35  C   UNL     1      -2.879   9.862  17.055  0.00  0.00    +0.000 C 
ENDBRANCH  33  35
ENDBRANCH  31  33
ENDBRANCH  25  31
BRANCH  29  36
ATOM     36  C   UNL     1      -0.418  10.276  22.687  0.00  0.00    +0.000 C 
ATOM     37  O   UNL     1      -1.441  10.799  23.114  0.00  0.00    +0.000 OA
BRANCH  36  38
ATOM     38  O   UNL     1       0.484   9.674  23.485  0.00  0.00    +0.000 OA
ATOM     39  H   UNL     1       0.862   8.847  23.132  0.00  0.00    +0.000 HD
ENDBRANCH  36  38
ENDBRANCH  29  36
ENDBRANCH  24  27
ENDBRANCH   1  24
TORSDOF 12
ENDMDL
MODEL 2
REMARK VINA RESULT:      -9.5      3.821     10.190
REMARK  Name = 
REMARK  13 active torsions:
REMARK  status: ('A' for Active; 'I' for Inactive)
REMARK    1  A    between atoms: C_1  and  C_2
REMARK    2  A    between atoms: C_2  and  C_3
REMARK    3  A    between atoms: C_3  and  N_4
REMARK    4  A    between atoms: N_4  and  C_5
REMARK    5  A    between atoms: C_7  and  O_8
REMARK    6  A    between atoms: O_8  and  C_9
REMARK    7  A    between atoms: C_16  and  N_17
REMARK    8  A    between atoms: N_17  and  C_18
REMARK    9  A    between atoms: C_18  and  C_19
REMARK   10  A    between atoms: C_19  and  O_20
REMARK   11  A    between atoms: C_19  and  C_21
REMARK   12  A    between atoms: C_31  and  C_32
REMARK   13  A    between atoms: C_32  and  O_34
REMARK                            x       y       z     vdW  Elec       q    Type
REMARK                         _______ _______ _______ _____ _____    ______ ____
ROOT
ATOM      1  C   UNL     1       2.662   6.031  18.817  0.00  0.00    +0.000 A 
ATOM      2  C   UNL     1       2.254   5.909  20.148  0.00  0.00    +0.000 A 
ATOM      3  C   UNL     1       1.668   7.006  20.798  0.00  0.00    +0.000 A 
ATOM      4  C   UNL     1       1.483   8.226  20.122  0.00  0.00    +0.000 A 
ATOM      5  C   UNL     1       1.987   8.346  18.822  0.00  0.00    +0.000 A 
ATOM      6  C   UNL     1       2.622   7.268  18.202  0.00  0.00    +0.000 A 
ATOM      7  C   UNL     1       1.836   9.613  18.036  0.00  0.00    +0.000 C 
ATOM      8  C   UNL     1       0.515  10.341  18.304  0.00  0.00    +0.000 C 
ATOM      9  C   UNL     1       0.241  10.483  19.821  0.00  0.00    +0.000 C 
ATOM     10  C   UNL     1       0.804   9.400  20.774  0.00  0.00    +0.000 C 
ENDROOT
BRANCH   8  11
ATOM     11  N   UNL     1      -0.518   9.654  17.498  0.00  0.00    +0.000 NA
ATOM     12  H   UNL     1      -0.337   8.649  17.498  0.00  0.00    +0.000 HD
BRANCH  11  13
ATOM     13  C   UNL     1      -1.937   9.911  17.809  0.00  0.00    +0.000 C 
BRANCH  13  14
ATOM     14  C   UNL     1      -2.736  10.899  16.886  0.00  0.00    +0.000 C 
BRANCH  14  15
ATOM     15  C   UNL     1      -4.194  11.077  17.263  0.00  0.00    +0.000 A 
ATOM     16  C   UNL     1      -4.775  10.209  18.202  0.00  0.00    +0.000 A 
ATOM     17  C   UNL     1      -6.057  10.451  18.704  0.00  0.00    +0.000 A 
ATOM     18  C   UNL     1      -6.792  11.542  18.241  0.00  0.00    +0.000 A 
ATOM     19  C   UNL     1      -6.248  12.374  17.267  0.00  0.00    +0.000 A 
ATOM     20 CL   UNL     1      -7.147  13.738  16.717  0.00  0.00    +0.000 Cl
ATOM     21  C   UNL     1      -4.968  12.141  16.765  0.00  0.00    +0.000 A 
ENDBRANCH  14  15
BRANCH  14  22
ATOM     22  O   UNL     1      -2.058  12.159  16.842  0.00  0.00    +0.000 OA
ATOM     23  H   UNL     1      -2.713  12.815  17.148  0.00  0.00    +0.000 HD
ENDBRANCH  14  22
ENDBRANCH  13  14
ENDBRANCH  11  13
ENDBRANCH   8  11
BRANCH   1  24
ATOM     24  O   UNL     1       3.069   4.981  18.024  0.00  0.00    +0.000 OA
BRANCH  24  27
ATOM     25  C   UNL     1       6.158   4.173  16.214  0.00  0.00    +0.000 A 
ATOM     26  C   UNL     1       4.803   4.269  16.580  0.00  0.00    +0.000 A 
ATOM     27  C   UNL     1       4.424   4.782  17.829  0.00  0.00    +0.000 A 
ATOM     28  C   UNL     1       5.413   5.088  18.758  0.00  0.00    +0.000 A 
ATOM     29  C   UNL     1       6.753   5.112  18.378  0.00  0.00    +0.000 A 
ATOM     30  C   UNL     1       7.118   4.657  17.106  0.00  0.00    +0.000 A 
BRANCH  25  31
ATOM     31  N   UNL     1       6.480   3.533  15.025  0.00  0.00    +0.000 N 
ATOM     32  H   UNL     1       6.333   2.524  15.019  0.00  0.00    +0.000 HD
BRANCH  31  33
ATOM     33  C   UNL     1       6.446   4.200  13.735  0.00  0.00    +0.000 C 
BRANCH  33  35
ATOM     34  C   UNL     1       5.689   2.756  11.780  0.00  0.00    +0.000 C 
ATOM     35  C   UNL     1       5.266   3.704  12.895  0.00  0.00    +0.000 C 
ENDBRANCH  33  35
ENDBRANCH  31  33
ENDBRANCH  25  31
BRANCH  29  36
ATOM     36  C   UNL     1       7.699   5.740  19.333  0.00  0.00    +0.000 C 
ATOM     37  O   UNL     1       7.924   5.278  20.446  0.00  0.00    +0.000 OA
BRANCH  36  38
ATOM     38  O   UNL     1       8.277   6.867  18.879  0.00  0.00    +0.000 OA
ATOM     39  H   UNL     1       7.694   7.648  18.849  0.00  0.00    +0.000 HD
ENDBRANCH  36  38
ENDBRANCH  29  36
ENDBRANCH  24  27
ENDBRANCH   1  24
TORSDOF 12
ENDMDL
MODEL 3
REMARK VINA RESULT:      -9.4      3.785     10.182
REMARK  Name = 
REMARK  13 active torsions:
REMARK  status: ('A' for Active; 'I' for Inactive)
REMARK    1  A    between atoms: C_1  and  C_2
REMARK    2  A    between atoms: C_2  and  C_3
REMARK    3  A    between atoms: C_3  and  N_4
REMARK    4  A    between atoms: N_4  and  C_5
REMARK    5  A    between atoms: C_7  and  O_8
REMARK    6  A    between atoms: O_8  and  C_9
REMARK    7  A    between atoms: C_16  and  N_17
REMARK    8  A    between atoms: N_17  and  C_18
REMARK    9  A    between atoms: C_18  and  C_19
REMARK   10  A    between atoms: C_19  and  O_20
REMARK   11  A    between atoms: C_19  and  C_21
REMARK   12  A    between atoms: C_31  and  C_32
REMARK   13  A    between atoms: C_32  and  O_34
REMARK                            x       y       z     vdW  Elec       q    Type
REMARK                         _______ _______ _______ _____ _____    ______ ____
ROOT
ATOM      1  C   UNL     1       2.690   6.237  18.680  0.00  0.00    +0.000 A 
ATOM      2  C   UNL     1       2.271   6.022  19.997  0.00  0.00    +0.000 A 
ATOM      3  C   UNL     1       1.650   7.062  20.706  0.00  0.00    +0.000 A 
ATOM      4  C   UNL     1       1.440   8.316  20.103  0.00  0.00    +0.000 A 
ATOM      5  C   UNL     1       1.954   8.529  18.820  0.00  0.00    +0.000 A 
ATOM      6  C   UNL     1       2.623   7.507  18.142  0.00  0.00    +0.000 A 
ATOM      7  C   UNL     1       1.778   9.837  18.112  0.00  0.00    +0.000 C 
ATOM      8  C   UNL     1       0.436  10.513  18.408  0.00  0.00    +0.000 C 
ATOM      9  C   UNL     1       0.142  10.555  19.927  0.00  0.00    +0.000 C 
ATOM     10  C   UNL     1       0.723   9.430  20.818  0.00  0.00    +0.000 C 
ENDROOT
BRANCH   8  11
ATOM     11  N   UNL     1      -0.570   9.852  17.549  0.00  0.00    +0.000 NA
ATOM     12  H   UNL     1      -0.329   8.866  17.439  0.00  0.00    +0.000 HD
BRANCH  11  13
ATOM     13  C   UNL     1      -1.996   9.985  17.906  0.00  0.00    +0.000 C 
BRANCH  13  14
ATOM     14  C   UNL     1      -2.992  10.519  16.815  0.00  0.00    +0.000 C 
BRANCH  14  15
ATOM     15  C   UNL     1      -4.339  10.959  17.352  0.00  0.00    +0.000 A 
ATOM     16  C   UNL     1      -4.982  12.069  16.780  0.00  0.00    +0.000 A 
ATOM     17  C   UNL     1      -6.296  12.394  17.128  0.00  0.00    +0.000 A 
ATOM     18  C   UNL     1      -6.971  11.636  18.084  0.00  0.00    +0.000 A 
ATOM     19  C   UNL     1      -6.322  10.570  18.700  0.00  0.00    +0.000 A 
ATOM     20 CL   UNL     1      -7.169   9.618  19.861  0.00  0.00    +0.000 Cl
ATOM     21  C   UNL     1      -5.013  10.238  18.355  0.00  0.00    +0.000 A 
ENDBRANCH  14  15
BRANCH  14  22
ATOM     22  O   UNL     1      -2.363  11.570  16.074  0.00  0.00    +0.000 OA
ATOM     23  H   UNL     1      -1.432  11.569  16.367  0.00  0.00    +0.000 HD
ENDBRANCH  14  22
ENDBRANCH  13  14
ENDBRANCH  11  13
ENDBRANCH   8  11
BRANCH   1  24
ATOM     24  O   UNL     1       3.133   5.248  17.830  0.00  0.00    +0.000 OA
BRANCH  24  27
ATOM     25  C   UNL     1       6.138   5.146  15.726  0.00  0.00    +0.000 A 
ATOM     26  C   UNL     1       4.805   5.059  16.166  0.00  0.00    +0.000 A 
ATOM     27  C   UNL     1       4.480   5.188  17.525  0.00  0.00    +0.000 A 
ATOM     28  C   UNL     1       5.509   5.286  18.456  0.00  0.00    +0.000 A 
ATOM     29  C   UNL     1       6.822   5.490  18.035  0.00  0.00    +0.000 A 
ATOM     30  C   UNL     1       7.128   5.422  16.672  0.00  0.00    +0.000 A 
BRANCH  25  31
ATOM     31  N   UNL     1       6.415   4.875  14.393  0.00  0.00    +0.000 N 
ATOM     32  H   UNL     1       7.100   5.489  13.955  0.00  0.00    +0.000 HD
BRANCH  31  33
ATOM     33  C   UNL     1       6.265   3.553  13.809  0.00  0.00    +0.000 C 
BRANCH  33  35
ATOM     34  C   UNL     1       5.786   2.302  11.644  0.00  0.00    +0.000 C 
ATOM     35  C   UNL     1       6.126   3.641  12.287  0.00  0.00    +0.000 C 
ENDBRANCH  33  35
ENDBRANCH  31  33
ENDBRANCH  25  31
BRANCH  29  36
ATOM     36  C   UNL     1       7.796   5.886  19.082  0.00  0.00    +0.000 C 
ATOM     37  O   UNL     1       8.069   5.173  20.041  0.00  0.00    +0.000 OA
BRANCH  36  38
ATOM     38  O   UNL     1       8.343   7.102  18.897  0.00  0.00    +0.000 OA
ATOM     39  H   UNL     1       7.718   7.801  18.630  0.00  0.00    +0.000 HD
ENDBRANCH  36  38
ENDBRANCH  29  36
ENDBRANCH  24  27
ENDBRANCH   1  24
TORSDOF 12
ENDMDL
MODEL 4
REMARK VINA RESULT:      -9.1      3.870     10.243
REMARK  Name = 
REMARK  13 active torsions:
REMARK  status: ('A' for Active; 'I' for Inactive)
REMARK    1  A    between atoms: C_1  and  C_2
REMARK    2  A    between atoms: C_2  and  C_3
REMARK    3  A    between atoms: C_3  and  N_4
REMARK    4  A    between atoms: N_4  and  C_5
REMARK    5  A    between atoms: C_7  and  O_8
REMARK    6  A    between atoms: O_8  and  C_9
REMARK    7  A    between atoms: C_16  and  N_17
REMARK    8  A    between atoms: N_17  and  C_18
REMARK    9  A    between atoms: C_18  and  C_19
REMARK   10  A    between atoms: C_19  and  O_20
REMARK   11  A    between atoms: C_19  and  C_21
REMARK   12  A    between atoms: C_31  and  C_32
REMARK   13  A    between atoms: C_32  and  O_34
REMARK                            x       y       z     vdW  Elec       q    Type
REMARK                         _______ _______ _______ _____ _____    ______ ____
ROOT
ATOM      1  C   UNL     1       2.600   6.197  18.754  0.00  0.00    +0.000 A 
ATOM      2  C   UNL     1       2.200   6.065  20.086  0.00  0.00    +0.000 A 
ATOM      3  C   UNL     1       1.627   7.161  20.751  0.00  0.00    +0.000 A 
ATOM      4  C   UNL     1       1.447   8.389  20.087  0.00  0.00    +0.000 A 
ATOM      5  C   UNL     1       1.944   8.517  18.785  0.00  0.00    +0.000 A 
ATOM      6  C   UNL     1       2.566   7.440  18.151  0.00  0.00    +0.000 A 
ATOM      7  C   UNL     1       1.798   9.793  18.013  0.00  0.00    +0.000 C 
ATOM      8  C   UNL     1       0.485  10.529  18.296  0.00  0.00    +0.000 C 
ATOM      9  C   UNL     1       0.221  10.659  19.816  0.00  0.00    +0.000 C 
ATOM     10  C   UNL     1       0.782   9.562  20.754  0.00  0.00    +0.000 C 
ENDROOT
BRANCH   8  11
ATOM     11  N   UNL     1      -0.558   9.859  17.490  0.00  0.00    +0.000 NA
ATOM     12  H   UNL     1      -0.326   8.869  17.388  0.00  0.00    +0.000 HD
BRANCH  11  13
ATOM     13  C   UNL     1      -1.967  10.006  17.902  0.00  0.00    +0.000 C 
BRANCH  13  14
ATOM     14  C   UNL     1      -2.952  10.760  16.937  0.00  0.00    +0.000 C 
BRANCH  14  15
ATOM     15  C   UNL     1      -4.039  11.551  17.638  0.00  0.00    +0.000 A 
ATOM     16  C   UNL     1      -5.204  11.896  16.935  0.00  0.00    +0.000 A 
ATOM     17  C   UNL     1      -6.296  12.467  17.595  0.00  0.00    +0.000 A 
ATOM     18  C   UNL     1      -6.221  12.739  18.960  0.00  0.00    +0.000 A 
ATOM     19  C   UNL     1      -5.048  12.456  19.654  0.00  0.00    +0.000 A 
ATOM     20 CL   UNL     1      -4.968  12.767  21.347  0.00  0.00    +0.000 Cl
ATOM     21  C   UNL     1      -3.957  11.882  19.003  0.00  0.00    +0.000 A 
ENDBRANCH  14  15
BRANCH  14  22
ATOM     22  O   UNL     1      -2.199  11.592  16.049  0.00  0.00    +0.000 OA
ATOM     23  H   UNL     1      -1.873  12.329  16.601  0.00  0.00    +0.000 HD
ENDBRANCH  14  22
ENDBRANCH  13  14
ENDBRANCH  11  13
ENDBRANCH   8  11
BRANCH   1  24
ATOM     24  O   UNL     1       2.994   5.152  17.948  0.00  0.00    +0.000 OA
BRANCH  24  27
ATOM     25  C   UNL     1       5.826   4.313  15.771  0.00  0.00    +0.000 A 
ATOM     26  C   UNL     1       4.562   4.313  16.387  0.00  0.00    +0.000 A 
ATOM     27  C   UNL     1       4.308   5.101  17.520  0.00  0.00    +0.000 A 
ATOM     28  C   UNL     1       5.361   5.798  18.103  0.00  0.00    +0.000 A 
ATOM     29  C   UNL     1       6.585   5.904  17.447  0.00  0.00    +0.000 A 
ATOM     30  C   UNL     1       6.810   5.163  16.281  0.00  0.00    +0.000 A 
BRANCH  25  31
ATOM     31  N   UNL     1       6.061   3.413  14.740  0.00  0.00    +0.000 N 
ATOM     32  H   UNL     1       5.683   2.477  14.882  0.00  0.00    +0.000 HD
BRANCH  31  33
ATOM     33  C   UNL     1       6.262   3.827  13.362  0.00  0.00    +0.000 C 
BRANCH  33  35
ATOM     34  C   UNL     1       4.913   2.766  11.481  0.00  0.00    +0.000 C 
ATOM     35  C   UNL     1       4.941   3.813  12.589  0.00  0.00    +0.000 C 
ENDBRANCH  33  35
ENDBRANCH  31  33
ENDBRANCH  25  31
BRANCH  29  36
ATOM     36  C   UNL     1       7.537   6.907  17.984  0.00  0.00    +0.000 C 
ATOM     37  O   UNL     1       8.250   6.692  18.958  0.00  0.00    +0.000 OA
BRANCH  36  38
ATOM     38  O   UNL     1       7.541   8.079  17.321  0.00  0.00    +0.000 OA
ATOM     39  H   UNL     1       8.091   8.778  17.719  0.00  0.00    +0.000 HD
ENDBRANCH  36  38
ENDBRANCH  29  36
ENDBRANCH  24  27
ENDBRANCH   1  24
TORSDOF 12
ENDMDL
MODEL 5
REMARK VINA RESULT:      -8.9      1.104      1.628
REMARK  Name = 
REMARK  13 active torsions:
REMARK  status: ('A' for Active; 'I' for Inactive)
REMARK    1  A    between atoms: C_1  and  C_2
REMARK    2  A    between atoms: C_2  and  C_3
REMARK    3  A    between atoms: C_3  and  N_4
REMARK    4  A    between atoms: N_4  and  C_5
REMARK    5  A    between atoms: C_7  and  O_8
REMARK    6  A    between atoms: O_8  and  C_9
REMARK    7  A    between atoms: C_16  and  N_17
REMARK    8  A    between atoms: N_17  and  C_18
REMARK    9  A    between atoms: C_18  and  C_19
REMARK   10  A    between atoms: C_19  and  O_20
REMARK   11  A    between atoms: C_19  and  C_21
REMARK   12  A    between atoms: C_31  and  C_32
REMARK   13  A    between atoms: C_32  and  O_34
REMARK                            x       y       z     vdW  Elec       q    Type
REMARK                         _______ _______ _______ _____ _____    ______ ____
ROOT
ATOM      1  C   UNL     1       2.113   6.921  19.276  0.00  0.00    +0.000 A 
ATOM      2  C   UNL     1       1.844   6.405  20.546  0.00  0.00    +0.000 A 
ATOM      3  C   UNL     1       1.843   5.015  20.745  0.00  0.00    +0.000 A 
ATOM      4  C   UNL     1       2.116   4.138  19.679  0.00  0.00    +0.000 A 
ATOM      5  C   UNL     1       2.288   4.681  18.401  0.00  0.00    +0.000 A 
ATOM      6  C   UNL     1       2.229   6.062  18.200  0.00  0.00    +0.000 A 
ATOM      7  C   UNL     1       2.575   3.815  17.213  0.00  0.00    +0.000 C 
ATOM      8  C   UNL     1       3.454   2.604  17.542  0.00  0.00    +0.000 C 
ATOM      9  C   UNL     1       2.935   1.844  18.787  0.00  0.00    +0.000 C 
ATOM     10  C   UNL     1       2.181   2.647  19.875  0.00  0.00    +0.000 C 
ENDROOT
BRANCH   8  11
ATOM     11  N   UNL     1       4.849   3.093  17.590  0.00  0.00    +0.000 NA
ATOM     12  H   UNL     1       5.488   2.317  17.410  0.00  0.00    +0.000 HD
BRANCH  11  13
ATOM     13  C   UNL     1       5.217   4.252  16.753  0.00  0.00    +0.000 C 
BRANCH  13  14
ATOM     14  C   UNL     1       6.663   4.302  16.142  0.00  0.00    +0.000 C 
BRANCH  14  15
ATOM     15  C   UNL     1       6.707   4.373  14.629  0.00  0.00    +0.000 A 
ATOM     16  C   UNL     1       7.611   5.246  14.004  0.00  0.00    +0.000 A 
ATOM     17  C   UNL     1       7.803   5.210  12.619  0.00  0.00    +0.000 A 
ATOM     18  C   UNL     1       7.060   4.327  11.837  0.00  0.00    +0.000 A 
ATOM     19  C   UNL     1       6.117   3.499  12.440  0.00  0.00    +0.000 A 
ATOM     20 CL   UNL     1       5.221   2.389  11.474  0.00  0.00    +0.000 Cl
ATOM     21  C   UNL     1       5.925   3.527  13.821  0.00  0.00    +0.000 A 
ENDBRANCH  14  15
BRANCH  14  22
ATOM     22  O   UNL     1       7.388   5.387  16.731  0.00  0.00    +0.000 OA
ATOM     23  H   UNL     1       6.913   5.593  17.559  0.00  0.00    +0.000 HD
ENDBRANCH  14  22
ENDBRANCH  13  14
ENDBRANCH  11  13
ENDBRANCH   8  11
BRANCH   1  24
ATOM     24  O   UNL     1       2.328   8.254  19.003  0.00  0.00    +0.000 OA
BRANCH  24  27
ATOM     25  C   UNL     1      -0.228  10.886  19.075  0.00  0.00    +0.000 A 
ATOM     26  C   UNL     1       0.783  10.009  18.642  0.00  0.00    +0.000 A 
ATOM     27  C   UNL     1       1.471   9.191  19.550  0.00  0.00    +0.000 A 
ATOM     28  C   UNL     1       1.225   9.342  20.911  0.00  0.00    +0.000 A 
ATOM     29  C   UNL     1       0.153  10.116  21.351  0.00  0.00    +0.000 A 
ATOM     30  C   UNL     1      -0.570  10.881  20.430  0.00  0.00    +0.000 A 
BRANCH  25  31
ATOM     31  N   UNL     1      -0.779  11.769  18.156  0.00  0.00    +0.000 N 
ATOM     32  H   UNL     1      -1.522  11.386  17.574  0.00  0.00    +0.000 HD
BRANCH  31  33
ATOM     33  C   UNL     1      -0.786  13.208  18.351  0.00  0.00    +0.000 C 
BRANCH  33  35
ATOM     34  C   UNL     1       0.676  15.214  18.918  0.00  0.00    +0.000 C 
ATOM     35  C   UNL     1       0.638  13.745  18.516  0.00  0.00    +0.000 C 
ENDBRANCH  33  35
ENDBRANCH  31  33
ENDBRANCH  25  31
BRANCH  29  36
ATOM     36  C   UNL     1      -0.219   9.975  22.780  0.00  0.00    +0.000 C 
ATOM     37  O   UNL     1      -1.336  10.247  23.206  0.00  0.00    +0.000 OA
BRANCH  36  38
ATOM     38  O   UNL     1       0.778   9.538  23.572  0.00  0.00    +0.000 OA
ATOM     39  H   UNL     1       1.497   9.068  23.110  0.00  0.00    +0.000 HD
ENDBRANCH  36  38
ENDBRANCH  29  36
ENDBRANCH  24  27
ENDBRANCH   1  24
TORSDOF 12
ENDMDL
MODEL 6
REMARK VINA RESULT:      -8.8      3.785     10.142
REMARK  Name = 
REMARK  13 active torsions:
REMARK  status: ('A' for Active; 'I' for Inactive)
REMARK    1  A    between atoms: C_1  and  C_2
REMARK    2  A    between atoms: C_2  and  C_3
REMARK    3  A    between atoms: C_3  and  N_4
REMARK    4  A    between atoms: N_4  and  C_5
REMARK    5  A    between atoms: C_7  and  O_8
REMARK    6  A    between atoms: O_8  and  C_9
REMARK    7  A    between atoms: C_16  and  N_17
REMARK    8  A    between atoms: N_17  and  C_18
REMARK    9  A    between atoms: C_18  and  C_19
REMARK   10  A    between atoms: C_19  and  O_20
REMARK   11  A    between atoms: C_19  and  C_21
REMARK   12  A    between atoms: C_31  and  C_32
REMARK   13  A    between atoms: C_32  and  O_34
REMARK                            x       y       z     vdW  Elec       q    Type
REMARK                         _______ _______ _______ _____ _____    ______ ____
ROOT
ATOM      1  C   UNL     1       2.642   6.405  18.681  0.00  0.00    +0.000 A 
ATOM      2  C   UNL     1       2.463   6.176  20.048  0.00  0.00    +0.000 A 
ATOM      3  C   UNL     1       1.836   7.151  20.839  0.00  0.00    +0.000 A 
ATOM      4  C   UNL     1       1.381   8.355  20.268  0.00  0.00    +0.000 A 
ATOM      5  C   UNL     1       1.660   8.594  18.918  0.00  0.00    +0.000 A 
ATOM      6  C   UNL     1       2.336   7.643  18.150  0.00  0.00    +0.000 A 
ATOM      7  C   UNL     1       1.216   9.852  18.237  0.00  0.00    +0.000 C 
ATOM      8  C   UNL     1      -0.137  10.369  18.736  0.00  0.00    +0.000 C 
ATOM      9  C   UNL     1      -0.194  10.415  20.282  0.00  0.00    +0.000 C 
ATOM     10  C   UNL     1       0.653   9.392  21.078  0.00  0.00    +0.000 C 
ENDROOT
BRANCH   8  11
ATOM     11  N   UNL     1      -1.175   9.569  18.051  0.00  0.00    +0.000 NA
ATOM     12  H   UNL     1      -1.805   9.163  18.745  0.00  0.00    +0.000 HD
BRANCH  11  13
ATOM     13  C   UNL     1      -1.957  10.205  16.973  0.00  0.00    +0.000 C 
BRANCH  13  14
ATOM     14  C   UNL     1      -2.492  11.664  17.201  0.00  0.00    +0.000 C 
BRANCH  14  15
ATOM     15  C   UNL     1      -3.426  11.816  18.385  0.00  0.00    +0.000 A 
ATOM     16  C   UNL     1      -2.956  12.417  19.563  0.00  0.00    +0.000 A 
ATOM     17  C   UNL     1      -3.832  12.733  20.606  0.00  0.00    +0.000 A 
ATOM     18  C   UNL     1      -5.185  12.412  20.500  0.00  0.00    +0.000 A 
ATOM     19  C   UNL     1      -5.650  11.761  19.361  0.00  0.00    +0.000 A 
ATOM     20 CL   UNL     1      -7.327  11.392  19.221  0.00  0.00    +0.000 Cl
ATOM     21  C   UNL     1      -4.783  11.448  18.315  0.00  0.00    +0.000 A 
ENDBRANCH  14  15
BRANCH  14  22
ATOM     22  O   UNL     1      -1.384  12.565  17.299  0.00  0.00    +0.000 OA
ATOM     23  H   UNL     1      -1.765  13.455  17.172  0.00  0.00    +0.000 HD
ENDBRANCH  14  22
ENDBRANCH  13  14
ENDBRANCH  11  13
ENDBRANCH   8  11
BRANCH   1  24
ATOM     24  O   UNL     1       3.066   5.455  17.778  0.00  0.00    +0.000 OA
BRANCH  24  27
ATOM     25  C   UNL     1       6.148   5.198  15.803  0.00  0.00    +0.000 A 
ATOM     26  C   UNL     1       4.795   5.175  16.187  0.00  0.00    +0.000 A 
ATOM     27  C   UNL     1       4.421   5.331  17.530  0.00  0.00    +0.000 A 
ATOM     28  C   UNL     1       5.414   5.390  18.503  0.00  0.00    +0.000 A 
ATOM     29  C   UNL     1       6.751   5.530  18.136  0.00  0.00    +0.000 A 
ATOM     30  C   UNL     1       7.110   5.437  16.787  0.00  0.00    +0.000 A 
BRANCH  25  31
ATOM     31  N   UNL     1       6.467   4.902  14.484  0.00  0.00    +0.000 N 
ATOM     32  H   UNL     1       7.187   5.491  14.067  0.00  0.00    +0.000 HD
BRANCH  31  33
ATOM     33  C   UNL     1       6.300   3.579  13.909  0.00  0.00    +0.000 C 
BRANCH  33  35
ATOM     34  C   UNL     1       4.838   3.370  11.835  0.00  0.00    +0.000 C 
ATOM     35  C   UNL     1       6.232   3.652  12.382  0.00  0.00    +0.000 C 
ENDBRANCH  33  35
ENDBRANCH  31  33
ENDBRANCH  25  31
BRANCH  29  36
ATOM     36  C   UNL     1       7.698   5.891  19.220  0.00  0.00    +0.000 C 
ATOM     37  O   UNL     1       7.780   5.260  20.268  0.00  0.00    +0.000 OA
BRANCH  36  38
ATOM     38  O   UNL     1       8.447   6.978  18.960  0.00  0.00    +0.000 OA
ATOM     39  H   UNL     1       7.994   7.833  19.083  0.00  0.00    +0.000 HD
ENDBRANCH  36  38
ENDBRANCH  29  36
ENDBRANCH  24  27
ENDBRANCH   1  24
TORSDOF 12
ENDMDL
MODEL 7
REMARK VINA RESULT:      -8.8      2.583      3.343
REMARK  Name = 
REMARK  13 active torsions:
REMARK  status: ('A' for Active; 'I' for Inactive)
REMARK    1  A    between atoms: C_1  and  C_2
REMARK    2  A    between atoms: C_2  and  C_3
REMARK    3  A    between atoms: C_3  and  N_4
REMARK    4  A    between atoms: N_4  and  C_5
REMARK    5  A    between atoms: C_7  and  O_8
REMARK    6  A    between atoms: O_8  and  C_9
REMARK    7  A    between atoms: C_16  and  N_17
REMARK    8  A    between atoms: N_17  and  C_18
REMARK    9  A    between atoms: C_18  and  C_19
REMARK   10  A    between atoms: C_19  and  O_20
REMARK   11  A    between atoms: C_19  and  C_21
REMARK   12  A    between atoms: C_31  and  C_32
REMARK   13  A    between atoms: C_32  and  O_34
REMARK                            x       y       z     vdW  Elec       q    Type
REMARK                         _______ _______ _______ _____ _____    ______ ____
ROOT
ATOM      1  C   UNL     1       2.041   6.759  19.629  0.00  0.00    +0.000 A 
ATOM      2  C   UNL     1       1.672   6.112  20.812  0.00  0.00    +0.000 A 
ATOM      3  C   UNL     1       1.530   4.715  20.823  0.00  0.00    +0.000 A 
ATOM      4  C   UNL     1       1.761   3.961  19.658  0.00  0.00    +0.000 A 
ATOM      5  C   UNL     1       2.037   4.646  18.469  0.00  0.00    +0.000 A 
ATOM      6  C   UNL     1       2.119   6.040  18.453  0.00  0.00    +0.000 A 
ATOM      7  C   UNL     1       2.289   3.917  17.185  0.00  0.00    +0.000 C 
ATOM      8  C   UNL     1       3.034   2.592  17.374  0.00  0.00    +0.000 C 
ATOM      9  C   UNL     1       2.394   1.733  18.491  0.00  0.00    +0.000 C 
ATOM     10  C   UNL     1       1.676   2.459  19.655  0.00  0.00    +0.000 C 
ENDROOT
BRANCH   8  11
ATOM     11  N   UNL     1       4.466   2.929  17.526  0.00  0.00    +0.000 NA
ATOM     12  H   UNL     1       4.986   2.091  17.790  0.00  0.00    +0.000 HD
BRANCH  11  13
ATOM     13  C   UNL     1       5.149   3.615  16.413  0.00  0.00    +0.000 C 
BRANCH  13  14
ATOM     14  C   UNL     1       5.153   5.186  16.395  0.00  0.00    +0.000 C 
BRANCH  14  15
ATOM     15  C   UNL     1       6.164   5.826  17.326  0.00  0.00    +0.000 A 
ATOM     16  C   UNL     1       6.781   5.045  18.317  0.00  0.00    +0.000 A 
ATOM     17  C   UNL     1       7.841   5.554  19.073  0.00  0.00    +0.000 A 
ATOM     18  C   UNL     1       8.270   6.866  18.876  0.00  0.00    +0.000 A 
ATOM     19  C   UNL     1       7.625   7.667  17.939  0.00  0.00    +0.000 A 
ATOM     20 CL   UNL     1       8.176   9.279  17.678  0.00  0.00    +0.000 Cl
ATOM     21  C   UNL     1       6.570   7.164  17.178  0.00  0.00    +0.000 A 
ENDBRANCH  14  15
BRANCH  14  22
ATOM     22  O   UNL     1       5.329   5.644  15.050  0.00  0.00    +0.000 OA
ATOM     23  H   UNL     1       4.830   5.012  14.497  0.00  0.00    +0.000 HD
ENDBRANCH  14  22
ENDBRANCH  13  14
ENDBRANCH  11  13
ENDBRANCH   8  11
BRANCH   1  24
ATOM     24  O   UNL     1       2.393   8.088  19.543  0.00  0.00    +0.000 OA
BRANCH  24  27
ATOM     25  C   UNL     1      -0.259  10.603  19.217  0.00  0.00    +0.000 A 
ATOM     26  C   UNL     1       0.800   9.725  18.925  0.00  0.00    +0.000 A 
ATOM     27  C   UNL     1       1.480   9.045  19.947  0.00  0.00    +0.000 A 
ATOM     28  C   UNL     1       1.173   9.340  21.271  0.00  0.00    +0.000 A 
ATOM     29  C   UNL     1       0.056  10.114  21.579  0.00  0.00    +0.000 A 
ATOM     30  C   UNL     1      -0.656  10.739  20.549  0.00  0.00    +0.000 A 
BRANCH  25  31
ATOM     31  N   UNL     1      -0.803  11.352  18.182  0.00  0.00    +0.000 N 
ATOM     32  H   UNL     1      -1.586  10.918  17.694  0.00  0.00    +0.000 HD
BRANCH  31  33
ATOM     33  C   UNL     1      -0.737  12.802  18.138  0.00  0.00    +0.000 C 
BRANCH  33  35
ATOM     34  C   UNL     1       1.743  13.378  18.167  0.00  0.00    +0.000 C 
ATOM     35  C   UNL     1       0.444  13.321  18.962  0.00  0.00    +0.000 C 
ENDBRANCH  33  35
ENDBRANCH  31  33
ENDBRANCH  25  31
BRANCH  29  36
ATOM     36  C   UNL     1      -0.369  10.122  23.000  0.00  0.00    +0.000 C 
ATOM     37  O   UNL     1       0.269   9.568  23.889  0.00  0.00    +0.000 OA
BRANCH  36  38
ATOM     38  O   UNL     1      -1.524  10.775  23.229  0.00  0.00    +0.000 OA
ATOM     39  H   UNL     1      -2.010  11.049  22.428  0.00  0.00    +0.000 HD
ENDBRANCH  36  38
ENDBRANCH  29  36
ENDBRANCH  24  27
ENDBRANCH   1  24
TORSDOF 12
ENDMDL
MODEL 8
REMARK VINA RESULT:      -8.7      2.214      2.784
REMARK  Name = 
REMARK  13 active torsions:
REMARK  status: ('A' for Active; 'I' for Inactive)
REMARK    1  A    between atoms: C_1  and  C_2
REMARK    2  A    between atoms: C_2  and  C_3
REMARK    3  A    between atoms: C_3  and  N_4
REMARK    4  A    between atoms: N_4  and  C_5
REMARK    5  A    between atoms: C_7  and  O_8
REMARK    6  A    between atoms: O_8  and  C_9
REMARK    7  A    between atoms: C_16  and  N_17
REMARK    8  A    between atoms: N_17  and  C_18
REMARK    9  A    between atoms: C_18  and  C_19
REMARK   10  A    between atoms: C_19  and  O_20
REMARK   11  A    between atoms: C_19  and  C_21
REMARK   12  A    between atoms: C_31  and  C_32
REMARK   13  A    between atoms: C_32  and  O_34
REMARK                            x       y       z     vdW  Elec       q    Type
REMARK                         _______ _______ _______ _____ _____    ______ ____
ROOT
ATOM      1  C   UNL     1       2.134   7.045  18.698  0.00  0.00    +0.000 A 
ATOM      2  C   UNL     1       1.953   7.137  20.081  0.00  0.00    +0.000 A 
ATOM      3  C   UNL     1       1.777   5.967  20.837  0.00  0.00    +0.000 A 
ATOM      4  C   UNL     1       1.788   4.704  20.217  0.00  0.00    +0.000 A 
ATOM      5  C   UNL     1       1.877   4.651  18.821  0.00  0.00    +0.000 A 
ATOM      6  C   UNL     1       1.992   5.823  18.070  0.00  0.00    +0.000 A 
ATOM      7  C   UNL     1       1.888   3.347  18.085  0.00  0.00    +0.000 C 
ATOM      8  C   UNL     1       2.618   2.230  18.837  0.00  0.00    +0.000 C 
ATOM      9  C   UNL     1       2.153   2.137  20.311  0.00  0.00    +0.000 C 
ATOM     10  C   UNL     1       1.663   3.430  21.008  0.00  0.00    +0.000 C 
ENDROOT
BRANCH   8  11
ATOM     11  N   UNL     1       4.064   2.436  18.603  0.00  0.00    +0.000 NA
ATOM     12  H   UNL     1       4.223   2.637  17.614  0.00  0.00    +0.000 HD
BRANCH  11  13
ATOM     13  C   UNL     1       4.778   3.421  19.438  0.00  0.00    +0.000 C 
BRANCH  13  14
ATOM     14  C   UNL     1       5.965   4.224  18.795  0.00  0.00    +0.000 C 
BRANCH  14  15
ATOM     15  C   UNL     1       5.683   4.762  17.406  0.00  0.00    +0.000 A 
ATOM     16  C   UNL     1       5.263   6.094  17.253  0.00  0.00    +0.000 A 
ATOM     17  C   UNL     1       5.166   6.673  15.984  0.00  0.00    +0.000 A 
ATOM     18  C   UNL     1       5.447   5.914  14.849  0.00  0.00    +0.000 A 
ATOM     19  C   UNL     1       5.805   4.576  14.987  0.00  0.00    +0.000 A 
ATOM     20 CL   UNL     1       6.180   3.649  13.583  0.00  0.00    +0.000 Cl
ATOM     21  C   UNL     1       5.909   3.994  16.249  0.00  0.00    +0.000 A 
ENDBRANCH  14  15
BRANCH  14  22
ATOM     22  O   UNL     1       6.363   5.273  19.684  0.00  0.00    +0.000 OA
ATOM     23  H   UNL     1       6.770   4.821  20.447  0.00  0.00    +0.000 HD
ENDBRANCH  14  22
ENDBRANCH  13  14
ENDBRANCH  11  13
ENDBRANCH   8  11
BRANCH   1  24
ATOM     24  O   UNL     1       2.502   8.096  17.887  0.00  0.00    +0.000 OA
BRANCH  24  27
ATOM     25  C   UNL     1      -0.404  10.318  18.176  0.00  0.00    +0.000 A 
ATOM     26  C   UNL     1       0.407   9.196  17.929  0.00  0.00    +0.000 A 
ATOM     27  C   UNL     1       1.806   9.287  17.986  0.00  0.00    +0.000 A 
ATOM     28  C   UNL     1       2.392  10.535  18.173  0.00  0.00    +0.000 A 
ATOM     29  C   UNL     1       1.612  11.632  18.533  0.00  0.00    +0.000 A 
ATOM     30  C   UNL     1       0.217  11.516  18.536  0.00  0.00    +0.000 A 
BRANCH  25  31
ATOM     31  N   UNL     1      -1.773  10.203  17.972  0.00  0.00    +0.000 N 
ATOM     32  H   UNL     1      -2.355  10.768  18.590  0.00  0.00    +0.000 HD
BRANCH  31  33
ATOM     33  C   UNL     1      -2.352   9.839  16.691  0.00  0.00    +0.000 C 
BRANCH  33  35
ATOM     34  C   UNL     1      -4.172  11.493  17.352  0.00  0.00    +0.000 C 
ATOM     35  C   UNL     1      -3.342  10.906  16.216  0.00  0.00    +0.000 C 
ENDBRANCH  33  35
ENDBRANCH  31  33
ENDBRANCH  25  31
BRANCH  29  36
ATOM     36  C   UNL     1       2.341  12.833  19.007  0.00  0.00    +0.000 C 
ATOM     37  O   UNL     1       2.218  13.281  20.142  0.00  0.00    +0.000 OA
BRANCH  36  38
ATOM     38  O   UNL     1       3.139  13.398  18.081  0.00  0.00    +0.000 OA
ATOM     39  H   UNL     1       3.955  13.802  18.429  0.00  0.00    +0.000 HD
ENDBRANCH  36  38
ENDBRANCH  29  36
ENDBRANCH  24  27
ENDBRANCH   1  24
TORSDOF 12
ENDMDL
MODEL 9
REMARK VINA RESULT:      -8.7      1.548      1.762
REMARK  Name = 
REMARK  13 active torsions:
REMARK  status: ('A' for Active; 'I' for Inactive)
REMARK    1  A    between atoms: C_1  and  C_2
REMARK    2  A    between atoms: C_2  and  C_3
REMARK    3  A    between atoms: C_3  and  N_4
REMARK    4  A    between atoms: N_4  and  C_5
REMARK    5  A    between atoms: C_7  and  O_8
REMARK    6  A    between atoms: O_8  and  C_9
REMARK    7  A    between atoms: C_16  and  N_17
REMARK    8  A    between atoms: N_17  and  C_18
REMARK    9  A    between atoms: C_18  and  C_19
REMARK   10  A    between atoms: C_19  and  O_20
REMARK   11  A    between atoms: C_19  and  C_21
REMARK   12  A    between atoms: C_31  and  C_32
REMARK   13  A    between atoms: C_32  and  O_34
REMARK                            x       y       z     vdW  Elec       q    Type
REMARK                         _______ _______ _______ _____ _____    ______ ____
ROOT
ATOM      1  C   UNL     1       2.122   7.619  18.565  0.00  0.00    +0.000 A 
ATOM      2  C   UNL     1       2.033   7.548  19.958  0.00  0.00    +0.000 A 
ATOM      3  C   UNL     1       2.096   6.299  20.595  0.00  0.00    +0.000 A 
ATOM      4  C   UNL     1       2.254   5.119  19.846  0.00  0.00    +0.000 A 
ATOM      5  C   UNL     1       2.245   5.213  18.450  0.00  0.00    +0.000 A 
ATOM      6  C   UNL     1       2.122   6.455  17.821  0.00  0.00    +0.000 A 
ATOM      7  C   UNL     1       2.401   4.003  17.581  0.00  0.00    +0.000 C 
ATOM      8  C   UNL     1       3.348   2.952  18.167  0.00  0.00    +0.000 C 
ATOM      9  C   UNL     1       3.014   2.647  19.648  0.00  0.00    +0.000 C 
ATOM     10  C   UNL     1       2.385   3.772  20.505  0.00  0.00    +0.000 C 
ENDROOT
BRANCH   8  11
ATOM     11  N   UNL     1       4.724   3.408  17.871  0.00  0.00    +0.000 NA
ATOM     12  H   UNL     1       5.354   2.605  17.864  0.00  0.00    +0.000 HD
BRANCH  11  13
ATOM     13  C   UNL     1       4.947   4.235  16.670  0.00  0.00    +0.000 C 
BRANCH  13  14
ATOM     14  C   UNL     1       6.421   4.434  16.164  0.00  0.00    +0.000 C 
BRANCH  14  15
ATOM     15  C   UNL     1       6.575   4.444  14.656  0.00  0.00    +0.000 A 
ATOM     16  C   UNL     1       7.566   5.246  14.068  0.00  0.00    +0.000 A 
ATOM     17  C   UNL     1       7.853   5.145  12.704  0.00  0.00    +0.000 A 
ATOM     18  C   UNL     1       7.123   4.270  11.901  0.00  0.00    +0.000 A 
ATOM     19  C   UNL     1       6.098   3.515  12.463  0.00  0.00    +0.000 A 
ATOM     20 CL   UNL     1       5.215   2.413  11.474  0.00  0.00    +0.000 Cl
ATOM     21  C   UNL     1       5.809   3.607  13.824  0.00  0.00    +0.000 A 
ENDBRANCH  14  15
BRANCH  14  22
ATOM     22  O   UNL     1       6.963   5.625  16.746  0.00  0.00    +0.000 OA
ATOM     23  H   UNL     1       7.021   5.439  17.703  0.00  0.00    +0.000 HD
ENDBRANCH  14  22
ENDBRANCH  13  14
ENDBRANCH  11  13
ENDBRANCH   8  11
BRANCH   1  24
ATOM     24  O   UNL     1       2.263   8.787  17.849  0.00  0.00    +0.000 OA
BRANCH  24  27
ATOM     25  C   UNL     1      -0.875  10.616  18.375  0.00  0.00    +0.000 A 
ATOM     26  C   UNL     1       0.066   9.658  17.953  0.00  0.00    +0.000 A 
ATOM     27  C   UNL     1       1.440   9.856  18.152  0.00  0.00    +0.000 A 
ATOM     28  C   UNL     1       1.877  11.072  18.668  0.00  0.00    +0.000 A 
ATOM     29  C   UNL     1       0.963  11.981  19.197  0.00  0.00    +0.000 A 
ATOM     30  C   UNL     1      -0.408  11.746  19.050  0.00  0.00    +0.000 A 
BRANCH  25  31
ATOM     31  N   UNL     1      -2.207  10.432  18.030  0.00  0.00    +0.000 N 
ATOM     32  H   UNL     1      -2.835  10.230  18.806  0.00  0.00    +0.000 HD
BRANCH  31  33
ATOM     33  C   UNL     1      -2.807  11.035  16.852  0.00  0.00    +0.000 C 
BRANCH  33  35
ATOM     34  C   UNL     1      -2.955  10.118  14.481  0.00  0.00    +0.000 C 
ATOM     35  C   UNL     1      -3.397   9.963  15.931  0.00  0.00    +0.000 C 
ENDBRANCH  33  35
ENDBRANCH  31  33
ENDBRANCH  25  31
BRANCH  29  36
ATOM     36  C   UNL     1       1.529  13.097  19.994  0.00  0.00    +0.000 C 
ATOM     37  O   UNL     1       1.548  14.256  19.595  0.00  0.00    +0.000 OA
BRANCH  36  38
ATOM     38  O   UNL     1       2.033  12.726  21.186  0.00  0.00    +0.000 OA
ATOM     39  H   UNL     1       2.342  11.802  21.235  0.00  0.00    +0.000 HD
ENDBRANCH  36  38
ENDBRANCH  29  36
ENDBRANCH  24  27
ENDBRANCH   1  24
TORSDOF 12
ENDMDL
