MODEL 1
REMARK VINA RESULT:      -5.6      0.000      0.000
REMARK  Name = 
REMARK  9 active torsions:
REMARK  status: ('A' for Active; 'I' for Inactive)
REMARK    1  A    between atoms: C_1  and  C_2
REMARK    2  A    between atoms: C_2  and  C_3
REMARK    3  A    between atoms: C_3  and  S_18
REMARK    4  A    between atoms: C_4  and  C_5
REMARK    5  A    between atoms: C_10  and  C_11
REMARK    6  A    between atoms: N_14  and  C_15
REMARK    7  A    between atoms: C_15  and  C_16
REMARK    8  A    between atoms: C_16  and  O_17
REMARK    9  A    between atoms: S_18  and  C_19
REMARK                            x       y       z     vdW  Elec       q    Type
REMARK                         _______ _______ _______ _____ _____    ______ ____
ROOT
ATOM      1  C   UNL     1       4.333   5.037  18.380  0.00  0.00    +0.000 A 
ATOM      2  S   UNL     1       5.892   5.750  18.275  0.00  0.00    +0.000 S 
ATOM      3  C   UNL     1       6.112   5.185  16.673  0.00  0.00    +0.000 A 
ATOM      4  C   UNL     1       7.171   5.470  15.797  0.00  0.00    +0.000 A 
ATOM      5  C   UNL     1       7.146   4.891  14.526  0.00  0.00    +0.000 A 
ATOM      6  C   UNL     1       6.119   4.030  14.147  0.00  0.00    +0.000 A 
ATOM      7  C   UNL     1       6.144   3.397  12.783  0.00  0.00    +0.000 C 
ATOM      8  C   UNL     1       5.067   3.747  15.041  0.00  0.00    +0.000 A 
ATOM      9  C   UNL     1       5.054   4.355  16.317  0.00  0.00    +0.000 A 
ATOM     10  N   UNL     1       4.095   4.264  17.328  0.00  0.00    +0.000 N 
ENDROOT
BRANCH   1  12
ATOM     11  C   UNL     1       2.482   6.119  19.562  0.00  0.00    +0.000 C 
ATOM     12  C   UNL     1       3.519   5.248  19.525  0.00  0.00    +0.000 C 
BRANCH  11  14
ATOM     13  C   UNL     1       1.266   7.873  21.053  0.00  0.00    +0.000 C 
ATOM     14  C   UNL     1       1.715   6.431  20.844  0.00  0.00    +0.000 C 
ENDBRANCH  11  14
BRANCH  11  15
ATOM     15  S   UNL     1       1.917   6.892  18.077  0.00  0.00    +0.000 S 
ATOM     16  C   UNL     1       2.938   8.383  17.932  0.00  0.00    +0.000 C 
ENDBRANCH  11  15
ENDBRANCH   1  12
BRANCH  10  17
ATOM     17  C   UNL     1       2.894   3.420  17.207  0.00  0.00    +0.000 C 
BRANCH  17  18
ATOM     18  C   UNL     1       3.069   2.057  17.876  0.00  0.00    +0.000 C 
BRANCH  18  19
ATOM     19  O   UNL     1       1.821   1.616  18.390  0.00  0.00    +0.000 OA
ATOM     20  H   UNL     1       1.332   1.174  17.668  0.00  0.00    +0.000 HD
ENDBRANCH  18  19
ENDBRANCH  17  18
ENDBRANCH  10  17
TORSDOF 6
ENDMDL
MODEL 2
REMARK VINA RESULT:      -5.6      1.853      6.525
REMARK  Name = 
REMARK  9 active torsions:
REMARK  status: ('A' for Active; 'I' for Inactive)
REMARK    1  A    between atoms: C_1  and  C_2
REMARK    2  A    between atoms: C_2  and  C_3
REMARK    3  A    between atoms: C_3  and  S_18
REMARK    4  A    between atoms: C_4  and  C_5
REMARK    5  A    between atoms: C_10  and  C_11
REMARK    6  A    between atoms: N_14  and  C_15
REMARK    7  A    between atoms: C_15  and  C_16
REMARK    8  A    between atoms: C_16  and  O_17
REMARK    9  A    between atoms: S_18  and  C_19
REMARK                            x       y       z     vdW  Elec       q    Type
REMARK                         _______ _______ _______ _____ _____    ______ ____
ROOT
ATOM      1  C   UNL     1       2.792   6.143  18.311  0.00  0.00    +0.000 A 
ATOM      2  S   UNL     1       2.470   7.649  17.550  0.00  0.00    +0.000 S 
ATOM      3  C   UNL     1       1.851   8.321  18.999  0.00  0.00    +0.000 A 
ATOM      4  C   UNL     1       1.455   9.646  19.234  0.00  0.00    +0.000 A 
ATOM      5  C   UNL     1       0.971   9.974  20.502  0.00  0.00    +0.000 A 
ATOM      6  C   UNL     1       0.854   9.008  21.499  0.00  0.00    +0.000 A 
ATOM      7  C   UNL     1       0.296   9.390  22.843  0.00  0.00    +0.000 C 
ATOM      8  C   UNL     1       1.249   7.679  21.246  0.00  0.00    +0.000 A 
ATOM      9  C   UNL     1       1.778   7.338  19.980  0.00  0.00    +0.000 A 
ATOM     10  N   UNL     1       2.277   6.112  19.534  0.00  0.00    +0.000 N 
ENDROOT
BRANCH   1  12
ATOM     11  C   UNL     1       4.754   5.167  17.221  0.00  0.00    +0.000 C 
ATOM     12  C   UNL     1       3.456   5.105  17.604  0.00  0.00    +0.000 C 
BRANCH  11  14
ATOM     13  C   UNL     1       5.610   4.447  14.869  0.00  0.00    +0.000 C 
ATOM     14  C   UNL     1       5.403   4.102  16.340  0.00  0.00    +0.000 C 
ENDBRANCH  11  14
BRANCH  11  15
ATOM     15  S   UNL     1       5.791   6.476  17.798  0.00  0.00    +0.000 S 
ATOM     16  C   UNL     1       7.362   5.662  18.194  0.00  0.00    +0.000 C 
ENDBRANCH  11  15
ENDBRANCH   1  12
BRANCH  10  17
ATOM     17  C   UNL     1       2.279   4.903  20.376  0.00  0.00    +0.000 C 
BRANCH  17  18
ATOM     18  C   UNL     1       1.000   4.082  20.222  0.00  0.00    +0.000 C 
BRANCH  18  19
ATOM     19  O   UNL     1       0.940   3.099  21.245  0.00  0.00    +0.000 OA
ATOM     20  H   UNL     1       0.867   3.558  22.104  0.00  0.00    +0.000 HD
ENDBRANCH  18  19
ENDBRANCH  17  18
ENDBRANCH  10  17
TORSDOF 6
ENDMDL
MODEL 3
REMARK VINA RESULT:      -5.6      1.154      1.411
REMARK  Name = 
REMARK  9 active torsions:
REMARK  status: ('A' for Active; 'I' for Inactive)
REMARK    1  A    between atoms: C_1  and  C_2
REMARK    2  A    between atoms: C_2  and  C_3
REMARK    3  A    between atoms: C_3  and  S_18
REMARK    4  A    between atoms: C_4  and  C_5
REMARK    5  A    between atoms: C_10  and  C_11
REMARK    6  A    between atoms: N_14  and  C_15
REMARK    7  A    between atoms: C_15  and  C_16
REMARK    8  A    between atoms: C_16  and  O_17
REMARK    9  A    between atoms: S_18  and  C_19
REMARK                            x       y       z     vdW  Elec       q    Type
REMARK                         _______ _______ _______ _____ _____    ______ ____
ROOT
ATOM      1  C   UNL     1       4.789   4.163  18.388  0.00  0.00    +0.000 A 
ATOM      2  S   UNL     1       6.201   5.137  18.297  0.00  0.00    +0.000 S 
ATOM      3  C   UNL     1       6.369   4.846  16.617  0.00  0.00    +0.000 A 
ATOM      4  C   UNL     1       7.290   5.425  15.730  0.00  0.00    +0.000 A 
ATOM      5  C   UNL     1       7.249   5.032  14.390  0.00  0.00    +0.000 A 
ATOM      6  C   UNL     1       6.343   4.071  13.949  0.00  0.00    +0.000 A 
ATOM      7  C   UNL     1       6.351   3.647  12.506  0.00  0.00    +0.000 C 
ATOM      8  C   UNL     1       5.429   3.492  14.853  0.00  0.00    +0.000 A 
ATOM      9  C   UNL     1       5.430   3.906  16.205  0.00  0.00    +0.000 A 
ATOM     10  N   UNL     1       4.587   3.515  17.248  0.00  0.00    +0.000 N 
ENDROOT
BRANCH   1  12
ATOM     11  C   UNL     1       2.881   4.716  19.820  0.00  0.00    +0.000 C 
ATOM     12  C   UNL     1       4.053   4.072  19.600  0.00  0.00    +0.000 C 
BRANCH  11  14
ATOM     13  C   UNL     1       1.854   3.360  21.791  0.00  0.00    +0.000 C 
ATOM     14  C   UNL     1       2.185   4.716  21.178  0.00  0.00    +0.000 C 
ENDBRANCH  11  14
BRANCH  11  15
ATOM     15  S   UNL     1       2.058   5.542  18.492  0.00  0.00    +0.000 S 
ATOM     16  C   UNL     1       2.638   7.256  18.603  0.00  0.00    +0.000 C 
ENDBRANCH  11  15
ENDBRANCH   1  12
BRANCH  10  17
ATOM     17  C   UNL     1       3.529   2.504  17.075  0.00  0.00    +0.000 C 
BRANCH  17  18
ATOM     18  C   UNL     1       3.521   1.470  18.200  0.00  0.00    +0.000 C 
BRANCH  18  19
ATOM     19  O   UNL     1       2.200   1.322  18.699  0.00  0.00    +0.000 OA
ATOM     20  H   UNL     1       1.609   1.897  18.174  0.00  0.00    +0.000 HD
ENDBRANCH  18  19
ENDBRANCH  17  18
ENDBRANCH  10  17
TORSDOF 6
ENDMDL
MODEL 4
REMARK VINA RESULT:      -5.5      4.444      6.763
REMARK  Name = 
REMARK  9 active torsions:
REMARK  status: ('A' for Active; 'I' for Inactive)
REMARK    1  A    between atoms: C_1  and  C_2
REMARK    2  A    between atoms: C_2  and  C_3
REMARK    3  A    between atoms: C_3  and  S_18
REMARK    4  A    between atoms: C_4  and  C_5
REMARK    5  A    between atoms: C_10  and  C_11
REMARK    6  A    between atoms: N_14  and  C_15
REMARK    7  A    between atoms: C_15  and  C_16
REMARK    8  A    between atoms: C_16  and  O_17
REMARK    9  A    between atoms: S_18  and  C_19
REMARK                            x       y       z     vdW  Elec       q    Type
REMARK                         _______ _______ _______ _____ _____    ______ ____
ROOT
ATOM      1  C   UNL     1       1.136   9.712  19.200  0.00  0.00    +0.000 A 
ATOM      2  S   UNL     1       2.213   9.169  17.976  0.00  0.00    +0.000 S 
ATOM      3  C   UNL     1       2.319   7.608  18.674  0.00  0.00    +0.000 A 
ATOM      4  C   UNL     1       2.970   6.477  18.160  0.00  0.00    +0.000 A 
ATOM      5  C   UNL     1       2.932   5.298  18.908  0.00  0.00    +0.000 A 
ATOM      6  C   UNL     1       2.293   5.252  20.145  0.00  0.00    +0.000 A 
ATOM      7  C   UNL     1       2.302   3.975  20.939  0.00  0.00    +0.000 C 
ATOM      8  C   UNL     1       1.651   6.399  20.653  0.00  0.00    +0.000 A 
ATOM      9  C   UNL     1       1.646   7.590  19.891  0.00  0.00    +0.000 A 
ATOM     10  N   UNL     1       1.031   8.812  20.170  0.00  0.00    +0.000 N 
ENDROOT
BRANCH   1  12
ATOM     11  C   UNL     1      -0.565  11.288  18.417  0.00  0.00    +0.000 C 
ATOM     12  C   UNL     1       0.554  11.006  19.126  0.00  0.00    +0.000 C 
BRANCH  11  14
ATOM     13  C   UNL     1      -0.172  13.850  18.671  0.00  0.00    +0.000 C 
ATOM     14  C   UNL     1      -1.088  12.711  18.238  0.00  0.00    +0.000 C 
ENDBRANCH  11  14
BRANCH  11  15
ATOM     15  S   UNL     1      -1.527   9.982  17.716  0.00  0.00    +0.000 S 
ATOM     16  C   UNL     1      -2.549  10.802  16.463  0.00  0.00    +0.000 C 
ENDBRANCH  11  15
ENDBRANCH   1  12
BRANCH  10  17
ATOM     17  C   UNL     1       0.282   9.057  21.415  0.00  0.00    +0.000 C 
BRANCH  17  18
ATOM     18  C   UNL     1       1.199   9.388  22.592  0.00  0.00    +0.000 C 
BRANCH  18  19
ATOM     19  O   UNL     1       0.414   9.700  23.733  0.00  0.00    +0.000 OA
ATOM     20  H   UNL     1       0.121  10.630  23.656  0.00  0.00    +0.000 HD
ENDBRANCH  18  19
ENDBRANCH  17  18
ENDBRANCH  10  17
TORSDOF 6
ENDMDL
MODEL 5
REMARK VINA RESULT:      -5.5      1.117      1.240
REMARK  Name = 
REMARK  9 active torsions:
REMARK  status: ('A' for Active; 'I' for Inactive)
REMARK    1  A    between atoms: C_1  and  C_2
REMARK    2  A    between atoms: C_2  and  C_3
REMARK    3  A    between atoms: C_3  and  S_18
REMARK    4  A    between atoms: C_4  and  C_5
REMARK    5  A    between atoms: C_10  and  C_11
REMARK    6  A    between atoms: N_14  and  C_15
REMARK    7  A    between atoms: C_15  and  C_16
REMARK    8  A    between atoms: C_16  and  O_17
REMARK    9  A    between atoms: S_18  and  C_19
REMARK                            x       y       z     vdW  Elec       q    Type
REMARK                         _______ _______ _______ _____ _____    ______ ____
ROOT
ATOM      1  C   UNL     1       3.687   5.566  18.927  0.00  0.00    +0.000 A 
ATOM      2  S   UNL     1       5.355   5.895  19.174  0.00  0.00    +0.000 S 
ATOM      3  C   UNL     1       5.770   5.281  17.629  0.00  0.00    +0.000 A 
ATOM      4  C   UNL     1       7.025   5.304  17.002  0.00  0.00    +0.000 A 
ATOM      5  C   UNL     1       7.136   4.735  15.731  0.00  0.00    +0.000 A 
ATOM      6  C   UNL     1       6.041   4.134  15.114  0.00  0.00    +0.000 A 
ATOM      7  C   UNL     1       6.206   3.501  13.760  0.00  0.00    +0.000 C 
ATOM      8  C   UNL     1       4.789   4.111  15.760  0.00  0.00    +0.000 A 
ATOM      9  C   UNL     1       4.649   4.717  17.030  0.00  0.00    +0.000 A 
ATOM     10  N   UNL     1       3.505   4.860  17.817  0.00  0.00    +0.000 N 
ENDROOT
BRANCH   1  12
ATOM     11  C   UNL     1       2.075   7.159  19.850  0.00  0.00    +0.000 C 
ATOM     12  C   UNL     1       2.722   5.970  19.887  0.00  0.00    +0.000 C 
BRANCH  11  14
ATOM     13  C   UNL     1       1.688   8.698  21.914  0.00  0.00    +0.000 C 
ATOM     14  C   UNL     1       1.151   7.628  20.970  0.00  0.00    +0.000 C 
ENDBRANCH  11  14
BRANCH  11  15
ATOM     15  S   UNL     1       2.223   8.208  18.435  0.00  0.00    +0.000 S 
ATOM     16  C   UNL     1       1.014   9.527  18.728  0.00  0.00    +0.000 C 
ENDBRANCH  11  15
ENDBRANCH   1  12
BRANCH  10  17
ATOM     17  C   UNL     1       2.195   4.317  17.418  0.00  0.00    +0.000 C 
BRANCH  17  18
ATOM     18  C   UNL     1       1.818   3.063  18.205  0.00  0.00    +0.000 C 
BRANCH  18  19
ATOM     19  O   UNL     1       2.373   1.920  17.571  0.00  0.00    +0.000 OA
ATOM     20  H   UNL     1       3.173   1.655  18.066  0.00  0.00    +0.000 HD
ENDBRANCH  18  19
ENDBRANCH  17  18
ENDBRANCH  10  17
TORSDOF 6
ENDMDL
MODEL 6
REMARK VINA RESULT:      -5.4      2.166      6.775
REMARK  Name = 
REMARK  9 active torsions:
REMARK  status: ('A' for Active; 'I' for Inactive)
REMARK    1  A    between atoms: C_1  and  C_2
REMARK    2  A    between atoms: C_2  and  C_3
REMARK    3  A    between atoms: C_3  and  S_18
REMARK    4  A    between atoms: C_4  and  C_5
REMARK    5  A    between atoms: C_10  and  C_11
REMARK    6  A    between atoms: N_14  and  C_15
REMARK    7  A    between atoms: C_15  and  C_16
REMARK    8  A    between atoms: C_16  and  O_17
REMARK    9  A    between atoms: S_18  and  C_19
REMARK                            x       y       z     vdW  Elec       q    Type
REMARK                         _______ _______ _______ _____ _____    ______ ____
ROOT
ATOM      1  C   UNL     1       2.986   6.860  18.572  0.00  0.00    +0.000 A 
ATOM      2  S   UNL     1       2.318   8.213  17.750  0.00  0.00    +0.000 S 
ATOM      3  C   UNL     1       1.526   8.762  19.166  0.00  0.00    +0.000 A 
ATOM      4  C   UNL     1       0.811   9.956  19.345  0.00  0.00    +0.000 A 
ATOM      5  C   UNL     1       0.238  10.199  20.595  0.00  0.00    +0.000 A 
ATOM      6  C   UNL     1       0.344   9.270  21.628  0.00  0.00    +0.000 A 
ATOM      7  C   UNL     1      -0.316   9.550  22.950  0.00  0.00    +0.000 C 
ATOM      8  C   UNL     1       1.058   8.071  21.430  0.00  0.00    +0.000 A 
ATOM      9  C   UNL     1       1.678   7.826  20.184  0.00  0.00    +0.000 A 
ATOM     10  N   UNL     1       2.472   6.747  19.790  0.00  0.00    +0.000 N 
ENDROOT
BRANCH   1  12
ATOM     11  C   UNL     1       3.578   4.751  17.478  0.00  0.00    +0.000 C 
ATOM     12  C   UNL     1       3.899   5.994  17.912  0.00  0.00    +0.000 C 
BRANCH  11  14
ATOM     13  C   UNL     1       5.365   4.239  15.656  0.00  0.00    +0.000 C 
ATOM     14  C   UNL     1       4.612   3.789  16.903  0.00  0.00    +0.000 C 
ENDBRANCH  11  14
BRANCH  11  15
ATOM     15  S   UNL     1       1.895   4.210  17.496  0.00  0.00    +0.000 S 
ATOM     16  C   UNL     1       1.989   2.476  18.016  0.00  0.00    +0.000 C 
ENDBRANCH  11  15
ENDBRANCH   1  12
BRANCH  10  17
ATOM     17  C   UNL     1       2.756   5.606  20.679  0.00  0.00    +0.000 C 
BRANCH  17  18
ATOM     18  C   UNL     1       1.544   4.693  20.861  0.00  0.00    +0.000 C 
BRANCH  18  19
ATOM     19  O   UNL     1       1.922   3.546  21.608  0.00  0.00    +0.000 OA
ATOM     20  H   UNL     1       2.671   3.792  22.186  0.00  0.00    +0.000 HD
ENDBRANCH  18  19
ENDBRANCH  17  18
ENDBRANCH  10  17
TORSDOF 6
ENDMDL
MODEL 7
REMARK VINA RESULT:      -5.4      1.741      5.799
REMARK  Name = 
REMARK  9 active torsions:
REMARK  status: ('A' for Active; 'I' for Inactive)
REMARK    1  A    between atoms: C_1  and  C_2
REMARK    2  A    between atoms: C_2  and  C_3
REMARK    3  A    between atoms: C_3  and  S_18
REMARK    4  A    between atoms: C_4  and  C_5
REMARK    5  A    between atoms: C_10  and  C_11
REMARK    6  A    between atoms: N_14  and  C_15
REMARK    7  A    between atoms: C_15  and  C_16
REMARK    8  A    between atoms: C_16  and  O_17
REMARK    9  A    between atoms: S_18  and  C_19
REMARK                            x       y       z     vdW  Elec       q    Type
REMARK                         _______ _______ _______ _____ _____    ______ ____
ROOT
ATOM      1  C   UNL     1       4.265   4.913  17.007  0.00  0.00    +0.000 A 
ATOM      2  S   UNL     1       3.653   6.366  17.689  0.00  0.00    +0.000 S 
ATOM      3  C   UNL     1       2.941   5.525  19.000  0.00  0.00    +0.000 A 
ATOM      4  C   UNL     1       2.304   6.067  20.127  0.00  0.00    +0.000 A 
ATOM      5  C   UNL     1       1.787   5.185  21.079  0.00  0.00    +0.000 A 
ATOM      6  C   UNL     1       1.871   3.806  20.902  0.00  0.00    +0.000 A 
ATOM      7  C   UNL     1       1.272   2.886  21.930  0.00  0.00    +0.000 C 
ATOM      8  C   UNL     1       2.505   3.276  19.760  0.00  0.00    +0.000 A 
ATOM      9  C   UNL     1       3.070   4.154  18.806  0.00  0.00    +0.000 A 
ATOM     10  N   UNL     1       3.785   3.853  17.645  0.00  0.00    +0.000 N 
ENDROOT
BRANCH   1  12
ATOM     11  C   UNL     1       6.457   4.961  15.917  0.00  0.00    +0.000 C 
ATOM     12  C   UNL     1       5.103   4.951  15.860  0.00  0.00    +0.000 C 
BRANCH  11  14
ATOM     13  C   UNL     1       6.920   4.396  13.418  0.00  0.00    +0.000 C 
ATOM     14  C   UNL     1       7.330   5.146  14.680  0.00  0.00    +0.000 C 
ENDBRANCH  11  14
BRANCH  11  15
ATOM     15  S   UNL     1       7.284   4.680  17.453  0.00  0.00    +0.000 S 
ATOM     16  C   UNL     1       7.524   6.340  18.142  0.00  0.00    +0.000 C 
ENDBRANCH  11  15
ENDBRANCH   1  12
BRANCH  10  17
ATOM     17  C   UNL     1       4.029   2.470  17.201  0.00  0.00    +0.000 C 
BRANCH  17  18
ATOM     18  C   UNL     1       3.429   1.436  18.153  0.00  0.00    +0.000 C 
BRANCH  18  19
ATOM     19  O   UNL     1       4.441   0.532  18.571  0.00  0.00    +0.000 OA
ATOM     20  H   UNL     1       4.122   0.064  19.367  0.00  0.00    +0.000 HD
ENDBRANCH  18  19
ENDBRANCH  17  18
ENDBRANCH  10  17
TORSDOF 6
ENDMDL
MODEL 8
REMARK VINA RESULT:      -5.3      1.545      6.222
REMARK  Name = 
REMARK  9 active torsions:
REMARK  status: ('A' for Active; 'I' for Inactive)
REMARK    1  A    between atoms: C_1  and  C_2
REMARK    2  A    between atoms: C_2  and  C_3
REMARK    3  A    between atoms: C_3  and  S_18
REMARK    4  A    between atoms: C_4  and  C_5
REMARK    5  A    between atoms: C_10  and  C_11
REMARK    6  A    between atoms: N_14  and  C_15
REMARK    7  A    between atoms: C_15  and  C_16
REMARK    8  A    between atoms: C_16  and  O_17
REMARK    9  A    between atoms: S_18  and  C_19
REMARK                            x       y       z     vdW  Elec       q    Type
REMARK                         _______ _______ _______ _____ _____    ______ ____
ROOT
ATOM      1  C   UNL     1       3.607   5.998  17.938  0.00  0.00    +0.000 A 
ATOM      2  S   UNL     1       3.100   7.415  17.110  0.00  0.00    +0.000 S 
ATOM      3  C   UNL     1       2.300   8.018  18.500  0.00  0.00    +0.000 A 
ATOM      4  C   UNL     1       1.689   9.270  18.667  0.00  0.00    +0.000 A 
ATOM      5  C   UNL     1       1.086   9.549  19.897  0.00  0.00    +0.000 A 
ATOM      6  C   UNL     1       1.064   8.602  20.918  0.00  0.00    +0.000 A 
ATOM      7  C   UNL     1       0.375   8.925  22.216  0.00  0.00    +0.000 C 
ATOM      8  C   UNL     1       1.674   7.346  20.732  0.00  0.00    +0.000 A 
ATOM      9  C   UNL     1       2.323   7.060  19.509  0.00  0.00    +0.000 A 
ATOM     10  N   UNL     1       3.033   5.918  19.132  0.00  0.00    +0.000 N 
ENDROOT
BRANCH   1  12
ATOM     11  C   UNL     1       5.773   5.296  17.040  0.00  0.00    +0.000 C 
ATOM     12  C   UNL     1       4.465   5.061  17.304  0.00  0.00    +0.000 C 
BRANCH  11  14
ATOM     13  C   UNL     1       6.124   3.926  14.854  0.00  0.00    +0.000 C 
ATOM     14  C   UNL     1       6.635   4.331  16.232  0.00  0.00    +0.000 C 
ENDBRANCH  11  14
BRANCH  11  15
ATOM     15  S   UNL     1       6.570   6.729  17.699  0.00  0.00    +0.000 S 
ATOM     16  C   UNL     1       7.725   6.072  18.932  0.00  0.00    +0.000 C 
ENDBRANCH  11  15
ENDBRANCH   1  12
BRANCH  10  17
ATOM     17  C   UNL     1       3.174   4.746  20.014  0.00  0.00    +0.000 C 
BRANCH  17  18
ATOM     18  C   UNL     1       2.027   3.750  19.848  0.00  0.00    +0.000 C 
BRANCH  18  19
ATOM     19  O   UNL     1       2.528   2.534  19.311  0.00  0.00    +0.000 OA
ATOM     20  H   UNL     1       3.332   2.738  18.793  0.00  0.00    +0.000 HD
ENDBRANCH  18  19
ENDBRANCH  17  18
ENDBRANCH  10  17
TORSDOF 6
ENDMDL
MODEL 9
REMARK VINA RESULT:      -5.3      4.364      6.684
REMARK  Name = 
REMARK  9 active torsions:
REMARK  status: ('A' for Active; 'I' for Inactive)
REMARK    1  A    between atoms: C_1  and  C_2
REMARK    2  A    between atoms: C_2  and  C_3
REMARK    3  A    between atoms: C_3  and  S_18
REMARK    4  A    between atoms: C_4  and  C_5
REMARK    5  A    between atoms: C_10  and  C_11
REMARK    6  A    between atoms: N_14  and  C_15
REMARK    7  A    between atoms: C_15  and  C_16
REMARK    8  A    between atoms: C_16  and  O_17
REMARK    9  A    between atoms: S_18  and  C_19
REMARK                            x       y       z     vdW  Elec       q    Type
REMARK                         _______ _______ _______ _____ _____    ______ ____
ROOT
ATOM      1  C   UNL     1       0.711   9.988  19.426  0.00  0.00    +0.000 A 
ATOM      2  S   UNL     1       1.754  10.033  18.061  0.00  0.00    +0.000 S 
ATOM      3  C   UNL     1       2.325   8.447  18.365  0.00  0.00    +0.000 A 
ATOM      4  C   UNL     1       3.183   7.673  17.570  0.00  0.00    +0.000 A 
ATOM      5  C   UNL     1       3.524   6.395  18.019  0.00  0.00    +0.000 A 
ATOM      6  C   UNL     1       3.052   5.912  19.238  0.00  0.00    +0.000 A 
ATOM      7  C   UNL     1       3.468   4.545  19.707  0.00  0.00    +0.000 C 
ATOM      8  C   UNL     1       2.198   6.705  20.030  0.00  0.00    +0.000 A 
ATOM      9  C   UNL     1       1.811   7.985  19.572  0.00  0.00    +0.000 A 
ATOM     10  N   UNL     1       0.940   8.905  20.159  0.00  0.00    +0.000 N 
ENDROOT
BRANCH   1  12
ATOM     11  C   UNL     1      -1.342  11.254  19.011  0.00  0.00    +0.000 C 
ATOM     12  C   UNL     1      -0.184  11.060  19.685  0.00  0.00    +0.000 C 
BRANCH  11  14
ATOM     13  C   UNL     1      -2.737  12.754  20.618  0.00  0.00    +0.000 C 
ATOM     14  C   UNL     1      -2.214  12.491  19.211  0.00  0.00    +0.000 C 
ENDBRANCH  11  14
BRANCH  11  15
ATOM     15  S   UNL     1      -1.941  10.018  17.898  0.00  0.00    +0.000 S 
ATOM     16  C   UNL     1      -3.693  10.430  17.673  0.00  0.00    +0.000 C 
ENDBRANCH  11  15
ENDBRANCH   1  12
BRANCH  10  17
ATOM     17  C   UNL     1       0.290   8.664  21.459  0.00  0.00    +0.000 C 
BRANCH  17  18
ATOM     18  C   UNL     1       1.101   9.220  22.629  0.00  0.00    +0.000 C 
BRANCH  18  19
ATOM     19  O   UNL     1       0.236   9.908  23.521  0.00  0.00    +0.000 OA
ATOM     20  H   UNL     1       0.657  10.757  23.760  0.00  0.00    +0.000 HD
ENDBRANCH  18  19
ENDBRANCH  17  18
ENDBRANCH  10  17
TORSDOF 6
ENDMDL
