MODEL 1
REMARK VINA RESULT:      -5.5      0.000      0.000
REMARK  Name = 
REMARK  7 active torsions:
REMARK  status: ('A' for Active; 'I' for Inactive)
REMARK    1  A    between atoms: C_1  and  C_2
REMARK    2  A    between atoms: C_4  and  C_5
REMARK    3  A    between atoms: N_6  and  C_7
REMARK    4  A    between atoms: C_7  and  C_8
REMARK    5  A    between atoms: C_8  and  C_9
REMARK    6  A    between atoms: C_9  and  C_10
REMARK    7  A    between atoms: C_10  and  O_12
REMARK                            x       y       z     vdW  Elec       q    Type
REMARK                         _______ _______ _______ _____ _____    ______ ____
ROOT
ATOM      1  C   UNL     1       1.705   2.808  21.592  0.00  0.00    +0.000 C 
ATOM      2  C   UNL     1       2.310   3.791  20.662  0.00  0.00    +0.000 A 
ATOM      3  C   UNL     1       1.795   5.044  20.268  0.00  0.00    +0.000 A 
ATOM      4  C   UNL     1       2.736   5.576  19.412  0.00  0.00    +0.000 A 
ATOM      5  C   UNL     1       2.753   6.874  18.696  0.00  0.00    +0.000 C 
ATOM      6  N   UNL     1       3.742   4.643  19.348  0.00  0.00    +0.000 N 
ATOM      7  N   UNL     1       3.488   3.540  20.082  0.00  0.00    +0.000 NA
ENDROOT
BRANCH   6   8
ATOM      8  C   UNL     1       4.983   4.712  18.596  0.00  0.00    +0.000 C 
BRANCH   8   9
ATOM      9  C   UNL     1       4.937   3.975  17.251  0.00  0.00    +0.000 C 
BRANCH   9  10
ATOM     10  C   UNL     1       5.618   4.726  16.104  0.00  0.00    +0.000 C 
BRANCH  10  11
ATOM     11  C   UNL     1       7.030   5.131  16.447  0.00  0.00    +0.000 C 
ATOM     12  O   UNL     1       7.452   6.276  16.408  0.00  0.00    +0.000 OA
BRANCH  11  13
ATOM     13  O   UNL     1       7.808   4.089  16.814  0.00  0.00    +0.000 OA
ATOM     14  H   UNL     1       7.357   3.438  17.387  0.00  0.00    +0.000 HD
ENDBRANCH  11  13
ENDBRANCH  10  11
ENDBRANCH   9  10
ENDBRANCH   8   9
ENDBRANCH   6   8
TORSDOF 5
ENDMDL
MODEL 2
REMARK VINA RESULT:      -5.4      0.909      1.009
REMARK  Name = 
REMARK  7 active torsions:
REMARK  status: ('A' for Active; 'I' for Inactive)
REMARK    1  A    between atoms: C_1  and  C_2
REMARK    2  A    between atoms: C_4  and  C_5
REMARK    3  A    between atoms: N_6  and  C_7
REMARK    4  A    between atoms: C_7  and  C_8
REMARK    5  A    between atoms: C_8  and  C_9
REMARK    6  A    between atoms: C_9  and  C_10
REMARK    7  A    between atoms: C_10  and  O_12
REMARK                            x       y       z     vdW  Elec       q    Type
REMARK                         _______ _______ _______ _____ _____    ______ ____
ROOT
ATOM      1  C   UNL     1       1.954   2.851  21.734  0.00  0.00    +0.000 C 
ATOM      2  C   UNL     1       2.221   3.652  20.516  0.00  0.00    +0.000 A 
ATOM      3  C   UNL     1       2.131   5.051  20.360  0.00  0.00    +0.000 A 
ATOM      4  C   UNL     1       2.496   5.300  19.053  0.00  0.00    +0.000 A 
ATOM      5  C   UNL     1       2.605   6.583  18.318  0.00  0.00    +0.000 C 
ATOM      6  N   UNL     1       2.787   4.071  18.514  0.00  0.00    +0.000 N 
ATOM      7  N   UNL     1       2.601   3.055  19.381  0.00  0.00    +0.000 NA
ENDROOT
BRANCH   6   8
ATOM      8  C   UNL     1       3.237   3.767  17.167  0.00  0.00    +0.000 C 
BRANCH   8   9
ATOM      9  C   UNL     1       4.763   3.739  17.013  0.00  0.00    +0.000 C 
BRANCH   9  10
ATOM     10  C   UNL     1       5.317   4.819  16.080  0.00  0.00    +0.000 C 
BRANCH  10  11
ATOM     11  C   UNL     1       6.825   4.859  16.087  0.00  0.00    +0.000 C 
ATOM     12  O   UNL     1       7.509   5.385  15.223  0.00  0.00    +0.000 OA
BRANCH  11  13
ATOM     13  O   UNL     1       7.368   4.248  17.164  0.00  0.00    +0.000 OA
ATOM     14  H   UNL     1       6.747   3.671  17.649  0.00  0.00    +0.000 HD
ENDBRANCH  11  13
ENDBRANCH  10  11
ENDBRANCH   9  10
ENDBRANCH   8   9
ENDBRANCH   6   8
TORSDOF 5
ENDMDL
MODEL 3
REMARK VINA RESULT:      -5.4      1.141      2.071
REMARK  Name = 
REMARK  7 active torsions:
REMARK  status: ('A' for Active; 'I' for Inactive)
REMARK    1  A    between atoms: C_1  and  C_2
REMARK    2  A    between atoms: C_4  and  C_5
REMARK    3  A    between atoms: N_6  and  C_7
REMARK    4  A    between atoms: C_7  and  C_8
REMARK    5  A    between atoms: C_8  and  C_9
REMARK    6  A    between atoms: C_9  and  C_10
REMARK    7  A    between atoms: C_10  and  O_12
REMARK                            x       y       z     vdW  Elec       q    Type
REMARK                         _______ _______ _______ _____ _____    ______ ____
ROOT
ATOM      1  C   UNL     1       1.764   6.883  20.638  0.00  0.00    +0.000 C 
ATOM      2  C   UNL     1       2.265   5.648  19.989  0.00  0.00    +0.000 A 
ATOM      3  C   UNL     1       1.619   4.399  19.886  0.00  0.00    +0.000 A 
ATOM      4  C   UNL     1       2.487   3.593  19.179  0.00  0.00    +0.000 A 
ATOM      5  C   UNL     1       2.347   2.180  18.751  0.00  0.00    +0.000 C 
ATOM      6  N   UNL     1       3.573   4.384  18.897  0.00  0.00    +0.000 N 
ATOM      7  N   UNL     1       3.467   5.630  19.403  0.00  0.00    +0.000 NA
ENDROOT
BRANCH   6   8
ATOM      8  C   UNL     1       4.773   4.030  18.158  0.00  0.00    +0.000 C 
BRANCH   8   9
ATOM      9  C   UNL     1       4.689   4.329  16.656  0.00  0.00    +0.000 C 
BRANCH   9  10
ATOM     10  C   UNL     1       5.969   4.005  15.882  0.00  0.00    +0.000 C 
BRANCH  10  11
ATOM     11  C   UNL     1       7.141   4.833  16.346  0.00  0.00    +0.000 C 
ATOM     12  O   UNL     1       7.300   6.016  16.087  0.00  0.00    +0.000 OA
BRANCH  11  13
ATOM     13  O   UNL     1       8.022   4.134  17.096  0.00  0.00    +0.000 OA
ATOM     14  H   UNL     1       7.638   3.753  17.909  0.00  0.00    +0.000 HD
ENDBRANCH  11  13
ENDBRANCH  10  11
ENDBRANCH   9  10
ENDBRANCH   8   9
ENDBRANCH   6   8
TORSDOF 5
ENDMDL
MODEL 4
REMARK VINA RESULT:      -5.3      2.211      2.703
REMARK  Name = 
REMARK  7 active torsions:
REMARK  status: ('A' for Active; 'I' for Inactive)
REMARK    1  A    between atoms: C_1  and  C_2
REMARK    2  A    between atoms: C_4  and  C_5
REMARK    3  A    between atoms: N_6  and  C_7
REMARK    4  A    between atoms: C_7  and  C_8
REMARK    5  A    between atoms: C_8  and  C_9
REMARK    6  A    between atoms: C_9  and  C_10
REMARK    7  A    between atoms: C_10  and  O_12
REMARK                            x       y       z     vdW  Elec       q    Type
REMARK                         _______ _______ _______ _____ _____    ______ ____
ROOT
ATOM      1  C   UNL     1       2.366   2.463  18.102  0.00  0.00    +0.000 C 
ATOM      2  C   UNL     1       3.412   3.508  18.201  0.00  0.00    +0.000 A 
ATOM      3  C   UNL     1       4.512   3.554  19.083  0.00  0.00    +0.000 A 
ATOM      4  C   UNL     1       5.191   4.711  18.764  0.00  0.00    +0.000 A 
ATOM      5  C   UNL     1       6.433   5.281  19.340  0.00  0.00    +0.000 C 
ATOM      6  N   UNL     1       4.486   5.277  17.730  0.00  0.00    +0.000 N 
ATOM      7  N   UNL     1       3.387   4.572  17.391  0.00  0.00    +0.000 NA
ENDROOT
BRANCH   6   8
ATOM      8  C   UNL     1       4.780   6.503  17.009  0.00  0.00    +0.000 C 
BRANCH   8   9
ATOM      9  C   UNL     1       5.105   6.290  15.525  0.00  0.00    +0.000 C 
BRANCH   9  10
ATOM     10  C   UNL     1       5.707   4.919  15.208  0.00  0.00    +0.000 C 
BRANCH  10  11
ATOM     11  C   UNL     1       7.212   4.919  15.316  0.00  0.00    +0.000 C 
ATOM     12  O   UNL     1       7.840   4.465  16.259  0.00  0.00    +0.000 OA
BRANCH  11  13
ATOM     13  O   UNL     1       7.821   5.477  14.246  0.00  0.00    +0.000 OA
ATOM     14  H   UNL     1       8.783   5.609  14.360  0.00  0.00    +0.000 HD
ENDBRANCH  11  13
ENDBRANCH  10  11
ENDBRANCH   9  10
ENDBRANCH   8   9
ENDBRANCH   6   8
TORSDOF 5
ENDMDL
MODEL 5
REMARK VINA RESULT:      -5.3      2.964      4.764
REMARK  Name = 
REMARK  7 active torsions:
REMARK  status: ('A' for Active; 'I' for Inactive)
REMARK    1  A    between atoms: C_1  and  C_2
REMARK    2  A    between atoms: C_4  and  C_5
REMARK    3  A    between atoms: N_6  and  C_7
REMARK    4  A    between atoms: C_7  and  C_8
REMARK    5  A    between atoms: C_8  and  C_9
REMARK    6  A    between atoms: C_9  and  C_10
REMARK    7  A    between atoms: C_10  and  O_12
REMARK                            x       y       z     vdW  Elec       q    Type
REMARK                         _______ _______ _______ _____ _____    ______ ____
ROOT
ATOM      1  C   UNL     1       6.274   4.741  17.965  0.00  0.00    +0.000 C 
ATOM      2  C   UNL     1       5.011   5.452  18.272  0.00  0.00    +0.000 A 
ATOM      3  C   UNL     1       4.444   6.549  17.590  0.00  0.00    +0.000 A 
ATOM      4  C   UNL     1       3.266   6.825  18.251  0.00  0.00    +0.000 A 
ATOM      5  C   UNL     1       2.237   7.858  17.982  0.00  0.00    +0.000 C 
ATOM      6  N   UNL     1       3.187   5.897  19.261  0.00  0.00    +0.000 N 
ATOM      7  N   UNL     1       4.251   5.071  19.305  0.00  0.00    +0.000 NA
ENDROOT
BRANCH   6   8
ATOM      8  C   UNL     1       2.133   5.734  20.248  0.00  0.00    +0.000 C 
BRANCH   8   9
ATOM      9  C   UNL     1       1.966   4.292  20.745  0.00  0.00    +0.000 C 
BRANCH   9  10
ATOM     10  C   UNL     1       0.812   3.534  20.085  0.00  0.00    +0.000 C 
BRANCH  10  11
ATOM     11  C   UNL     1       1.212   2.925  18.764  0.00  0.00    +0.000 C 
ATOM     12  O   UNL     1       1.216   3.521  17.698  0.00  0.00    +0.000 OA
BRANCH  11  13
ATOM     13  O   UNL     1       1.579   1.628  18.865  0.00  0.00    +0.000 OA
ATOM     14  H   UNL     1       2.425   1.490  19.333  0.00  0.00    +0.000 HD
ENDBRANCH  11  13
ENDBRANCH  10  11
ENDBRANCH   9  10
ENDBRANCH   8   9
ENDBRANCH   6   8
TORSDOF 5
ENDMDL
MODEL 6
REMARK VINA RESULT:      -5.3      3.183      5.306
REMARK  Name = 
REMARK  7 active torsions:
REMARK  status: ('A' for Active; 'I' for Inactive)
REMARK    1  A    between atoms: C_1  and  C_2
REMARK    2  A    between atoms: C_4  and  C_5
REMARK    3  A    between atoms: N_6  and  C_7
REMARK    4  A    between atoms: C_7  and  C_8
REMARK    5  A    between atoms: C_8  and  C_9
REMARK    6  A    between atoms: C_9  and  C_10
REMARK    7  A    between atoms: C_10  and  O_12
REMARK                            x       y       z     vdW  Elec       q    Type
REMARK                         _______ _______ _______ _____ _____    ______ ____
ROOT
ATOM      1  C   UNL     1       7.088   5.186  18.074  0.00  0.00    +0.000 C 
ATOM      2  C   UNL     1       5.629   4.929  18.037  0.00  0.00    +0.000 A 
ATOM      3  C   UNL     1       4.947   3.894  17.365  0.00  0.00    +0.000 A 
ATOM      4  C   UNL     1       3.613   4.081  17.658  0.00  0.00    +0.000 A 
ATOM      5  C   UNL     1       2.423   3.297  17.246  0.00  0.00    +0.000 C 
ATOM      6  N   UNL     1       3.569   5.184  18.476  0.00  0.00    +0.000 N 
ATOM      7  N   UNL     1       4.783   5.727  18.697  0.00  0.00    +0.000 NA
ENDROOT
BRANCH   6   8
ATOM      8  C   UNL     1       2.404   5.802  19.085  0.00  0.00    +0.000 C 
BRANCH   8   9
ATOM      9  C   UNL     1       2.130   5.334  20.519  0.00  0.00    +0.000 C 
BRANCH   9  10
ATOM     10  C   UNL     1       1.252   4.083  20.611  0.00  0.00    +0.000 C 
BRANCH  10  11
ATOM     11  C   UNL     1       1.930   2.965  21.364  0.00  0.00    +0.000 C 
ATOM     12  O   UNL     1       1.444   2.376  22.317  0.00  0.00    +0.000 OA
BRANCH  11  13
ATOM     13  O   UNL     1       3.153   2.661  20.877  0.00  0.00    +0.000 OA
ATOM     14  H   UNL     1       3.768   2.297  21.543  0.00  0.00    +0.000 HD
ENDBRANCH  11  13
ENDBRANCH  10  11
ENDBRANCH   9  10
ENDBRANCH   8   9
ENDBRANCH   6   8
TORSDOF 5
ENDMDL
MODEL 7
REMARK VINA RESULT:      -5.3      2.551      3.547
REMARK  Name = 
REMARK  7 active torsions:
REMARK  status: ('A' for Active; 'I' for Inactive)
REMARK    1  A    between atoms: C_1  and  C_2
REMARK    2  A    between atoms: C_4  and  C_5
REMARK    3  A    between atoms: N_6  and  C_7
REMARK    4  A    between atoms: C_7  and  C_8
REMARK    5  A    between atoms: C_8  and  C_9
REMARK    6  A    between atoms: C_9  and  C_10
REMARK    7  A    between atoms: C_10  and  O_12
REMARK                            x       y       z     vdW  Elec       q    Type
REMARK                         _______ _______ _______ _____ _____    ______ ____
ROOT
ATOM      1  C   UNL     1       2.625   8.088  18.151  0.00  0.00    +0.000 C 
ATOM      2  C   UNL     1       3.181   6.761  17.797  0.00  0.00    +0.000 A 
ATOM      3  C   UNL     1       2.685   5.489  18.151  0.00  0.00    +0.000 A 
ATOM      4  C   UNL     1       3.543   4.583  17.564  0.00  0.00    +0.000 A 
ATOM      5  C   UNL     1       3.520   3.100  17.573  0.00  0.00    +0.000 C 
ATOM      6  N   UNL     1       4.477   5.340  16.901  0.00  0.00    +0.000 N 
ATOM      7  N   UNL     1       4.288   6.666  17.053  0.00  0.00    +0.000 NA
ENDROOT
BRANCH   6   8
ATOM      8  C   UNL     1       5.602   4.880  16.105  0.00  0.00    +0.000 C 
BRANCH   8   9
ATOM      9  C   UNL     1       6.949   5.478  16.529  0.00  0.00    +0.000 C 
BRANCH   9  10
ATOM     10  C   UNL     1       7.595   4.776  17.726  0.00  0.00    +0.000 C 
BRANCH  10  11
ATOM     11  C   UNL     1       7.388   5.537  19.012  0.00  0.00    +0.000 C 
ATOM     12  O   UNL     1       6.473   5.339  19.796  0.00  0.00    +0.000 OA
BRANCH  11  13
ATOM     13  O   UNL     1       8.331   6.481  19.230  0.00  0.00    +0.000 OA
ATOM     14  H   UNL     1       9.122   6.152  19.699  0.00  0.00    +0.000 HD
ENDBRANCH  11  13
ENDBRANCH  10  11
ENDBRANCH   9  10
ENDBRANCH   8   9
ENDBRANCH   6   8
TORSDOF 5
ENDMDL
MODEL 8
REMARK VINA RESULT:      -5.3      0.706      1.106
REMARK  Name = 
REMARK  7 active torsions:
REMARK  status: ('A' for Active; 'I' for Inactive)
REMARK    1  A    between atoms: C_1  and  C_2
REMARK    2  A    between atoms: C_4  and  C_5
REMARK    3  A    between atoms: N_6  and  C_7
REMARK    4  A    between atoms: C_7  and  C_8
REMARK    5  A    between atoms: C_8  and  C_9
REMARK    6  A    between atoms: C_9  and  C_10
REMARK    7  A    between atoms: C_10  and  O_12
REMARK                            x       y       z     vdW  Elec       q    Type
REMARK                         _______ _______ _______ _____ _____    ______ ____
ROOT
ATOM      1  C   UNL     1       2.016   2.939  21.454  0.00  0.00    +0.000 C 
ATOM      2  C   UNL     1       2.305   3.999  20.458  0.00  0.00    +0.000 A 
ATOM      3  C   UNL     1       1.948   5.362  20.514  0.00  0.00    +0.000 A 
ATOM      4  C   UNL     1       2.462   5.924  19.365  0.00  0.00    +0.000 A 
ATOM      5  C   UNL     1       2.418   7.326  18.883  0.00  0.00    +0.000 C 
ATOM      6  N   UNL     1       3.090   4.897  18.703  0.00  0.00    +0.000 N 
ATOM      7  N   UNL     1       2.982   3.714  19.341  0.00  0.00    +0.000 NA
ENDROOT
BRANCH   6   8
ATOM      8  C   UNL     1       3.808   4.949  17.442  0.00  0.00    +0.000 C 
BRANCH   8   9
ATOM      9  C   UNL     1       4.854   3.839  17.276  0.00  0.00    +0.000 C 
BRANCH   9  10
ATOM     10  C   UNL     1       5.762   4.013  16.056  0.00  0.00    +0.000 C 
BRANCH  10  11
ATOM     11  C   UNL     1       7.011   4.792  16.383  0.00  0.00    +0.000 C 
ATOM     12  O   UNL     1       7.982   4.336  16.966  0.00  0.00    +0.000 OA
BRANCH  11  13
ATOM     13  O   UNL     1       6.964   6.075  15.958  0.00  0.00    +0.000 OA
ATOM     14  H   UNL     1       6.093   6.346  15.608  0.00  0.00    +0.000 HD
ENDBRANCH  11  13
ENDBRANCH  10  11
ENDBRANCH   9  10
ENDBRANCH   8   9
ENDBRANCH   6   8
TORSDOF 5
ENDMDL
MODEL 9
REMARK VINA RESULT:      -5.3      2.035      3.246
REMARK  Name = 
REMARK  7 active torsions:
REMARK  status: ('A' for Active; 'I' for Inactive)
REMARK    1  A    between atoms: C_1  and  C_2
REMARK    2  A    between atoms: C_4  and  C_5
REMARK    3  A    between atoms: N_6  and  C_7
REMARK    4  A    between atoms: C_7  and  C_8
REMARK    5  A    between atoms: C_8  and  C_9
REMARK    6  A    between atoms: C_9  and  C_10
REMARK    7  A    between atoms: C_10  and  O_12
REMARK                            x       y       z     vdW  Elec       q    Type
REMARK                         _______ _______ _______ _____ _____    ______ ____
ROOT
ATOM      1  C   UNL     1       3.396   2.919  19.741  0.00  0.00    +0.000 C 
ATOM      2  C   UNL     1       3.987   3.708  18.634  0.00  0.00    +0.000 A 
ATOM      3  C   UNL     1       4.175   3.315  17.292  0.00  0.00    +0.000 A 
ATOM      4  C   UNL     1       4.740   4.406  16.665  0.00  0.00    +0.000 A 
ATOM      5  C   UNL     1       5.146   4.593  15.251  0.00  0.00    +0.000 C 
ATOM      6  N   UNL     1       4.848   5.372  17.636  0.00  0.00    +0.000 N 
ATOM      7  N   UNL     1       4.418   4.956  18.845  0.00  0.00    +0.000 NA
ENDROOT
BRANCH   6   8
ATOM      8  C   UNL     1       5.365   6.722  17.504  0.00  0.00    +0.000 C 
BRANCH   8   9
ATOM      9  C   UNL     1       6.856   6.784  17.146  0.00  0.00    +0.000 C 
BRANCH   9  10
ATOM     10  C   UNL     1       7.788   6.839  18.359  0.00  0.00    +0.000 C 
BRANCH  10  11
ATOM     11  C   UNL     1       7.942   5.493  19.021  0.00  0.00    +0.000 C 
ATOM     12  O   UNL     1       8.079   4.437  18.424  0.00  0.00    +0.000 OA
BRANCH  11  13
ATOM     13  O   UNL     1       7.917   5.558  20.371  0.00  0.00    +0.000 OA
ATOM     14  H   UNL     1       7.171   6.076  20.731  0.00  0.00    +0.000 HD
ENDBRANCH  11  13
ENDBRANCH  10  11
ENDBRANCH   9  10
ENDBRANCH   8   9
ENDBRANCH   6   8
TORSDOF 5
ENDMDL
