MODEL 1
REMARK VINA RESULT:      -8.4      0.000      0.000
REMARK  Name = 
REMARK  7 active torsions:
REMARK  status: ('A' for Active; 'I' for Inactive)
REMARK    1  A    between atoms: C_1  and  C_2
REMARK    2  A    between atoms: C_2  and  C_3
REMARK    3  A    between atoms: C_3  and  C_4
REMARK    4  A    between atoms: C_5  and  C_6
REMARK    5  A    between atoms: C_6  and  N_7
REMARK    6  A    between atoms: C_11  and  C_12
REMARK    7  A    between atoms: C_23  and  C_24
REMARK                            x       y       z     vdW  Elec       q    Type
REMARK                         _______ _______ _______ _____ _____    ______ ____
ROOT
ATOM      1  C   UNL     1       6.445   5.653  17.321  0.00  0.00    +0.000 A 
ATOM      2  C   UNL     1       5.322   5.154  17.923  0.00  0.00    +0.000 A 
ATOM      3  N   UNL     1       4.356   4.383  17.262  0.00  0.00    +0.000 NA
ATOM      4  C   UNL     1       4.565   4.052  16.024  0.00  0.00    +0.000 A 
ATOM      5  N   UNL     1       5.694   4.494  15.373  0.00  0.00    +0.000 N 
ATOM      6  N   UNL     1       5.977   4.217  14.089  0.00  0.00    +0.000 NA
ATOM      7  C   UNL     1       7.123   4.893  13.934  0.00  0.00    +0.000 A 
ATOM      8  C   UNL     1       7.848   4.944  12.646  0.00  0.00    +0.000 C 
ATOM      9  N   UNL     1       7.567   5.560  15.054  0.00  0.00    +0.000 NA
ATOM     10  C   UNL     1       6.640   5.286  15.951  0.00  0.00    +0.000 A 
ENDROOT
BRANCH   1  11
ATOM     11  C   UNL     1       7.425   6.596  18.008  0.00  0.00    +0.000 C 
BRANCH  11  13
ATOM     12  C   UNL     1       8.387   8.922  18.144  0.00  0.00    +0.000 C 
ATOM     13  C   UNL     1       7.323   8.036  17.506  0.00  0.00    +0.000 C 
ENDBRANCH  11  13
ENDBRANCH   1  11
BRANCH   2  14
ATOM     14  C   UNL     1       4.961   5.409  19.390  0.00  0.00    +0.000 C 
BRANCH  14  15
ATOM     15  N   UNL     1       3.673   4.864  19.843  0.00  0.00    +0.000 N 
ATOM     16  C   UNL     1       3.434   3.594  20.310  0.00  0.00    +0.000 A 
ATOM     17  C   UNL     1       2.092   3.537  20.569  0.00  0.00    +0.000 A 
ATOM     18  N   UNL     1       1.510   4.741  20.315  0.00  0.00    +0.000 NA
ATOM     19  C   UNL     1       2.459   5.551  19.864  0.00  0.00    +0.000 A 
BRANCH  19  20
ATOM     20  C   UNL     1       2.220   6.938  19.423  0.00  0.00    +0.000 A 
ATOM     21  N   UNL     1       2.532   7.235  18.129  0.00  0.00    +0.000 NA
ATOM     22  C   UNL     1       2.250   8.483  17.689  0.00  0.00    +0.000 A 
ATOM     23  C   UNL     1       1.672   9.468  18.472  0.00  0.00    +0.000 A 
ATOM     24  C   UNL     1       1.383   9.164  19.796  0.00  0.00    +0.000 A 
ATOM     25  C   UNL     1       1.663   7.890  20.280  0.00  0.00    +0.000 A 
ATOM     26  F   UNL     1       1.372   7.623  21.560  0.00  0.00    +0.000 F 
ENDBRANCH  19  20
ENDBRANCH  14  15
ENDBRANCH   2  14
TORSDOF 5
ENDMDL
MODEL 2
REMARK VINA RESULT:      -8.4      2.690      7.095
REMARK  Name = 
REMARK  7 active torsions:
REMARK  status: ('A' for Active; 'I' for Inactive)
REMARK    1  A    between atoms: C_1  and  C_2
REMARK    2  A    between atoms: C_2  and  C_3
REMARK    3  A    between atoms: C_3  and  C_4
REMARK    4  A    between atoms: C_5  and  C_6
REMARK    5  A    between atoms: C_6  and  N_7
REMARK    6  A    between atoms: C_11  and  C_12
REMARK    7  A    between atoms: C_23  and  C_24
REMARK                            x       y       z     vdW  Elec       q    Type
REMARK                         _______ _______ _______ _____ _____    ______ ____
ROOT
ATOM      1  C   UNL     1       2.351   7.039  19.447  0.00  0.00    +0.000 A 
ATOM      2  C   UNL     1       2.756   7.379  18.185  0.00  0.00    +0.000 A 
ATOM      3  N   UNL     1       2.466   8.606  17.575  0.00  0.00    +0.000 NA
ATOM      4  C   UNL     1       1.840   9.512  18.263  0.00  0.00    +0.000 A 
ATOM      5  N   UNL     1       1.436   9.242  19.551  0.00  0.00    +0.000 N 
ATOM      6  N   UNL     1       0.766  10.112  20.325  0.00  0.00    +0.000 NA
ATOM      7  C   UNL     1       0.580   9.375  21.428  0.00  0.00    +0.000 A 
ATOM      8  C   UNL     1      -0.163   9.876  22.604  0.00  0.00    +0.000 C 
ATOM      9  N   UNL     1       1.109   8.104  21.379  0.00  0.00    +0.000 NA
ATOM     10  C   UNL     1       1.648   8.050  20.176  0.00  0.00    +0.000 A 
ENDROOT
BRANCH   1  11
ATOM     11  C   UNL     1       2.558   5.659  20.059  0.00  0.00    +0.000 C 
BRANCH  11  13
ATOM     12  C   UNL     1       1.158   3.681  20.755  0.00  0.00    +0.000 C 
ATOM     13  C   UNL     1       1.497   4.646  19.624  0.00  0.00    +0.000 C 
ENDBRANCH  11  13
ENDBRANCH   1  11
BRANCH   2  14
ATOM     14  C   UNL     1       3.549   6.443  17.268  0.00  0.00    +0.000 C 
BRANCH  14  15
ATOM     15  N   UNL     1       4.979   6.294  17.576  0.00  0.00    +0.000 N 
ATOM     16  C   UNL     1       5.958   7.245  17.422  0.00  0.00    +0.000 A 
ATOM     17  C   UNL     1       7.128   6.642  17.796  0.00  0.00    +0.000 A 
ATOM     18  N   UNL     1       6.890   5.368  18.212  0.00  0.00    +0.000 NA
ATOM     19  C   UNL     1       5.590   5.142  18.072  0.00  0.00    +0.000 A 
BRANCH  19  20
ATOM     20  C   UNL     1       4.939   3.852  18.366  0.00  0.00    +0.000 A 
ATOM     21  N   UNL     1       5.094   3.358  19.628  0.00  0.00    +0.000 NA
ATOM     22  C   UNL     1       4.443   2.213  19.935  0.00  0.00    +0.000 A 
ATOM     23  C   UNL     1       3.638   1.518  19.048  0.00  0.00    +0.000 A 
ATOM     24  C   UNL     1       3.507   2.016  17.757  0.00  0.00    +0.000 A 
ATOM     25  C   UNL     1       4.167   3.190  17.410  0.00  0.00    +0.000 A 
ATOM     26  F   UNL     1       4.021   3.649  16.159  0.00  0.00    +0.000 F 
ENDBRANCH  19  20
ENDBRANCH  14  15
ENDBRANCH   2  14
TORSDOF 5
ENDMDL
MODEL 3
REMARK VINA RESULT:      -8.2      1.226      1.480
REMARK  Name = 
REMARK  7 active torsions:
REMARK  status: ('A' for Active; 'I' for Inactive)
REMARK    1  A    between atoms: C_1  and  C_2
REMARK    2  A    between atoms: C_2  and  C_3
REMARK    3  A    between atoms: C_3  and  C_4
REMARK    4  A    between atoms: C_5  and  C_6
REMARK    5  A    between atoms: C_6  and  N_7
REMARK    6  A    between atoms: C_11  and  C_12
REMARK    7  A    between atoms: C_23  and  C_24
REMARK                            x       y       z     vdW  Elec       q    Type
REMARK                         _______ _______ _______ _____ _____    ______ ____
ROOT
ATOM      1  C   UNL     1       6.578   5.403  17.276  0.00  0.00    +0.000 A 
ATOM      2  C   UNL     1       5.543   4.721  17.857  0.00  0.00    +0.000 A 
ATOM      3  N   UNL     1       4.680   3.866  17.159  0.00  0.00    +0.000 NA
ATOM      4  C   UNL     1       4.910   3.640  15.901  0.00  0.00    +0.000 A 
ATOM      5  N   UNL     1       5.958   4.270  15.268  0.00  0.00    +0.000 N 
ATOM      6  N   UNL     1       6.254   4.110  13.967  0.00  0.00    +0.000 NA
ATOM      7  C   UNL     1       7.295   4.944  13.843  0.00  0.00    +0.000 A 
ATOM      8  C   UNL     1       7.984   5.169  12.554  0.00  0.00    +0.000 C 
ATOM      9  N   UNL     1       7.663   5.597  14.998  0.00  0.00    +0.000 NA
ATOM     10  C   UNL     1       6.797   5.147  15.885  0.00  0.00    +0.000 A 
ENDROOT
BRANCH   1  11
ATOM     11  C   UNL     1       7.433   6.428  18.010  0.00  0.00    +0.000 C 
BRANCH  11  13
ATOM     12  C   UNL     1       8.280   8.803  18.053  0.00  0.00    +0.000 C 
ATOM     13  C   UNL     1       7.210   7.858  17.516  0.00  0.00    +0.000 C 
ENDBRANCH  11  13
ENDBRANCH   1  11
BRANCH   2  14
ATOM     14  C   UNL     1       5.176   4.838  19.339  0.00  0.00    +0.000 C 
BRANCH  14  15
ATOM     15  N   UNL     1       3.951   4.139  19.759  0.00  0.00    +0.000 N 
ATOM     16  C   UNL     1       3.833   2.812  20.090  0.00  0.00    +0.000 A 
ATOM     17  C   UNL     1       2.509   2.613  20.371  0.00  0.00    +0.000 A 
ATOM     18  N   UNL     1       1.822   3.784  20.263  0.00  0.00    +0.000 NA
ATOM     19  C   UNL     1       2.687   4.715  19.882  0.00  0.00    +0.000 A 
BRANCH  19  20
ATOM     20  C   UNL     1       2.322   6.116  19.601  0.00  0.00    +0.000 A 
ATOM     21  N   UNL     1       1.912   6.869  20.661  0.00  0.00    +0.000 NA
ATOM     22  C   UNL     1       1.644   8.176  20.434  0.00  0.00    +0.000 A 
ATOM     23  C   UNL     1       1.757   8.785  19.195  0.00  0.00    +0.000 A 
ATOM     24  C   UNL     1       2.150   8.003  18.116  0.00  0.00    +0.000 A 
ATOM     25  C   UNL     1       2.431   6.655  18.318  0.00  0.00    +0.000 A 
ATOM     26  F   UNL     1       2.809   5.925  17.260  0.00  0.00    +0.000 F 
ENDBRANCH  19  20
ENDBRANCH  14  15
ENDBRANCH   2  14
TORSDOF 5
ENDMDL
MODEL 4
REMARK VINA RESULT:      -7.9      2.297      7.090
REMARK  Name = 
REMARK  7 active torsions:
REMARK  status: ('A' for Active; 'I' for Inactive)
REMARK    1  A    between atoms: C_1  and  C_2
REMARK    2  A    between atoms: C_2  and  C_3
REMARK    3  A    between atoms: C_3  and  C_4
REMARK    4  A    between atoms: C_5  and  C_6
REMARK    5  A    between atoms: C_6  and  N_7
REMARK    6  A    between atoms: C_11  and  C_12
REMARK    7  A    between atoms: C_23  and  C_24
REMARK                            x       y       z     vdW  Elec       q    Type
REMARK                         _______ _______ _______ _____ _____    ______ ____
ROOT
ATOM      1  C   UNL     1       2.683   6.270  19.555  0.00  0.00    +0.000 A 
ATOM      2  C   UNL     1       3.357   6.354  18.367  0.00  0.00    +0.000 A 
ATOM      3  N   UNL     1       3.301   7.463  17.512  0.00  0.00    +0.000 NA
ATOM      4  C   UNL     1       2.635   8.509  17.894  0.00  0.00    +0.000 A 
ATOM      5  N   UNL     1       1.964   8.500  19.096  0.00  0.00    +0.000 N 
ATOM      6  N   UNL     1       1.235   9.530  19.556  0.00  0.00    +0.000 NA
ATOM      7  C   UNL     1       0.772   9.017  20.703  0.00  0.00    +0.000 A 
ATOM      8  C   UNL     1      -0.140   9.762  21.597  0.00  0.00    +0.000 C 
ATOM      9  N   UNL     1       1.186   7.733  20.979  0.00  0.00    +0.000 NA
ATOM     10  C   UNL     1       1.943   7.433  19.942  0.00  0.00    +0.000 A 
ENDROOT
BRANCH   1  11
ATOM     11  C   UNL     1       2.643   5.016  20.419  0.00  0.00    +0.000 C 
BRANCH  11  13
ATOM     12  C   UNL     1       1.489   2.791  20.696  0.00  0.00    +0.000 C 
ATOM     13  C   UNL     1       1.319   4.258  20.313  0.00  0.00    +0.000 C 
ENDBRANCH  11  13
ENDBRANCH   1  11
BRANCH   2  14
ATOM     14  C   UNL     1       4.228   5.226  17.805  0.00  0.00    +0.000 C 
BRANCH  14  15
ATOM     15  N   UNL     1       5.650   5.260  18.179  0.00  0.00    +0.000 N 
ATOM     16  C   UNL     1       6.168   5.514  19.426  0.00  0.00    +0.000 A 
ATOM     17  C   UNL     1       7.527   5.481  19.280  0.00  0.00    +0.000 A 
ATOM     18  N   UNL     1       7.858   5.176  17.995  0.00  0.00    +0.000 NA
ATOM     19  C   UNL     1       6.725   5.050  17.315  0.00  0.00    +0.000 A 
BRANCH  19  20
ATOM     20  C   UNL     1       6.656   4.774  15.868  0.00  0.00    +0.000 A 
ATOM     21  N   UNL     1       7.411   5.566  15.055  0.00  0.00    +0.000 NA
ATOM     22  C   UNL     1       7.416   5.278  13.732  0.00  0.00    +0.000 A 
ATOM     23  C   UNL     1       6.701   4.238  13.164  0.00  0.00    +0.000 A 
ATOM     24  C   UNL     1       5.915   3.453  13.998  0.00  0.00    +0.000 A 
ATOM     25  C   UNL     1       5.886   3.725  15.362  0.00  0.00    +0.000 A 
ATOM     26  F   UNL     1       5.120   2.952  16.143  0.00  0.00    +0.000 F 
ENDBRANCH  19  20
ENDBRANCH  14  15
ENDBRANCH   2  14
TORSDOF 5
ENDMDL
MODEL 5
REMARK VINA RESULT:      -7.7      2.130      6.292
REMARK  Name = 
REMARK  7 active torsions:
REMARK  status: ('A' for Active; 'I' for Inactive)
REMARK    1  A    between atoms: C_1  and  C_2
REMARK    2  A    between atoms: C_2  and  C_3
REMARK    3  A    between atoms: C_3  and  C_4
REMARK    4  A    between atoms: C_5  and  C_6
REMARK    5  A    between atoms: C_6  and  N_7
REMARK    6  A    between atoms: C_11  and  C_12
REMARK    7  A    between atoms: C_23  and  C_24
REMARK                            x       y       z     vdW  Elec       q    Type
REMARK                         _______ _______ _______ _____ _____    ______ ____
ROOT
ATOM      1  C   UNL     1       3.334   5.248  18.574  0.00  0.00    +0.000 A 
ATOM      2  C   UNL     1       3.708   4.826  17.327  0.00  0.00    +0.000 A 
ATOM      3  N   UNL     1       3.625   3.496  16.894  0.00  0.00    +0.000 NA
ATOM      4  C   UNL     1       3.093   2.615  17.686  0.00  0.00    +0.000 A 
ATOM      5  N   UNL     1       2.664   2.986  18.940  0.00  0.00    +0.000 N 
ATOM      6  N   UNL     1       2.123   2.136  19.829  0.00  0.00    +0.000 NA
ATOM      7  C   UNL     1       1.925   2.955  20.870  0.00  0.00    +0.000 A 
ATOM      8  C   UNL     1       1.366   2.486  22.156  0.00  0.00    +0.000 C 
ATOM      9  N   UNL     1       2.303   4.263  20.666  0.00  0.00    +0.000 NA
ATOM     10  C   UNL     1       2.767   4.251  19.431  0.00  0.00    +0.000 A 
ENDROOT
BRANCH   1  11
ATOM     11  C   UNL     1       3.544   6.668  19.086  0.00  0.00    +0.000 C 
BRANCH  11  13
ATOM     12  C   UNL     1       2.232   8.430  17.849  0.00  0.00    +0.000 C 
ATOM     13  C   UNL     1       2.267   7.508  19.063  0.00  0.00    +0.000 C 
ENDBRANCH  11  13
ENDBRANCH   1  11
BRANCH   2  14
ATOM     14  C   UNL     1       4.302   5.752  16.262  0.00  0.00    +0.000 C 
BRANCH  14  15
ATOM     15  N   UNL     1       5.412   5.198  15.471  0.00  0.00    +0.000 N 
ATOM     16  C   UNL     1       5.313   4.453  14.321  0.00  0.00    +0.000 A 
ATOM     17  C   UNL     1       6.595   4.131  13.972  0.00  0.00    +0.000 A 
ATOM     18  N   UNL     1       7.477   4.689  14.847  0.00  0.00    +0.000 NA
ATOM     19  C   UNL     1       6.768   5.330  15.767  0.00  0.00    +0.000 A 
BRANCH  19  20
ATOM     20  C   UNL     1       7.357   6.024  16.927  0.00  0.00    +0.000 A 
ATOM     21  N   UNL     1       7.656   7.345  16.767  0.00  0.00    +0.000 NA
ATOM     22  C   UNL     1       8.128   8.014  17.844  0.00  0.00    +0.000 A 
ATOM     23  C   UNL     1       8.326   7.438  19.088  0.00  0.00    +0.000 A 
ATOM     24  C   UNL     1       8.043   6.086  19.234  0.00  0.00    +0.000 A 
ATOM     25  C   UNL     1       7.559   5.370  18.144  0.00  0.00    +0.000 A 
ATOM     26  F   UNL     1       7.293   4.067  18.313  0.00  0.00    +0.000 F 
ENDBRANCH  19  20
ENDBRANCH  14  15
ENDBRANCH   2  14
TORSDOF 5
ENDMDL
MODEL 6
REMARK VINA RESULT:      -7.6      2.573      6.820
REMARK  Name = 
REMARK  7 active torsions:
REMARK  status: ('A' for Active; 'I' for Inactive)
REMARK    1  A    between atoms: C_1  and  C_2
REMARK    2  A    between atoms: C_2  and  C_3
REMARK    3  A    between atoms: C_3  and  C_4
REMARK    4  A    between atoms: C_5  and  C_6
REMARK    5  A    between atoms: C_6  and  N_7
REMARK    6  A    between atoms: C_11  and  C_12
REMARK    7  A    between atoms: C_23  and  C_24
REMARK                            x       y       z     vdW  Elec       q    Type
REMARK                         _______ _______ _______ _____ _____    ______ ____
ROOT
ATOM      1  C   UNL     1       1.523   8.474  20.257  0.00  0.00    +0.000 A 
ATOM      2  C   UNL     1       2.178   7.602  19.430  0.00  0.00    +0.000 A 
ATOM      3  N   UNL     1       2.454   7.861  18.080  0.00  0.00    +0.000 NA
ATOM      4  C   UNL     1       2.141   9.022  17.593  0.00  0.00    +0.000 A 
ATOM      5  N   UNL     1       1.511   9.956  18.384  0.00  0.00    +0.000 N 
ATOM      6  N   UNL     1       1.134  11.172  17.955  0.00  0.00    +0.000 NA
ATOM      7  C   UNL     1       0.549  11.657  19.058  0.00  0.00    +0.000 A 
ATOM      8  C   UNL     1      -0.085  12.992  19.100  0.00  0.00    +0.000 C 
ATOM      9  N   UNL     1       0.556  10.811  20.145  0.00  0.00    +0.000 NA
ATOM     10  C   UNL     1       1.175   9.741  19.686  0.00  0.00    +0.000 A 
ENDROOT
BRANCH   1  11
ATOM     11  C   UNL     1       1.113   8.140  21.685  0.00  0.00    +0.000 C 
BRANCH  11  13
ATOM     12  C   UNL     1      -0.359   9.497  23.217  0.00  0.00    +0.000 C 
ATOM     13  C   UNL     1      -0.319   8.564  22.012  0.00  0.00    +0.000 C 
ENDBRANCH  11  13
ENDBRANCH   1  11
BRANCH   2  14
ATOM     14  C   UNL     1       2.660   6.216  19.870  0.00  0.00    +0.000 C 
BRANCH  14  15
ATOM     15  N   UNL     1       2.760   5.201  18.810  0.00  0.00    +0.000 N 
ATOM     16  C   UNL     1       1.757   4.375  18.364  0.00  0.00    +0.000 A 
ATOM     17  C   UNL     1       2.326   3.579  17.408  0.00  0.00    +0.000 A 
ATOM     18  N   UNL     1       3.631   3.919  17.225  0.00  0.00    +0.000 NA
ATOM     19  C   UNL     1       3.908   4.896  18.080  0.00  0.00    +0.000 A 
BRANCH  19  20
ATOM     20  C   UNL     1       5.241   5.507  18.232  0.00  0.00    +0.000 A 
ATOM     21  N   UNL     1       6.003   5.069  19.275  0.00  0.00    +0.000 NA
ATOM     22  C   UNL     1       7.257   5.566  19.385  0.00  0.00    +0.000 A 
ATOM     23  C   UNL     1       7.804   6.488  18.509  0.00  0.00    +0.000 A 
ATOM     24  C   UNL     1       7.011   6.947  17.465  0.00  0.00    +0.000 A 
ATOM     25  C   UNL     1       5.716   6.457  17.326  0.00  0.00    +0.000 A 
ATOM     26  F   UNL     1       4.974   6.916  16.309  0.00  0.00    +0.000 F 
ENDBRANCH  19  20
ENDBRANCH  14  15
ENDBRANCH   2  14
TORSDOF 5
ENDMDL
MODEL 7
REMARK VINA RESULT:      -7.4      2.055      6.589
REMARK  Name = 
REMARK  7 active torsions:
REMARK  status: ('A' for Active; 'I' for Inactive)
REMARK    1  A    between atoms: C_1  and  C_2
REMARK    2  A    between atoms: C_2  and  C_3
REMARK    3  A    between atoms: C_3  and  C_4
REMARK    4  A    between atoms: C_5  and  C_6
REMARK    5  A    between atoms: C_6  and  N_7
REMARK    6  A    between atoms: C_11  and  C_12
REMARK    7  A    between atoms: C_23  and  C_24
REMARK                            x       y       z     vdW  Elec       q    Type
REMARK                         _______ _______ _______ _____ _____    ______ ____
ROOT
ATOM      1  C   UNL     1       3.441   4.929  18.857  0.00  0.00    +0.000 A 
ATOM      2  C   UNL     1       4.096   5.061  17.663  0.00  0.00    +0.000 A 
ATOM      3  N   UNL     1       4.082   6.228  16.887  0.00  0.00    +0.000 NA
ATOM      4  C   UNL     1       3.476   7.277  17.353  0.00  0.00    +0.000 A 
ATOM      5  N   UNL     1       2.828   7.218  18.566  0.00  0.00    +0.000 N 
ATOM      6  N   UNL     1       2.161   8.249  19.110  0.00  0.00    +0.000 NA
ATOM      7  C   UNL     1       1.693   7.681  20.230  0.00  0.00    +0.000 A 
ATOM      8  C   UNL     1       0.836   8.407  21.192  0.00  0.00    +0.000 C 
ATOM      9  N   UNL     1       2.046   6.362  20.409  0.00  0.00    +0.000 NA
ATOM     10  C   UNL     1       2.768   6.097  19.337  0.00  0.00    +0.000 A 
ENDROOT
BRANCH   1  11
ATOM     11  C   UNL     1       3.353   3.621  19.634  0.00  0.00    +0.000 C 
BRANCH  11  13
ATOM     12  C   UNL     1       0.910   3.013  19.775  0.00  0.00    +0.000 C 
ATOM     13  C   UNL     1       2.250   2.694  19.121  0.00  0.00    +0.000 C 
ENDBRANCH  11  13
ENDBRANCH   1  11
BRANCH   2  14
ATOM     14  C   UNL     1       4.898   3.933  17.006  0.00  0.00    +0.000 C 
BRANCH  14  15
ATOM     15  N   UNL     1       5.663   4.299  15.804  0.00  0.00    +0.000 N 
ATOM     16  C   UNL     1       5.475   3.819  14.531  0.00  0.00    +0.000 A 
ATOM     17  C   UNL     1       6.440   4.409  13.763  0.00  0.00    +0.000 A 
ATOM     18  N   UNL     1       7.185   5.265  14.515  0.00  0.00    +0.000 NA
ATOM     19  C   UNL     1       6.728   5.198  15.759  0.00  0.00    +0.000 A 
BRANCH  19  20
ATOM     20  C   UNL     1       7.309   5.939  16.894  0.00  0.00    +0.000 A 
ATOM     21  N   UNL     1       7.408   7.292  16.757  0.00  0.00    +0.000 NA
ATOM     22  C   UNL     1       7.871   7.995  17.818  0.00  0.00    +0.000 A 
ATOM     23  C   UNL     1       8.249   7.422  19.020  0.00  0.00    +0.000 A 
ATOM     24  C   UNL     1       8.168   6.041  19.140  0.00  0.00    +0.000 A 
ATOM     25  C   UNL     1       7.699   5.290  18.066  0.00  0.00    +0.000 A 
ATOM     26  F   UNL     1       7.630   3.960  18.210  0.00  0.00    +0.000 F 
ENDBRANCH  19  20
ENDBRANCH  14  15
ENDBRANCH   2  14
TORSDOF 5
ENDMDL
MODEL 8
REMARK VINA RESULT:      -7.3      2.942      7.121
REMARK  Name = 
REMARK  7 active torsions:
REMARK  status: ('A' for Active; 'I' for Inactive)
REMARK    1  A    between atoms: C_1  and  C_2
REMARK    2  A    between atoms: C_2  and  C_3
REMARK    3  A    between atoms: C_3  and  C_4
REMARK    4  A    between atoms: C_5  and  C_6
REMARK    5  A    between atoms: C_6  and  N_7
REMARK    6  A    between atoms: C_11  and  C_12
REMARK    7  A    between atoms: C_23  and  C_24
REMARK                            x       y       z     vdW  Elec       q    Type
REMARK                         _______ _______ _______ _____ _____    ______ ____
ROOT
ATOM      1  C   UNL     1       2.081   7.396  19.834  0.00  0.00    +0.000 A 
ATOM      2  C   UNL     1       2.273   7.690  18.511  0.00  0.00    +0.000 A 
ATOM      3  N   UNL     1       1.690   8.785  17.860  0.00  0.00    +0.000 NA
ATOM      4  C   UNL     1       0.983   9.620  18.559  0.00  0.00    +0.000 A 
ATOM      5  N   UNL     1       0.782   9.398  19.902  0.00  0.00    +0.000 N 
ATOM      6  N   UNL     1       0.048  10.198  20.693  0.00  0.00    +0.000 NA
ATOM      7  C   UNL     1       0.128   9.541  21.858  0.00  0.00    +0.000 A 
ATOM      8  C   UNL     1      -0.563  10.003  23.081  0.00  0.00    +0.000 C 
ATOM      9  N   UNL     1       0.880   8.388  21.829  0.00  0.00    +0.000 NA
ATOM     10  C   UNL     1       1.283   8.325  20.575  0.00  0.00    +0.000 A 
ENDROOT
BRANCH   1  11
ATOM     11  C   UNL     1       2.613   6.137  20.507  0.00  0.00    +0.000 C 
BRANCH  11  13
ATOM     12  C   UNL     1       2.090   3.845  21.418  0.00  0.00    +0.000 C 
ATOM     13  C   UNL     1       1.508   5.155  20.897  0.00  0.00    +0.000 C 
ENDBRANCH  11  13
ENDBRANCH   1  11
BRANCH   2  14
ATOM     14  C   UNL     1       3.123   6.834  17.567  0.00  0.00    +0.000 C 
BRANCH  14  15
ATOM     15  N   UNL     1       2.933   5.379  17.667  0.00  0.00    +0.000 N 
ATOM     16  C   UNL     1       1.745   4.695  17.574  0.00  0.00    +0.000 A 
ATOM     17  C   UNL     1       2.055   3.378  17.769  0.00  0.00    +0.000 A 
ATOM     18  N   UNL     1       3.398   3.228  17.936  0.00  0.00    +0.000 NA
ATOM     19  C   UNL     1       3.939   4.439  17.887  0.00  0.00    +0.000 A 
BRANCH  19  20
ATOM     20  C   UNL     1       5.376   4.710  18.081  0.00  0.00    +0.000 A 
ATOM     21  N   UNL     1       5.741   5.265  19.272  0.00  0.00    +0.000 NA
ATOM     22  C   UNL     1       7.063   5.452  19.494  0.00  0.00    +0.000 A 
ATOM     23  C   UNL     1       8.055   5.117  18.589  0.00  0.00    +0.000 A 
ATOM     24  C   UNL     1       7.671   4.576  17.369  0.00  0.00    +0.000 A 
ATOM     25  C   UNL     1       6.319   4.374  17.109  0.00  0.00    +0.000 A 
ATOM     26  F   UNL     1       5.977   3.849  15.925  0.00  0.00    +0.000 F 
ENDBRANCH  19  20
ENDBRANCH  14  15
ENDBRANCH   2  14
TORSDOF 5
ENDMDL
MODEL 9
REMARK VINA RESULT:      -7.3      1.480      3.249
REMARK  Name = 
REMARK  7 active torsions:
REMARK  status: ('A' for Active; 'I' for Inactive)
REMARK    1  A    between atoms: C_1  and  C_2
REMARK    2  A    between atoms: C_2  and  C_3
REMARK    3  A    between atoms: C_3  and  C_4
REMARK    4  A    between atoms: C_5  and  C_6
REMARK    5  A    between atoms: C_6  and  N_7
REMARK    6  A    between atoms: C_11  and  C_12
REMARK    7  A    between atoms: C_23  and  C_24
REMARK                            x       y       z     vdW  Elec       q    Type
REMARK                         _______ _______ _______ _____ _____    ______ ____
ROOT
ATOM      1  C   UNL     1       6.032   5.904  16.492  0.00  0.00    +0.000 A 
ATOM      2  C   UNL     1       5.195   5.241  17.348  0.00  0.00    +0.000 A 
ATOM      3  N   UNL     1       4.594   4.009  17.057  0.00  0.00    +0.000 NA
ATOM      4  C   UNL     1       4.900   3.415  15.944  0.00  0.00    +0.000 A 
ATOM      5  N   UNL     1       5.765   4.015  15.057  0.00  0.00    +0.000 N 
ATOM      6  N   UNL     1       6.118   3.481  13.876  0.00  0.00    +0.000 NA
ATOM      7  C   UNL     1       6.913   4.444  13.393  0.00  0.00    +0.000 A 
ATOM      8  C   UNL     1       7.548   4.358  12.060  0.00  0.00    +0.000 C 
ATOM      9  N   UNL     1       7.078   5.536  14.216  0.00  0.00    +0.000 NA
ATOM     10  C   UNL     1       6.338   5.233  15.265  0.00  0.00    +0.000 A 
ENDROOT
BRANCH   1  11
ATOM     11  C   UNL     1       6.581   7.301  16.757  0.00  0.00    +0.000 C 
BRANCH  11  13
ATOM     12  C   UNL     1       8.236   8.721  18.022  0.00  0.00    +0.000 C 
ATOM     13  C   UNL     1       7.791   7.300  17.693  0.00  0.00    +0.000 C 
ENDBRANCH  11  13
ENDBRANCH   1  11
BRANCH   2  14
ATOM     14  C   UNL     1       4.780   5.784  18.718  0.00  0.00    +0.000 C 
BRANCH  14  15
ATOM     15  N   UNL     1       3.543   6.580  18.751  0.00  0.00    +0.000 N 
ATOM     16  C   UNL     1       3.380   7.867  18.301  0.00  0.00    +0.000 A 
ATOM     17  C   UNL     1       2.082   8.198  18.576  0.00  0.00    +0.000 A 
ATOM     18  N   UNL     1       1.435   7.142  19.141  0.00  0.00    +0.000 NA
ATOM     19  C   UNL     1       2.316   6.157  19.262  0.00  0.00    +0.000 A 
BRANCH  19  20
ATOM     20  C   UNL     1       2.018   4.853  19.882  0.00  0.00    +0.000 A 
ATOM     21  N   UNL     1       2.401   4.688  21.180  0.00  0.00    +0.000 NA
ATOM     22  C   UNL     1       2.069   3.524  21.786  0.00  0.00    +0.000 A 
ATOM     23  C   UNL     1       1.372   2.500  21.167  0.00  0.00    +0.000 A 
ATOM     24  C   UNL     1       1.009   2.668  19.837  0.00  0.00    +0.000 A 
ATOM     25  C   UNL     1       1.339   3.852  19.185  0.00  0.00    +0.000 A 
ATOM     26  F   UNL     1       0.975   3.989  17.903  0.00  0.00    +0.000 F 
ENDBRANCH  19  20
ENDBRANCH  14  15
ENDBRANCH   2  14
TORSDOF 5
ENDMDL
