MODEL 1
REMARK VINA RESULT:      -7.2      0.000      0.000
REMARK  Name = 
REMARK  10 active torsions:
REMARK  status: ('A' for Active; 'I' for Inactive)
REMARK    1  A    between atoms: C_1  and  C_2
REMARK    2  A    between atoms: C_5  and  C_6
REMARK    3  A    between atoms: C_9  and  C_10
REMARK    4  A    between atoms: C_10  and  O_11
REMARK    5  A    between atoms: C_10  and  C_12
REMARK    6  A    between atoms: C_12  and  C_13
REMARK    7  A    between atoms: C_13  and  C_14
REMARK    8  A    between atoms: C_14  and  C_15
REMARK    9  A    between atoms: C_15  and  C_16
REMARK   10  A    between atoms: C_16  and  O_17
REMARK                            x       y       z     vdW  Elec       q    Type
REMARK                         _______ _______ _______ _____ _____    ______ ____
ROOT
ATOM      1  C   UNL     1       3.484   6.783  17.790  0.00  0.00    +0.000 A 
ATOM      2  C   UNL     1       3.329   5.386  17.815  0.00  0.00    +0.000 A 
ATOM      3  C   UNL     1       4.231   4.538  17.165  0.00  0.00    +0.000 A 
ATOM      4  C   UNL     1       5.313   5.063  16.459  0.00  0.00    +0.000 A 
ATOM      5  C   UNL     1       5.479   6.456  16.420  0.00  0.00    +0.000 A 
ATOM      6  C   UNL     1       4.579   7.296  17.076  0.00  0.00    +0.000 A 
ENDROOT
BRANCH   1  11
ATOM      7  C   UNL     1      -0.268  10.251  20.555  0.00  0.00    +0.000 C 
ATOM      8  C   UNL     1       0.713   9.375  19.840  0.00  0.00    +0.000 A 
ATOM      9  C   UNL     1       1.072   9.628  18.517  0.00  0.00    +0.000 A 
ATOM     10  C   UNL     1       1.969   8.788  17.853  0.00  0.00    +0.000 A 
ATOM     11  C   UNL     1       2.546   7.680  18.497  0.00  0.00    +0.000 A 
ATOM     12  C   UNL     1       2.185   7.451  19.837  0.00  0.00    +0.000 A 
ATOM     13  C   UNL     1       1.276   8.280  20.497  0.00  0.00    +0.000 A 
ENDBRANCH   1  11
BRANCH   4  14
ATOM     14  C   UNL     1       6.303   4.147  15.775  0.00  0.00    +0.000 C 
BRANCH  14  15
ATOM     15  O   UNL     1       5.799   2.807  15.770  0.00  0.00    +0.000 OA
ATOM     16  H   UNL     1       5.853   2.475  14.858  0.00  0.00    +0.000 HD
ENDBRANCH  14  15
BRANCH  14  17
ATOM     17  C   UNL     1       6.587   4.541  14.321  0.00  0.00    +0.000 C 
BRANCH  17  18
ATOM     18  C   UNL     1       5.627   3.913  13.310  0.00  0.00    +0.000 C 
BRANCH  18  19
ATOM     19  C   UNL     1       6.419   3.200  12.216  0.00  0.00    +0.000 C 
BRANCH  19  20
ATOM     20  C   UNL     1       5.567   2.165  11.491  0.00  0.00    +0.000 C 
BRANCH  20  21
ATOM     21  C   UNL     1       6.435   1.074  10.879  0.00  0.00    +0.000 C 
BRANCH  21  22
ATOM     22  O   UNL     1       6.251  -0.141  11.591  0.00  0.00    +0.000 OA
ATOM     23  H   UNL     1       5.340  -0.144  11.933  0.00  0.00    +0.000 HD
ENDBRANCH  21  22
ENDBRANCH  20  21
ENDBRANCH  19  20
ENDBRANCH  18  19
ENDBRANCH  17  18
ENDBRANCH  14  17
ENDBRANCH   4  14
TORSDOF 9
ENDMDL
MODEL 2
REMARK VINA RESULT:      -7.0      3.335      4.798
REMARK  Name = 
REMARK  10 active torsions:
REMARK  status: ('A' for Active; 'I' for Inactive)
REMARK    1  A    between atoms: C_1  and  C_2
REMARK    2  A    between atoms: C_5  and  C_6
REMARK    3  A    between atoms: C_9  and  C_10
REMARK    4  A    between atoms: C_10  and  O_11
REMARK    5  A    between atoms: C_10  and  C_12
REMARK    6  A    between atoms: C_12  and  C_13
REMARK    7  A    between atoms: C_13  and  C_14
REMARK    8  A    between atoms: C_14  and  C_15
REMARK    9  A    between atoms: C_15  and  C_16
REMARK   10  A    between atoms: C_16  and  O_17
REMARK                            x       y       z     vdW  Elec       q    Type
REMARK                         _______ _______ _______ _____ _____    ______ ____
ROOT
ATOM      1  C   UNL     1       2.340   7.746  18.930  0.00  0.00    +0.000 A 
ATOM      2  C   UNL     1       3.117   7.803  17.759  0.00  0.00    +0.000 A 
ATOM      3  C   UNL     1       4.024   6.790  17.432  0.00  0.00    +0.000 A 
ATOM      4  C   UNL     1       4.189   5.690  18.274  0.00  0.00    +0.000 A 
ATOM      5  C   UNL     1       3.426   5.621  19.449  0.00  0.00    +0.000 A 
ATOM      6  C   UNL     1       2.518   6.631  19.765  0.00  0.00    +0.000 A 
ENDROOT
BRANCH   1  11
ATOM      7  C   UNL     1      -1.434  11.963  20.245  0.00  0.00    +0.000 C 
ATOM      8  C   UNL     1      -0.476  10.860  19.913  0.00  0.00    +0.000 A 
ATOM      9  C   UNL     1       0.016  10.012  20.905  0.00  0.00    +0.000 A 
ATOM     10  C   UNL     1       0.929   9.005  20.585  0.00  0.00    +0.000 A 
ATOM     11  C   UNL     1       1.364   8.803  19.264  0.00  0.00    +0.000 A 
ATOM     12  C   UNL     1       0.844   9.658  18.276  0.00  0.00    +0.000 A 
ATOM     13  C   UNL     1      -0.057  10.677  18.595  0.00  0.00    +0.000 A 
ENDBRANCH   1  11
BRANCH   4  14
ATOM     14  C   UNL     1       5.152   4.582  17.910  0.00  0.00    +0.000 C 
BRANCH  14  15
ATOM     15  O   UNL     1       5.525   3.859  19.088  0.00  0.00    +0.000 OA
ATOM     16  H   UNL     1       5.103   4.294  19.848  0.00  0.00    +0.000 HD
ENDBRANCH  14  15
BRANCH  14  17
ATOM     17  C   UNL     1       4.567   3.575  16.914  0.00  0.00    +0.000 C 
BRANCH  17  18
ATOM     18  C   UNL     1       3.083   3.275  17.135  0.00  0.00    +0.000 C 
BRANCH  18  19
ATOM     19  C   UNL     1       2.926   1.951  17.879  0.00  0.00    +0.000 C 
BRANCH  19  20
ATOM     20  C   UNL     1       2.236   2.142  19.224  0.00  0.00    +0.000 C 
BRANCH  20  21
ATOM     21  C   UNL     1       0.903   2.858  19.058  0.00  0.00    +0.000 C 
BRANCH  21  22
ATOM     22  O   UNL     1       0.450   3.328  20.319  0.00  0.00    +0.000 OA
ATOM     23  H   UNL     1       0.976   4.115  20.544  0.00  0.00    +0.000 HD
ENDBRANCH  21  22
ENDBRANCH  20  21
ENDBRANCH  19  20
ENDBRANCH  18  19
ENDBRANCH  17  18
ENDBRANCH  14  17
ENDBRANCH   4  14
TORSDOF 9
ENDMDL
MODEL 3
REMARK VINA RESULT:      -7.0      3.959      5.692
REMARK  Name = 
REMARK  10 active torsions:
REMARK  status: ('A' for Active; 'I' for Inactive)
REMARK    1  A    between atoms: C_1  and  C_2
REMARK    2  A    between atoms: C_5  and  C_6
REMARK    3  A    between atoms: C_9  and  C_10
REMARK    4  A    between atoms: C_10  and  O_11
REMARK    5  A    between atoms: C_10  and  C_12
REMARK    6  A    between atoms: C_12  and  C_13
REMARK    7  A    between atoms: C_13  and  C_14
REMARK    8  A    between atoms: C_14  and  C_15
REMARK    9  A    between atoms: C_15  and  C_16
REMARK   10  A    between atoms: C_16  and  O_17
REMARK                            x       y       z     vdW  Elec       q    Type
REMARK                         _______ _______ _______ _____ _____    ______ ____
ROOT
ATOM      1  C   UNL     1       1.382   8.451  20.054  0.00  0.00    +0.000 A 
ATOM      2  C   UNL     1       1.732   7.186  20.559  0.00  0.00    +0.000 A 
ATOM      3  C   UNL     1       2.485   6.280  19.805  0.00  0.00    +0.000 A 
ATOM      4  C   UNL     1       2.902   6.608  18.516  0.00  0.00    +0.000 A 
ATOM      5  C   UNL     1       2.556   7.864  17.995  0.00  0.00    +0.000 A 
ATOM      6  C   UNL     1       1.812   8.766  18.755  0.00  0.00    +0.000 A 
ENDROOT
BRANCH   1  11
ATOM      7  C   UNL     1      -1.587  12.301  23.234  0.00  0.00    +0.000 C 
ATOM      8  C   UNL     1      -0.839  11.295  22.416  0.00  0.00    +0.000 A 
ATOM      9  C   UNL     1      -0.508  10.045  22.939  0.00  0.00    +0.000 A 
ATOM     10  C   UNL     1       0.213   9.126  22.174  0.00  0.00    +0.000 A 
ATOM     11  C   UNL     1       0.608   9.420  20.858  0.00  0.00    +0.000 A 
ATOM     12  C   UNL     1       0.250  10.678  20.342  0.00  0.00    +0.000 A 
ATOM     13  C   UNL     1      -0.456  11.606  21.110  0.00  0.00    +0.000 A 
ENDBRANCH   1  11
BRANCH   4  14
ATOM     14  C   UNL     1       3.736   5.638  17.708  0.00  0.00    +0.000 C 
BRANCH  14  15
ATOM     15  O   UNL     1       5.125   5.939  17.873  0.00  0.00    +0.000 OA
ATOM     16  H   UNL     1       5.243   6.890  17.710  0.00  0.00    +0.000 HD
ENDBRANCH  14  15
BRANCH  14  17
ATOM     17  C   UNL     1       3.526   4.175  18.115  0.00  0.00    +0.000 C 
BRANCH  17  18
ATOM     18  C   UNL     1       2.339   3.504  17.424  0.00  0.00    +0.000 C 
BRANCH  18  19
ATOM     19  C   UNL     1       1.506   2.739  18.450  0.00  0.00    +0.000 C 
BRANCH  19  20
ATOM     20  C   UNL     1       2.229   2.625  19.787  0.00  0.00    +0.000 C 
BRANCH  20  21
ATOM     21  C   UNL     1       1.281   2.898  20.946  0.00  0.00    +0.000 C 
BRANCH  21  22
ATOM     22  O   UNL     1       1.988   2.812  22.175  0.00  0.00    +0.000 OA
ATOM     23  H   UNL     1       1.443   2.292  22.789  0.00  0.00    +0.000 HD
ENDBRANCH  21  22
ENDBRANCH  20  21
ENDBRANCH  19  20
ENDBRANCH  18  19
ENDBRANCH  17  18
ENDBRANCH  14  17
ENDBRANCH   4  14
TORSDOF 9
ENDMDL
MODEL 4
REMARK VINA RESULT:      -6.9      3.363      4.661
REMARK  Name = 
REMARK  10 active torsions:
REMARK  status: ('A' for Active; 'I' for Inactive)
REMARK    1  A    between atoms: C_1  and  C_2
REMARK    2  A    between atoms: C_5  and  C_6
REMARK    3  A    between atoms: C_9  and  C_10
REMARK    4  A    between atoms: C_10  and  O_11
REMARK    5  A    between atoms: C_10  and  C_12
REMARK    6  A    between atoms: C_12  and  C_13
REMARK    7  A    between atoms: C_13  and  C_14
REMARK    8  A    between atoms: C_14  and  C_15
REMARK    9  A    between atoms: C_15  and  C_16
REMARK   10  A    between atoms: C_16  and  O_17
REMARK                            x       y       z     vdW  Elec       q    Type
REMARK                         _______ _______ _______ _____ _____    ______ ____
ROOT
ATOM      1  C   UNL     1       2.341   7.661  18.994  0.00  0.00    +0.000 A 
ATOM      2  C   UNL     1       2.515   6.552  19.842  0.00  0.00    +0.000 A 
ATOM      3  C   UNL     1       3.407   5.523  19.526  0.00  0.00    +0.000 A 
ATOM      4  C   UNL     1       4.148   5.566  18.345  0.00  0.00    +0.000 A 
ATOM      5  C   UNL     1       3.981   6.663  17.485  0.00  0.00    +0.000 A 
ATOM      6  C   UNL     1       3.094   7.689  17.810  0.00  0.00    +0.000 A 
ENDROOT
BRANCH   1  11
ATOM      7  C   UNL     1      -1.360  11.932  20.344  0.00  0.00    +0.000 C 
ATOM      8  C   UNL     1      -0.391  10.846  19.989  0.00  0.00    +0.000 A 
ATOM      9  C   UNL     1       0.082  10.701  18.686  0.00  0.00    +0.000 A 
ATOM     10  C   UNL     1       0.965   9.668  18.364  0.00  0.00    +0.000 A 
ATOM     11  C   UNL     1       1.416   8.761  19.338  0.00  0.00    +0.000 A 
ATOM     12  C   UNL     1       0.942   8.935  20.651  0.00  0.00    +0.000 A 
ATOM     13  C   UNL     1       0.046   9.956  20.972  0.00  0.00    +0.000 A 
ENDBRANCH   1  11
BRANCH   4  14
ATOM     14  C   UNL     1       5.130   4.466  18.012  0.00  0.00    +0.000 C 
BRANCH  14  15
ATOM     15  O   UNL     1       5.448   3.726  19.196  0.00  0.00    +0.000 OA
ATOM     16  H   UNL     1       4.651   3.237  19.462  0.00  0.00    +0.000 HD
ENDBRANCH  14  15
BRANCH  14  17
ATOM     17  C   UNL     1       4.597   3.472  16.973  0.00  0.00    +0.000 C 
BRANCH  17  18
ATOM     18  C   UNL     1       3.074   3.338  16.969  0.00  0.00    +0.000 C 
BRANCH  18  19
ATOM     19  C   UNL     1       2.653   2.168  17.855  0.00  0.00    +0.000 C 
BRANCH  19  20
ATOM     20  C   UNL     1       1.352   2.463  18.592  0.00  0.00    +0.000 C 
BRANCH  20  21
ATOM     21  C   UNL     1       1.550   2.395  20.100  0.00  0.00    +0.000 C 
BRANCH  21  22
ATOM     22  O   UNL     1       0.695   3.331  20.739  0.00  0.00    +0.000 OA
ATOM     23  H   UNL     1      -0.219   3.110  20.490  0.00  0.00    +0.000 HD
ENDBRANCH  21  22
ENDBRANCH  20  21
ENDBRANCH  19  20
ENDBRANCH  18  19
ENDBRANCH  17  18
ENDBRANCH  14  17
ENDBRANCH   4  14
TORSDOF 9
ENDMDL
MODEL 5
REMARK VINA RESULT:      -6.9      3.648      5.148
REMARK  Name = 
REMARK  10 active torsions:
REMARK  status: ('A' for Active; 'I' for Inactive)
REMARK    1  A    between atoms: C_1  and  C_2
REMARK    2  A    between atoms: C_5  and  C_6
REMARK    3  A    between atoms: C_9  and  C_10
REMARK    4  A    between atoms: C_10  and  O_11
REMARK    5  A    between atoms: C_10  and  C_12
REMARK    6  A    between atoms: C_12  and  C_13
REMARK    7  A    between atoms: C_13  and  C_14
REMARK    8  A    between atoms: C_14  and  C_15
REMARK    9  A    between atoms: C_15  and  C_16
REMARK   10  A    between atoms: C_16  and  O_17
REMARK                            x       y       z     vdW  Elec       q    Type
REMARK                         _______ _______ _______ _____ _____    ______ ____
ROOT
ATOM      1  C   UNL     1       1.707   8.230  19.803  0.00  0.00    +0.000 A 
ATOM      2  C   UNL     1       2.094   8.621  18.509  0.00  0.00    +0.000 A 
ATOM      3  C   UNL     1       2.871   7.791  17.695  0.00  0.00    +0.000 A 
ATOM      4  C   UNL     1       3.294   6.544  18.155  0.00  0.00    +0.000 A 
ATOM      5  C   UNL     1       2.921   6.141  19.446  0.00  0.00    +0.000 A 
ATOM      6  C   UNL     1       2.140   6.971  20.250  0.00  0.00    +0.000 A 
ENDROOT
BRANCH   1  11
ATOM      7  C   UNL     1      -1.661  11.571  23.156  0.00  0.00    +0.000 C 
ATOM      8  C   UNL     1      -0.781  10.728  22.286  0.00  0.00    +0.000 A 
ATOM      9  C   UNL     1      -0.707  10.947  20.911  0.00  0.00    +0.000 A 
ATOM     10  C   UNL     1       0.098  10.136  20.107  0.00  0.00    +0.000 A 
ATOM     11  C   UNL     1       0.866   9.095  20.655  0.00  0.00    +0.000 A 
ATOM     12  C   UNL     1       0.791   8.901  22.047  0.00  0.00    +0.000 A 
ATOM     13  C   UNL     1      -0.026   9.699  22.850  0.00  0.00    +0.000 A 
ENDBRANCH   1  11
BRANCH   4  14
ATOM     14  C   UNL     1       4.114   5.635  17.267  0.00  0.00    +0.000 C 
BRANCH  14  15
ATOM     15  O   UNL     1       5.483   6.053  17.278  0.00  0.00    +0.000 OA
ATOM     16  H   UNL     1       6.029   5.283  17.045  0.00  0.00    +0.000 HD
ENDBRANCH  14  15
BRANCH  14  17
ATOM     17  C   UNL     1       4.074   4.166  17.704  0.00  0.00    +0.000 C 
BRANCH  17  18
ATOM     18  C   UNL     1       2.897   3.380  17.126  0.00  0.00    +0.000 C 
BRANCH  18  19
ATOM     19  C   UNL     1       2.723   2.069  17.889  0.00  0.00    +0.000 C 
BRANCH  19  20
ATOM     20  C   UNL     1       2.217   2.308  19.307  0.00  0.00    +0.000 C 
BRANCH  20  21
ATOM     21  C   UNL     1       0.757   2.739  19.301  0.00  0.00    +0.000 C 
BRANCH  21  22
ATOM     22  O   UNL     1       0.526   3.666  20.352  0.00  0.00    +0.000 OA
ATOM     23  H   UNL     1       0.071   3.189  21.068  0.00  0.00    +0.000 HD
ENDBRANCH  21  22
ENDBRANCH  20  21
ENDBRANCH  19  20
ENDBRANCH  18  19
ENDBRANCH  17  18
ENDBRANCH  14  17
ENDBRANCH   4  14
TORSDOF 9
ENDMDL
MODEL 6
REMARK VINA RESULT:      -6.9      0.664      1.597
REMARK  Name = 
REMARK  10 active torsions:
REMARK  status: ('A' for Active; 'I' for Inactive)
REMARK    1  A    between atoms: C_1  and  C_2
REMARK    2  A    between atoms: C_5  and  C_6
REMARK    3  A    between atoms: C_9  and  C_10
REMARK    4  A    between atoms: C_10  and  O_11
REMARK    5  A    between atoms: C_10  and  C_12
REMARK    6  A    between atoms: C_12  and  C_13
REMARK    7  A    between atoms: C_13  and  C_14
REMARK    8  A    between atoms: C_14  and  C_15
REMARK    9  A    between atoms: C_15  and  C_16
REMARK   10  A    between atoms: C_16  and  O_17
REMARK                            x       y       z     vdW  Elec       q    Type
REMARK                         _______ _______ _______ _____ _____    ______ ____
ROOT
ATOM      1  C   UNL     1       3.337   6.947  18.141  0.00  0.00    +0.000 A 
ATOM      2  C   UNL     1       4.149   7.382  17.078  0.00  0.00    +0.000 A 
ATOM      3  C   UNL     1       5.070   6.529  16.464  0.00  0.00    +0.000 A 
ATOM      4  C   UNL     1       5.216   5.212  16.902  0.00  0.00    +0.000 A 
ATOM      5  C   UNL     1       4.418   4.764  17.965  0.00  0.00    +0.000 A 
ATOM      6  C   UNL     1       3.496   5.619  18.569  0.00  0.00    +0.000 A 
ENDROOT
BRANCH   1  11
ATOM      7  C   UNL     1      -0.499  10.519  20.647  0.00  0.00    +0.000 C 
ATOM      8  C   UNL     1       0.476   9.581  20.005  0.00  0.00    +0.000 A 
ATOM      9  C   UNL     1       1.034   8.522  20.721  0.00  0.00    +0.000 A 
ATOM     10  C   UNL     1       1.962   7.671  20.117  0.00  0.00    +0.000 A 
ATOM     11  C   UNL     1       2.346   7.841  18.775  0.00  0.00    +0.000 A 
ATOM     12  C   UNL     1       1.759   8.904  18.065  0.00  0.00    +0.000 A 
ATOM     13  C   UNL     1       0.844   9.767  18.672  0.00  0.00    +0.000 A 
ENDBRANCH   1  11
BRANCH   4  14
ATOM     14  C   UNL     1       6.195   4.281  16.223  0.00  0.00    +0.000 C 
BRANCH  14  15
ATOM     15  O   UNL     1       5.652   2.958  16.176  0.00  0.00    +0.000 OA
ATOM     16  H   UNL     1       4.930   2.911  16.826  0.00  0.00    +0.000 HD
ENDBRANCH  14  15
BRANCH  14  17
ATOM     17  C   UNL     1       6.530   4.697  14.787  0.00  0.00    +0.000 C 
BRANCH  17  18
ATOM     18  C   UNL     1       5.516   4.212  13.749  0.00  0.00    +0.000 C 
BRANCH  18  19
ATOM     19  C   UNL     1       6.231   3.432  12.649  0.00  0.00    +0.000 C 
BRANCH  19  20
ATOM     20  C   UNL     1       5.249   2.646  11.789  0.00  0.00    +0.000 C 
BRANCH  20  21
ATOM     21  C   UNL     1       5.913   1.417  11.185  0.00  0.00    +0.000 C 
BRANCH  21  22
ATOM     22  O   UNL     1       7.324   1.525  11.306  0.00  0.00    +0.000 OA
ATOM     23  H   UNL     1       7.715   0.765  10.841  0.00  0.00    +0.000 HD
ENDBRANCH  21  22
ENDBRANCH  20  21
ENDBRANCH  19  20
ENDBRANCH  18  19
ENDBRANCH  17  18
ENDBRANCH  14  17
ENDBRANCH   4  14
TORSDOF 9
ENDMDL
MODEL 7
REMARK VINA RESULT:      -6.9      3.450      4.832
REMARK  Name = 
REMARK  10 active torsions:
REMARK  status: ('A' for Active; 'I' for Inactive)
REMARK    1  A    between atoms: C_1  and  C_2
REMARK    2  A    between atoms: C_5  and  C_6
REMARK    3  A    between atoms: C_9  and  C_10
REMARK    4  A    between atoms: C_10  and  O_11
REMARK    5  A    between atoms: C_10  and  C_12
REMARK    6  A    between atoms: C_12  and  C_13
REMARK    7  A    between atoms: C_13  and  C_14
REMARK    8  A    between atoms: C_14  and  C_15
REMARK    9  A    between atoms: C_15  and  C_16
REMARK   10  A    between atoms: C_16  and  O_17
REMARK                            x       y       z     vdW  Elec       q    Type
REMARK                         _______ _______ _______ _____ _____    ______ ____
ROOT
ATOM      1  C   UNL     1       2.259   7.879  18.929  0.00  0.00    +0.000 A 
ATOM      2  C   UNL     1       3.043   7.908  17.761  0.00  0.00    +0.000 A 
ATOM      3  C   UNL     1       3.944   6.883  17.459  0.00  0.00    +0.000 A 
ATOM      4  C   UNL     1       4.098   5.798  18.323  0.00  0.00    +0.000 A 
ATOM      5  C   UNL     1       3.327   5.757  19.495  0.00  0.00    +0.000 A 
ATOM      6  C   UNL     1       2.425   6.779  19.787  0.00  0.00    +0.000 A 
ENDROOT
BRANCH   1  11
ATOM      7  C   UNL     1      -1.621  12.027  20.147  0.00  0.00    +0.000 C 
ATOM      8  C   UNL     1      -0.607  10.974  19.825  0.00  0.00    +0.000 A 
ATOM      9  C   UNL     1      -0.191  10.753  18.513  0.00  0.00    +0.000 A 
ATOM     10  C   UNL     1       0.736   9.750  18.223  0.00  0.00    +0.000 A 
ATOM     11  C   UNL     1       1.288   8.949  19.238  0.00  0.00    +0.000 A 
ATOM     12  C   UNL     1       0.869   9.198  20.557  0.00  0.00    +0.000 A 
ATOM     13  C   UNL     1      -0.070  10.190  20.847  0.00  0.00    +0.000 A 
ENDBRANCH   1  11
BRANCH   4  14
ATOM     14  C   UNL     1       5.055   4.677  17.986  0.00  0.00    +0.000 C 
BRANCH  14  15
ATOM     15  O   UNL     1       5.511   4.051  19.190  0.00  0.00    +0.000 OA
ATOM     16  H   UNL     1       6.478   4.147  19.225  0.00  0.00    +0.000 HD
ENDBRANCH  14  15
BRANCH  14  17
ATOM     17  C   UNL     1       4.427   3.589  17.107  0.00  0.00    +0.000 C 
BRANCH  17  18
ATOM     18  C   UNL     1       2.903   3.513  17.209  0.00  0.00    +0.000 C 
BRANCH  18  19
ATOM     19  C   UNL     1       2.491   2.186  17.841  0.00  0.00    +0.000 C 
BRANCH  19  20
ATOM     20  C   UNL     1       1.183   2.314  18.614  0.00  0.00    +0.000 C 
BRANCH  20  21
ATOM     21  C   UNL     1       1.443   2.647  20.076  0.00  0.00    +0.000 C 
BRANCH  21  22
ATOM     22  O   UNL     1       0.570   3.687  20.494  0.00  0.00    +0.000 OA
ATOM     23  H   UNL     1       0.760   4.466  19.944  0.00  0.00    +0.000 HD
ENDBRANCH  21  22
ENDBRANCH  20  21
ENDBRANCH  19  20
ENDBRANCH  18  19
ENDBRANCH  17  18
ENDBRANCH  14  17
ENDBRANCH   4  14
TORSDOF 9
ENDMDL
MODEL 8
REMARK VINA RESULT:      -6.9      1.235      1.733
REMARK  Name = 
REMARK  10 active torsions:
REMARK  status: ('A' for Active; 'I' for Inactive)
REMARK    1  A    between atoms: C_1  and  C_2
REMARK    2  A    between atoms: C_5  and  C_6
REMARK    3  A    between atoms: C_9  and  C_10
REMARK    4  A    between atoms: C_10  and  O_11
REMARK    5  A    between atoms: C_10  and  C_12
REMARK    6  A    between atoms: C_12  and  C_13
REMARK    7  A    between atoms: C_13  and  C_14
REMARK    8  A    between atoms: C_14  and  C_15
REMARK    9  A    between atoms: C_15  and  C_16
REMARK   10  A    between atoms: C_16  and  O_17
REMARK                            x       y       z     vdW  Elec       q    Type
REMARK                         _______ _______ _______ _____ _____    ______ ____
ROOT
ATOM      1  C   UNL     1       3.473   6.720  17.793  0.00  0.00    +0.000 A 
ATOM      2  C   UNL     1       3.303   5.324  17.819  0.00  0.00    +0.000 A 
ATOM      3  C   UNL     1       4.203   4.465  17.181  0.00  0.00    +0.000 A 
ATOM      4  C   UNL     1       5.299   4.978  16.487  0.00  0.00    +0.000 A 
ATOM      5  C   UNL     1       5.479   6.369  16.446  0.00  0.00    +0.000 A 
ATOM      6  C   UNL     1       4.581   7.220  17.090  0.00  0.00    +0.000 A 
ENDROOT
BRANCH   1  11
ATOM      7  C   UNL     1      -0.146  10.345  20.536  0.00  0.00    +0.000 C 
ATOM      8  C   UNL     1       0.772   9.394  19.832  0.00  0.00    +0.000 A 
ATOM      9  C   UNL     1       1.292   8.278  20.487  0.00  0.00    +0.000 A 
ATOM     10  C   UNL     1       2.168   7.414  19.826  0.00  0.00    +0.000 A 
ATOM     11  C   UNL     1       2.536   7.628  18.487  0.00  0.00    +0.000 A 
ATOM     12  C   UNL     1       1.987   8.749  17.838  0.00  0.00    +0.000 A 
ATOM     13  C   UNL     1       1.125   9.624  18.501  0.00  0.00    +0.000 A 
ENDBRANCH   1  11
BRANCH   4  14
ATOM     14  C   UNL     1       6.287   4.050  15.816  0.00  0.00    +0.000 C 
BRANCH  14  15
ATOM     15  O   UNL     1       5.797   2.706  15.863  0.00  0.00    +0.000 OA
ATOM     16  H   UNL     1       5.664   2.408  14.947  0.00  0.00    +0.000 HD
ENDBRANCH  14  15
BRANCH  14  17
ATOM     17  C   UNL     1       6.543   4.400  14.345  0.00  0.00    +0.000 C 
BRANCH  17  18
ATOM     18  C   UNL     1       5.398   4.012  13.408  0.00  0.00    +0.000 C 
BRANCH  18  19
ATOM     19  C   UNL     1       5.947   3.243  12.209  0.00  0.00    +0.000 C 
BRANCH  19  20
ATOM     20  C   UNL     1       4.826   2.673  11.348  0.00  0.00    +0.000 C 
BRANCH  20  21
ATOM     21  C   UNL     1       3.901   3.776  10.854  0.00  0.00    +0.000 C 
BRANCH  21  22
ATOM     22  O   UNL     1       2.937   3.232   9.964  0.00  0.00    +0.000 OA
ATOM     23  H   UNL     1       2.280   3.926   9.785  0.00  0.00    +0.000 HD
ENDBRANCH  21  22
ENDBRANCH  20  21
ENDBRANCH  19  20
ENDBRANCH  18  19
ENDBRANCH  17  18
ENDBRANCH  14  17
ENDBRANCH   4  14
TORSDOF 9
ENDMDL
MODEL 9
REMARK VINA RESULT:      -6.9      4.620      9.010
REMARK  Name = 
REMARK  10 active torsions:
REMARK  status: ('A' for Active; 'I' for Inactive)
REMARK    1  A    between atoms: C_1  and  C_2
REMARK    2  A    between atoms: C_5  and  C_6
REMARK    3  A    between atoms: C_9  and  C_10
REMARK    4  A    between atoms: C_10  and  O_11
REMARK    5  A    between atoms: C_10  and  C_12
REMARK    6  A    between atoms: C_12  and  C_13
REMARK    7  A    between atoms: C_13  and  C_14
REMARK    8  A    between atoms: C_14  and  C_15
REMARK    9  A    between atoms: C_15  and  C_16
REMARK   10  A    between atoms: C_16  and  O_17
REMARK                            x       y       z     vdW  Elec       q    Type
REMARK                         _______ _______ _______ _____ _____    ______ ____
ROOT
ATOM      1  C   UNL     1       2.340   7.702  18.548  0.00  0.00    +0.000 A 
ATOM      2  C   UNL     1       1.796   8.817  17.886  0.00  0.00    +0.000 A 
ATOM      3  C   UNL     1       1.005   9.754  18.558  0.00  0.00    +0.000 A 
ATOM      4  C   UNL     1       0.723   9.598  19.915  0.00  0.00    +0.000 A 
ATOM      5  C   UNL     1       1.253   8.487  20.589  0.00  0.00    +0.000 A 
ATOM      6  C   UNL     1       2.048   7.561  19.914  0.00  0.00    +0.000 A 
ENDROOT
BRANCH   1  11
ATOM      7  C   UNL     1       5.751   3.845  15.858  0.00  0.00    +0.000 C 
ATOM      8  C   UNL     1       4.866   4.848  16.531  0.00  0.00    +0.000 A 
ATOM      9  C   UNL     1       5.105   6.216  16.407  0.00  0.00    +0.000 A 
ATOM     10  C   UNL     1       4.287   7.140  17.062  0.00  0.00    +0.000 A 
ATOM     11  C   UNL     1       3.196   6.725  17.845  0.00  0.00    +0.000 A 
ATOM     12  C   UNL     1       2.961   5.342  17.944  0.00  0.00    +0.000 A 
ATOM     13  C   UNL     1       3.787   4.416  17.303  0.00  0.00    +0.000 A 
ENDBRANCH   1  11
BRANCH   4  14
ATOM     14  C   UNL     1      -0.114  10.622  20.649  0.00  0.00    +0.000 C 
BRANCH  14  15
ATOM     15  O   UNL     1       0.624  11.145  21.758  0.00  0.00    +0.000 OA
ATOM     16  H   UNL     1       0.980  10.391  22.258  0.00  0.00    +0.000 HD
ENDBRANCH  14  15
BRANCH  14  17
ATOM     17  C   UNL     1      -0.530  11.806  19.769  0.00  0.00    +0.000 C 
BRANCH  17  18
ATOM     18  C   UNL     1      -2.022  11.835  19.436  0.00  0.00    +0.000 C 
BRANCH  18  19
ATOM     19  C   UNL     1      -2.218  11.775  17.923  0.00  0.00    +0.000 C 
BRANCH  19  20
ATOM     20  C   UNL     1      -2.679  10.395  17.471  0.00  0.00    +0.000 C 
BRANCH  20  21
ATOM     21  C   UNL     1      -2.601  10.260  15.957  0.00  0.00    +0.000 C 
BRANCH  21  22
ATOM     22  O   UNL     1      -3.044  11.463  15.345  0.00  0.00    +0.000 OA
ATOM     23  H   UNL     1      -2.254  11.978  15.109  0.00  0.00    +0.000 HD
ENDBRANCH  21  22
ENDBRANCH  20  21
ENDBRANCH  19  20
ENDBRANCH  18  19
ENDBRANCH  17  18
ENDBRANCH  14  17
ENDBRANCH   4  14
TORSDOF 9
ENDMDL
