MODEL 1
REMARK VINA RESULT:      -8.0      0.000      0.000
REMARK  Name = 
REMARK  6 active torsions:
REMARK  status: ('A' for Active; 'I' for Inactive)
REMARK    1  A    between atoms: C_1  and  C_2
REMARK    2  A    between atoms: C_2  and  O_3
REMARK    3  A    between atoms: O_3  and  C_4
REMARK    4  A    between atoms: C_9  and  C_10
REMARK    5  A    between atoms: N_14  and  C_15
REMARK    6  A    between atoms: N_25  and  C_26
REMARK                            x       y       z     vdW  Elec       q    Type
REMARK                         _______ _______ _______ _____ _____    ______ ____
ROOT
ATOM      1  C   UNL     1       1.023  11.407  18.842  0.00  0.00    +0.000 C 
ATOM      2  C   UNL     1       1.877  12.361  19.667  0.00  0.00    +0.000 C 
ATOM      3  C   UNL     1       2.024  13.644  18.910  0.00  0.00    +0.000 C 
ATOM      4  O   UNL     1       2.772  13.734  17.944  0.00  0.00    +0.000 OA
ATOM      5  N   UNL     1       1.274  14.637  19.494  0.00  0.00    +0.000 N 
ATOM      6  C   UNL     1       0.915  14.276  20.770  0.00  0.00    +0.000 C 
ATOM      7  O   UNL     1       0.515  14.973  21.697  0.00  0.00    +0.000 OA
ATOM      8  C   UNL     1       1.032  12.771  20.846  0.00  0.00    +0.000 C 
ATOM      9  O   UNL     1      -0.293  12.284  20.651  0.00  0.00    +0.000 OA
ATOM     10  N   UNL     1      -0.318  11.667  19.391  0.00  0.00    +0.000 N 
ENDROOT
BRANCH   1  16
ATOM     11  C   UNL     1       1.335   9.219  20.202  0.00  0.00    +0.000 A 
ATOM     12  C   UNL     1       1.685   7.854  20.218  0.00  0.00    +0.000 A 
ATOM     13  C   UNL     1       2.275   7.244  19.116  0.00  0.00    +0.000 A 
ATOM     14  C   UNL     1       2.470   7.969  17.954  0.00  0.00    +0.000 A 
ATOM     15  C   UNL     1       2.024   9.286  17.879  0.00  0.00    +0.000 A 
ATOM     16  C   UNL     1       1.448   9.943  18.989  0.00  0.00    +0.000 A 
BRANCH  11  17
ATOM     17  O   UNL     1       0.942   9.878  21.355  0.00  0.00    +0.000 OA
BRANCH  17  19
ATOM     18  C   UNL     1      -0.729  10.005  23.173  0.00  0.00    +0.000 C 
ATOM     19  C   UNL     1       0.013   9.135  22.175  0.00  0.00    +0.000 C 
ENDBRANCH  17  19
ENDBRANCH  11  17
ENDBRANCH   1  16
BRANCH   5  20
ATOM     20  C   UNL     1       0.891  15.838  18.834  0.00  0.00    +0.000 A 
ATOM     21  C   UNL     1       1.885  16.657  18.272  0.00  0.00    +0.000 A 
ATOM     22  C   UNL     1       1.562  17.772  17.497  0.00  0.00    +0.000 A 
ATOM     23  C   UNL     1       0.225  18.106  17.280  0.00  0.00    +0.000 A 
ATOM     24  C   UNL     1      -0.770  17.315  17.842  0.00  0.00    +0.000 A 
ATOM     25  C   UNL     1      -0.446  16.188  18.602  0.00  0.00    +0.000 A 
ENDBRANCH   5  20
BRANCH  10  26
ATOM     26  C   UNL     1      -1.530  11.326  18.801  0.00  0.00    +0.000 A 
ATOM     27  C   UNL     1      -1.571  10.306  17.832  0.00  0.00    +0.000 A 
ATOM     28  C   UNL     1      -2.757   9.955  17.183  0.00  0.00    +0.000 A 
ATOM     29  C   UNL     1      -3.932  10.637  17.477  0.00  0.00    +0.000 A 
ATOM     30  C   UNL     1      -3.919  11.649  18.431  0.00  0.00    +0.000 A 
ATOM     31  C   UNL     1      -2.732  11.977  19.097  0.00  0.00    +0.000 A 
ENDBRANCH  10  26
TORSDOF 5
ENDMDL
MODEL 2
REMARK VINA RESULT:      -8.0      0.136      1.227
REMARK  Name = 
REMARK  6 active torsions:
REMARK  status: ('A' for Active; 'I' for Inactive)
REMARK    1  A    between atoms: C_1  and  C_2
REMARK    2  A    between atoms: C_2  and  O_3
REMARK    3  A    between atoms: O_3  and  C_4
REMARK    4  A    between atoms: C_9  and  C_10
REMARK    5  A    between atoms: N_14  and  C_15
REMARK    6  A    between atoms: N_25  and  C_26
REMARK                            x       y       z     vdW  Elec       q    Type
REMARK                         _______ _______ _______ _____ _____    ______ ____
ROOT
ATOM      1  C   UNL     1       1.010  11.369  18.840  0.00  0.00    +0.000 C 
ATOM      2  C   UNL     1       1.832  12.344  19.674  0.00  0.00    +0.000 C 
ATOM      3  C   UNL     1       2.021  13.602  18.885  0.00  0.00    +0.000 C 
ATOM      4  O   UNL     1       2.813  13.659  17.952  0.00  0.00    +0.000 OA
ATOM      5  N   UNL     1       1.251  14.616  19.403  0.00  0.00    +0.000 N 
ATOM      6  C   UNL     1       0.832  14.297  20.672  0.00  0.00    +0.000 C 
ATOM      7  O   UNL     1       0.394  15.024  21.557  0.00  0.00    +0.000 OA
ATOM      8  C   UNL     1       0.936  12.794  20.800  0.00  0.00    +0.000 C 
ATOM      9  O   UNL     1      -0.382  12.308  20.559  0.00  0.00    +0.000 OA
ATOM     10  N   UNL     1      -0.353  11.652  19.318  0.00  0.00    +0.000 N 
ENDROOT
BRANCH   1  16
ATOM     11  C   UNL     1       1.305   9.242  20.297  0.00  0.00    +0.000 A 
ATOM     12  C   UNL     1       1.639   7.875  20.373  0.00  0.00    +0.000 A 
ATOM     13  C   UNL     1       2.215   7.208  19.296  0.00  0.00    +0.000 A 
ATOM     14  C   UNL     1       2.411   7.877  18.102  0.00  0.00    +0.000 A 
ATOM     15  C   UNL     1       1.980   9.194  17.969  0.00  0.00    +0.000 A 
ATOM     16  C   UNL     1       1.418   9.908  19.052  0.00  0.00    +0.000 A 
BRANCH  11  17
ATOM     17  O   UNL     1       0.927   9.957  21.421  0.00  0.00    +0.000 OA
BRANCH  17  19
ATOM     18  C   UNL     1      -0.806  10.099  23.178  0.00  0.00    +0.000 C 
ATOM     19  C   UNL     1       0.105   9.215  22.347  0.00  0.00    +0.000 C 
ENDBRANCH  17  19
ENDBRANCH  11  17
ENDBRANCH   1  16
BRANCH   5  20
ATOM     20  C   UNL     1       0.906  15.798  18.690  0.00  0.00    +0.000 A 
ATOM     21  C   UNL     1      -0.449  16.153  18.569  0.00  0.00    +0.000 A 
ATOM     22  C   UNL     1      -0.839  17.367  18.002  0.00  0.00    +0.000 A 
ATOM     23  C   UNL     1       0.125  18.254  17.523  0.00  0.00    +0.000 A 
ATOM     24  C   UNL     1       1.468  17.911  17.621  0.00  0.00    +0.000 A 
ATOM     25  C   UNL     1       1.859  16.704  18.206  0.00  0.00    +0.000 A 
ENDBRANCH   5  20
BRANCH  10  26
ATOM     26  C   UNL     1      -1.538  11.298  18.684  0.00  0.00    +0.000 A 
ATOM     27  C   UNL     1      -2.733  11.959  19.022  0.00  0.00    +0.000 A 
ATOM     28  C   UNL     1      -3.956  11.612  18.441  0.00  0.00    +0.000 A 
ATOM     29  C   UNL     1      -4.011  10.575  17.518  0.00  0.00    +0.000 A 
ATOM     30  C   UNL     1      -2.844   9.906  17.166  0.00  0.00    +0.000 A 
ATOM     31  C   UNL     1      -1.618  10.277  17.731  0.00  0.00    +0.000 A 
ENDBRANCH  10  26
TORSDOF 5
ENDMDL
MODEL 3
REMARK VINA RESULT:      -8.0      1.370      2.953
REMARK  Name = 
REMARK  6 active torsions:
REMARK  status: ('A' for Active; 'I' for Inactive)
REMARK    1  A    between atoms: C_1  and  C_2
REMARK    2  A    between atoms: C_2  and  O_3
REMARK    3  A    between atoms: O_3  and  C_4
REMARK    4  A    between atoms: C_9  and  C_10
REMARK    5  A    between atoms: N_14  and  C_15
REMARK    6  A    between atoms: N_25  and  C_26
REMARK                            x       y       z     vdW  Elec       q    Type
REMARK                         _______ _______ _______ _____ _____    ______ ____
ROOT
ATOM      1  C   UNL     1      -0.139  12.510  20.298  0.00  0.00    +0.000 C 
ATOM      2  C   UNL     1       0.324  13.755  21.044  0.00  0.00    +0.000 C 
ATOM      3  C   UNL     1       1.042  14.647  20.080  0.00  0.00    +0.000 C 
ATOM      4  O   UNL     1       2.179  14.394  19.700  0.00  0.00    +0.000 OA
ATOM      5  N   UNL     1       0.275  15.747  19.779  0.00  0.00    +0.000 N 
ATOM      6  C   UNL     1      -0.734  15.893  20.701  0.00  0.00    +0.000 C 
ATOM      7  O   UNL     1      -1.426  16.873  20.954  0.00  0.00    +0.000 OA
ATOM      8  C   UNL     1      -0.920  14.546  21.359  0.00  0.00    +0.000 C 
ATOM      9  O   UNL     1      -2.024  13.951  20.682  0.00  0.00    +0.000 OA
ATOM     10  N   UNL     1      -1.510  12.890  19.919  0.00  0.00    +0.000 N 
ENDROOT
BRANCH   1  16
ATOM     11  C   UNL     1       0.499  10.031  20.729  0.00  0.00    +0.000 A 
ATOM     12  C   UNL     1       0.553   8.944  21.623  0.00  0.00    +0.000 A 
ATOM     13  C   UNL     1      -0.090   8.984  22.855  0.00  0.00    +0.000 A 
ATOM     14  C   UNL     1      -0.749  10.136  23.246  0.00  0.00    +0.000 A 
ATOM     15  C   UNL     1      -0.715  11.262  22.428  0.00  0.00    +0.000 A 
ATOM     16  C   UNL     1      -0.095  11.244  21.159  0.00  0.00    +0.000 A 
BRANCH  11  17
ATOM     17  O   UNL     1       0.957   9.922  19.427  0.00  0.00    +0.000 OA
BRANCH  17  19
ATOM     18  C   UNL     1       2.160   8.600  17.718  0.00  0.00    +0.000 C 
ATOM     19  C   UNL     1       1.708   8.716  19.162  0.00  0.00    +0.000 C 
ENDBRANCH  17  19
ENDBRANCH  11  17
ENDBRANCH   1  16
BRANCH   5  20
ATOM     20  C   UNL     1       0.481  16.574  18.639  0.00  0.00    +0.000 A 
ATOM     21  C   UNL     1      -0.628  17.185  18.028  0.00  0.00    +0.000 A 
ATOM     22  C   UNL     1      -0.475  18.112  16.996  0.00  0.00    +0.000 A 
ATOM     23  C   UNL     1       0.801  18.439  16.536  0.00  0.00    +0.000 A 
ATOM     24  C   UNL     1       1.907  17.831  17.119  0.00  0.00    +0.000 A 
ATOM     25  C   UNL     1       1.754  16.918  18.166  0.00  0.00    +0.000 A 
ENDBRANCH   5  20
BRANCH  10  26
ATOM     26  C   UNL     1      -2.294  12.282  18.946  0.00  0.00    +0.000 A 
ATOM     27  C   UNL     1      -3.682  12.165  19.142  0.00  0.00    +0.000 A 
ATOM     28  C   UNL     1      -4.506  11.526  18.212  0.00  0.00    +0.000 A 
ATOM     29  C   UNL     1      -3.951  10.969  17.066  0.00  0.00    +0.000 A 
ATOM     30  C   UNL     1      -2.581  11.071  16.847  0.00  0.00    +0.000 A 
ATOM     31  C   UNL     1      -1.765  11.737  17.770  0.00  0.00    +0.000 A 
ENDBRANCH  10  26
TORSDOF 5
ENDMDL
MODEL 4
REMARK VINA RESULT:      -8.0      2.104      4.569
REMARK  Name = 
REMARK  6 active torsions:
REMARK  status: ('A' for Active; 'I' for Inactive)
REMARK    1  A    between atoms: C_1  and  C_2
REMARK    2  A    between atoms: C_2  and  O_3
REMARK    3  A    between atoms: O_3  and  C_4
REMARK    4  A    between atoms: C_9  and  C_10
REMARK    5  A    between atoms: N_14  and  C_15
REMARK    6  A    between atoms: N_25  and  C_26
REMARK                            x       y       z     vdW  Elec       q    Type
REMARK                         _______ _______ _______ _____ _____    ______ ____
ROOT
ATOM      1  C   UNL     1      -0.877  12.610  19.275  0.00  0.00    +0.000 C 
ATOM      2  C   UNL     1      -0.095  13.541  18.356  0.00  0.00    +0.000 C 
ATOM      3  C   UNL     1       0.122  14.840  19.068  0.00  0.00    +0.000 C 
ATOM      4  O   UNL     1      -0.784  15.654  19.201  0.00  0.00    +0.000 OA
ATOM      5  N   UNL     1       1.435  14.965  19.454  0.00  0.00    +0.000 N 
ATOM      6  C   UNL     1       2.220  14.066  18.774  0.00  0.00    +0.000 C 
ATOM      7  O   UNL     1       3.436  14.054  18.613  0.00  0.00    +0.000 OA
ATOM      8  C   UNL     1       1.300  12.976  18.273  0.00  0.00    +0.000 C 
ATOM      9  O   UNL     1       1.424  11.919  19.221  0.00  0.00    +0.000 OA
ATOM     10  N   UNL     1       0.210  11.859  19.923  0.00  0.00    +0.000 N 
ENDROOT
BRANCH   1  16
ATOM     11  C   UNL     1      -3.258  11.760  18.688  0.00  0.00    +0.000 A 
ATOM     12  C   UNL     1      -4.075  10.932  17.893  0.00  0.00    +0.000 A 
ATOM     13  C   UNL     1      -3.531   9.961  17.058  0.00  0.00    +0.000 A 
ATOM     14  C   UNL     1      -2.157   9.839  16.954  0.00  0.00    +0.000 A 
ATOM     15  C   UNL     1      -1.331  10.725  17.642  0.00  0.00    +0.000 A 
ATOM     16  C   UNL     1      -1.852  11.703  18.519  0.00  0.00    +0.000 A 
BRANCH  11  17
ATOM     17  O   UNL     1      -3.793  12.580  19.667  0.00  0.00    +0.000 OA
BRANCH  17  19
ATOM     18  C   UNL     1      -5.823  12.388  21.065  0.00  0.00    +0.000 C 
ATOM     19  C   UNL     1      -5.237  12.617  19.684  0.00  0.00    +0.000 C 
ENDBRANCH  17  19
ENDBRANCH  11  17
ENDBRANCH   1  16
BRANCH   5  20
ATOM     20  C   UNL     1       1.888  15.868  20.456  0.00  0.00    +0.000 A 
ATOM     21  C   UNL     1       2.108  15.389  21.759  0.00  0.00    +0.000 A 
ATOM     22  C   UNL     1       2.681  16.193  22.746  0.00  0.00    +0.000 A 
ATOM     23  C   UNL     1       3.034  17.510  22.454  0.00  0.00    +0.000 A 
ATOM     24  C   UNL     1       2.808  18.004  21.174  0.00  0.00    +0.000 A 
ATOM     25  C   UNL     1       2.252  17.193  20.181  0.00  0.00    +0.000 A 
ENDBRANCH   5  20
BRANCH  10  26
ATOM     26  C   UNL     1       0.111  11.107  21.089  0.00  0.00    +0.000 A 
ATOM     27  C   UNL     1       0.974  10.015  21.289  0.00  0.00    +0.000 A 
ATOM     28  C   UNL     1       0.886   9.206  22.425  0.00  0.00    +0.000 A 
ATOM     29  C   UNL     1      -0.088   9.464  23.382  0.00  0.00    +0.000 A 
ATOM     30  C   UNL     1      -0.954  10.539  23.209  0.00  0.00    +0.000 A 
ATOM     31  C   UNL     1      -0.842  11.361  22.082  0.00  0.00    +0.000 A 
ENDBRANCH  10  26
TORSDOF 5
ENDMDL
MODEL 5
REMARK VINA RESULT:      -7.9      2.092      4.615
REMARK  Name = 
REMARK  6 active torsions:
REMARK  status: ('A' for Active; 'I' for Inactive)
REMARK    1  A    between atoms: C_1  and  C_2
REMARK    2  A    between atoms: C_2  and  O_3
REMARK    3  A    between atoms: O_3  and  C_4
REMARK    4  A    between atoms: C_9  and  C_10
REMARK    5  A    between atoms: N_14  and  C_15
REMARK    6  A    between atoms: N_25  and  C_26
REMARK                            x       y       z     vdW  Elec       q    Type
REMARK                         _______ _______ _______ _____ _____    ______ ____
ROOT
ATOM      1  C   UNL     1      -0.901  12.563  19.260  0.00  0.00    +0.000 C 
ATOM      2  C   UNL     1      -0.135  13.529  18.365  0.00  0.00    +0.000 C 
ATOM      3  C   UNL     1       0.084  14.804  19.119  0.00  0.00    +0.000 C 
ATOM      4  O   UNL     1      -0.824  15.608  19.292  0.00  0.00    +0.000 OA
ATOM      5  N   UNL     1       1.401  14.923  19.494  0.00  0.00    +0.000 N 
ATOM      6  C   UNL     1       2.183  14.052  18.773  0.00  0.00    +0.000 C 
ATOM      7  O   UNL     1       3.396  14.053  18.597  0.00  0.00    +0.000 OA
ATOM      8  C   UNL     1       1.262  12.975  18.245  0.00  0.00    +0.000 C 
ATOM      9  O   UNL     1       1.403  11.887  19.154  0.00  0.00    +0.000 OA
ATOM     10  N   UNL     1       0.198  11.795  19.869  0.00  0.00    +0.000 N 
ENDROOT
BRANCH   1  16
ATOM     11  C   UNL     1      -3.285  11.735  18.658  0.00  0.00    +0.000 A 
ATOM     12  C   UNL     1      -4.107  10.929  17.845  0.00  0.00    +0.000 A 
ATOM     13  C   UNL     1      -3.568   9.977  16.986  0.00  0.00    +0.000 A 
ATOM     14  C   UNL     1      -2.195   9.853  16.876  0.00  0.00    +0.000 A 
ATOM     15  C   UNL     1      -1.365  10.719  17.583  0.00  0.00    +0.000 A 
ATOM     16  C   UNL     1      -1.880  11.677  18.485  0.00  0.00    +0.000 A 
BRANCH  11  17
ATOM     17  O   UNL     1      -3.816  12.533  19.657  0.00  0.00    +0.000 OA
BRANCH  17  19
ATOM     18  C   UNL     1      -5.933  12.271  20.907  0.00  0.00    +0.000 C 
ATOM     19  C   UNL     1      -5.254  12.665  19.609  0.00  0.00    +0.000 C 
ENDBRANCH  17  19
ENDBRANCH  11  17
ENDBRANCH   1  16
BRANCH   5  20
ATOM     20  C   UNL     1       1.862  15.793  20.521  0.00  0.00    +0.000 A 
ATOM     21  C   UNL     1       2.321  17.076  20.176  0.00  0.00    +0.000 A 
ATOM     22  C   UNL     1       2.654  18.019  21.150  0.00  0.00    +0.000 A 
ATOM     23  C   UNL     1       2.553  17.691  22.501  0.00  0.00    +0.000 A 
ATOM     24  C   UNL     1       2.116  16.421  22.859  0.00  0.00    +0.000 A 
ATOM     25  C   UNL     1       1.763  15.483  21.885  0.00  0.00    +0.000 A 
ENDBRANCH   5  20
BRANCH  10  26
ATOM     26  C   UNL     1       0.117  11.003  21.008  0.00  0.00    +0.000 A 
ATOM     27  C   UNL     1      -0.842  11.297  21.995  0.00  0.00    +0.000 A 
ATOM     28  C   UNL     1      -0.936  10.555  23.175  0.00  0.00    +0.000 A 
ATOM     29  C   UNL     1      -0.051   9.507  23.403  0.00  0.00    +0.000 A 
ATOM     30  C   UNL     1       0.907   9.196  22.443  0.00  0.00    +0.000 A 
ATOM     31  C   UNL     1       0.977   9.926  21.251  0.00  0.00    +0.000 A 
ENDBRANCH  10  26
TORSDOF 5
ENDMDL
MODEL 6
REMARK VINA RESULT:      -7.9      2.379      4.557
REMARK  Name = 
REMARK  6 active torsions:
REMARK  status: ('A' for Active; 'I' for Inactive)
REMARK    1  A    between atoms: C_1  and  C_2
REMARK    2  A    between atoms: C_2  and  O_3
REMARK    3  A    between atoms: O_3  and  C_4
REMARK    4  A    between atoms: C_9  and  C_10
REMARK    5  A    between atoms: N_14  and  C_15
REMARK    6  A    between atoms: N_25  and  C_26
REMARK                            x       y       z     vdW  Elec       q    Type
REMARK                         _______ _______ _______ _____ _____    ______ ____
ROOT
ATOM      1  C   UNL     1       0.401  13.406  21.181  0.00  0.00    +0.000 C 
ATOM      2  C   UNL     1       0.658  14.907  21.240  0.00  0.00    +0.000 C 
ATOM      3  C   UNL     1       2.137  15.137  21.244  0.00  0.00    +0.000 C 
ATOM      4  O   UNL     1       2.813  14.934  22.246  0.00  0.00    +0.000 OA
ATOM      5  N   UNL     1       2.550  15.639  20.033  0.00  0.00    +0.000 N 
ATOM      6  C   UNL     1       1.476  16.119  19.323  0.00  0.00    +0.000 C 
ATOM      7  O   UNL     1       1.450  16.885  18.367  0.00  0.00    +0.000 OA
ATOM      8  C   UNL     1       0.244  15.458  19.899  0.00  0.00    +0.000 C 
ATOM      9  O   UNL     1      -0.038  14.370  19.023  0.00  0.00    +0.000 OA
ATOM     10  N   UNL     1       0.250  13.192  19.732  0.00  0.00    +0.000 N 
ENDROOT
BRANCH   1  16
ATOM     11  C   UNL     1      -0.931  11.745  22.665  0.00  0.00    +0.000 A 
ATOM     12  C   UNL     1      -2.086  11.475  23.425  0.00  0.00    +0.000 A 
ATOM     13  C   UNL     1      -3.191  12.320  23.391  0.00  0.00    +0.000 A 
ATOM     14  C   UNL     1      -3.141  13.484  22.646  0.00  0.00    +0.000 A 
ATOM     15  C   UNL     1      -1.966  13.828  21.982  0.00  0.00    +0.000 A 
ATOM     16  C   UNL     1      -0.838  12.978  21.973  0.00  0.00    +0.000 A 
BRANCH  11  17
ATOM     17  O   UNL     1       0.083  10.811  22.533  0.00  0.00    +0.000 OA
BRANCH  17  19
ATOM     18  C   UNL     1       0.027   8.563  21.506  0.00  0.00    +0.000 C 
ATOM     19  C   UNL     1      -0.349   9.442  22.684  0.00  0.00    +0.000 C 
ENDBRANCH  17  19
ENDBRANCH  11  17
ENDBRANCH   1  16
BRANCH   5  20
ATOM     20  C   UNL     1       3.898  15.610  19.577  0.00  0.00    +0.000 A 
ATOM     21  C   UNL     1       4.268  14.671  18.598  0.00  0.00    +0.000 A 
ATOM     22  C   UNL     1       5.535  14.685  18.014  0.00  0.00    +0.000 A 
ATOM     23  C   UNL     1       6.475  15.635  18.412  0.00  0.00    +0.000 A 
ATOM     24  C   UNL     1       6.130  16.561  19.390  0.00  0.00    +0.000 A 
ATOM     25  C   UNL     1       4.855  16.559  19.961  0.00  0.00    +0.000 A 
ENDBRANCH   5  20
BRANCH  10  26
ATOM     26  C   UNL     1       0.328  11.974  19.067  0.00  0.00    +0.000 A 
ATOM     27  C   UNL     1      -0.852  11.328  18.657  0.00  0.00    +0.000 A 
ATOM     28  C   UNL     1      -0.828  10.084  18.021  0.00  0.00    +0.000 A 
ATOM     29  C   UNL     1       0.388   9.447  17.798  0.00  0.00    +0.000 A 
ATOM     30  C   UNL     1       1.569  10.065  18.193  0.00  0.00    +0.000 A 
ATOM     31  C   UNL     1       1.539  11.323  18.805  0.00  0.00    +0.000 A 
ENDBRANCH  10  26
TORSDOF 5
ENDMDL
MODEL 7
REMARK VINA RESULT:      -7.9      1.174      2.538
REMARK  Name = 
REMARK  6 active torsions:
REMARK  status: ('A' for Active; 'I' for Inactive)
REMARK    1  A    between atoms: C_1  and  C_2
REMARK    2  A    between atoms: C_2  and  O_3
REMARK    3  A    between atoms: O_3  and  C_4
REMARK    4  A    between atoms: C_9  and  C_10
REMARK    5  A    between atoms: N_14  and  C_15
REMARK    6  A    between atoms: N_25  and  C_26
REMARK                            x       y       z     vdW  Elec       q    Type
REMARK                         _______ _______ _______ _____ _____    ______ ____
ROOT
ATOM      1  C   UNL     1       0.232  12.168  19.916  0.00  0.00    +0.000 C 
ATOM      2  C   UNL     1       1.012  13.269  20.624  0.00  0.00    +0.000 C 
ATOM      3  C   UNL     1       1.512  14.235  19.595  0.00  0.00    +0.000 C 
ATOM      4  O   UNL     1       2.461  13.962  18.870  0.00  0.00    +0.000 OA
ATOM      5  N   UNL     1       0.806  15.413  19.657  0.00  0.00    +0.000 N 
ATOM      6  C   UNL     1       0.122  15.498  20.846  0.00  0.00    +0.000 C 
ATOM      7  O   UNL     1      -0.367  16.477  21.398  0.00  0.00    +0.000 OA
ATOM      8  C   UNL     1      -0.004  14.088  21.377  0.00  0.00    +0.000 C 
ATOM      9  O   UNL     1      -1.310  13.662  20.996  0.00  0.00    +0.000 OA
ATOM     10  N   UNL     1      -1.144  12.684  20.002  0.00  0.00    +0.000 N 
ENDROOT
BRANCH   1  16
ATOM     11  C   UNL     1       1.090   9.720  19.982  0.00  0.00    +0.000 A 
ATOM     12  C   UNL     1       1.244   8.521  20.706  0.00  0.00    +0.000 A 
ATOM     13  C   UNL     1       0.603   8.321  21.924  0.00  0.00    +0.000 A 
ATOM     14  C   UNL     1      -0.155   9.339  22.474  0.00  0.00    +0.000 A 
ATOM     15  C   UNL     1      -0.223  10.573  21.832  0.00  0.00    +0.000 A 
ATOM     16  C   UNL     1       0.392  10.798  20.580  0.00  0.00    +0.000 A 
BRANCH  11  17
ATOM     17  O   UNL     1       1.553   9.845  18.683  0.00  0.00    +0.000 OA
BRANCH  17  19
ATOM     18  C   UNL     1       3.006   8.069  17.762  0.00  0.00    +0.000 C 
ATOM     19  C   UNL     1       1.597   8.603  17.947  0.00  0.00    +0.000 C 
ENDBRANCH  17  19
ENDBRANCH  11  17
ENDBRANCH   1  16
BRANCH   5  20
ATOM     20  C   UNL     1       0.761  16.370  18.606  0.00  0.00    +0.000 A 
ATOM     21  C   UNL     1      -0.484  16.874  18.191  0.00  0.00    +0.000 A 
ATOM     22  C   UNL     1      -0.581  17.912  17.264  0.00  0.00    +0.000 A 
ATOM     23  C   UNL     1       0.574  18.463  16.711  0.00  0.00    +0.000 A 
ATOM     24  C   UNL     1       1.814  17.965  17.098  0.00  0.00    +0.000 A 
ATOM     25  C   UNL     1       1.911  16.939  18.042  0.00  0.00    +0.000 A 
ENDBRANCH   5  20
BRANCH  10  26
ATOM     26  C   UNL     1      -2.231  12.264  19.244  0.00  0.00    +0.000 A 
ATOM     27  C   UNL     1      -2.021  11.753  17.950  0.00  0.00    +0.000 A 
ATOM     28  C   UNL     1      -3.084  11.356  17.134  0.00  0.00    +0.000 A 
ATOM     29  C   UNL     1      -4.390  11.481  17.594  0.00  0.00    +0.000 A 
ATOM     30  C   UNL     1      -4.625  11.983  18.869  0.00  0.00    +0.000 A 
ATOM     31  C   UNL     1      -3.554  12.353  19.691  0.00  0.00    +0.000 A 
ENDBRANCH  10  26
TORSDOF 5
ENDMDL
MODEL 8
REMARK VINA RESULT:      -7.9      2.030      3.498
REMARK  Name = 
REMARK  6 active torsions:
REMARK  status: ('A' for Active; 'I' for Inactive)
REMARK    1  A    between atoms: C_1  and  C_2
REMARK    2  A    between atoms: C_2  and  O_3
REMARK    3  A    between atoms: O_3  and  C_4
REMARK    4  A    between atoms: C_9  and  C_10
REMARK    5  A    between atoms: N_14  and  C_15
REMARK    6  A    between atoms: N_25  and  C_26
REMARK                            x       y       z     vdW  Elec       q    Type
REMARK                         _______ _______ _______ _____ _____    ______ ____
ROOT
ATOM      1  C   UNL     1      -0.343  12.623  20.629  0.00  0.00    +0.000 C 
ATOM      2  C   UNL     1       1.041  13.242  20.489  0.00  0.00    +0.000 C 
ATOM      3  C   UNL     1       1.072  14.063  19.238  0.00  0.00    +0.000 C 
ATOM      4  O   UNL     1       1.143  13.540  18.132  0.00  0.00    +0.000 OA
ATOM      5  N   UNL     1       1.072  15.404  19.540  0.00  0.00    +0.000 N 
ATOM      6  C   UNL     1       1.408  15.596  20.858  0.00  0.00    +0.000 C 
ATOM      7  O   UNL     1       1.797  16.611  21.426  0.00  0.00    +0.000 OA
ATOM      8  C   UNL     1       1.146  14.289  21.570  0.00  0.00    +0.000 C 
ATOM      9  O   UNL     1      -0.133  14.447  22.179  0.00  0.00    +0.000 OA
ATOM     10  N   UNL     1      -1.021  13.611  21.483  0.00  0.00    +0.000 N 
ENDROOT
BRANCH   1  16
ATOM     11  C   UNL     1      -0.080  10.044  20.506  0.00  0.00    +0.000 A 
ATOM     12  C   UNL     1      -0.000   8.812  21.185  0.00  0.00    +0.000 A 
ATOM     13  C   UNL     1      -0.292   8.709  22.541  0.00  0.00    +0.000 A 
ATOM     14  C   UNL     1      -0.610   9.847  23.260  0.00  0.00    +0.000 A 
ATOM     15  C   UNL     1      -0.579  11.091  22.634  0.00  0.00    +0.000 A 
ATOM     16  C   UNL     1      -0.314  11.225  21.253  0.00  0.00    +0.000 A 
BRANCH  11  17
ATOM     17  O   UNL     1       0.007  10.117  19.126  0.00  0.00    +0.000 OA
BRANCH  17  19
ATOM     18  C   UNL     1       1.648   8.796  17.832  0.00  0.00    +0.000 C 
ATOM     19  C   UNL     1       1.356  10.064  18.613  0.00  0.00    +0.000 C 
ENDBRANCH  17  19
ENDBRANCH  11  17
ENDBRANCH   1  16
BRANCH   5  20
ATOM     20  C   UNL     1       0.719  16.428  18.617  0.00  0.00    +0.000 A 
ATOM     21  C   UNL     1      -0.617  16.862  18.555  0.00  0.00    +0.000 A 
ATOM     22  C   UNL     1      -0.995  17.954  17.772  0.00  0.00    +0.000 A 
ATOM     23  C   UNL     1      -0.041  18.630  17.013  0.00  0.00    +0.000 A 
ATOM     24  C   UNL     1       1.282  18.204  17.051  0.00  0.00    +0.000 A 
ATOM     25  C   UNL     1       1.664  17.123  17.850  0.00  0.00    +0.000 A 
ENDBRANCH   5  20
BRANCH  10  26
ATOM     26  C   UNL     1      -2.393  13.738  21.667  0.00  0.00    +0.000 A 
ATOM     27  C   UNL     1      -3.252  13.705  20.553  0.00  0.00    +0.000 A 
ATOM     28  C   UNL     1      -4.634  13.868  20.684  0.00  0.00    +0.000 A 
ATOM     29  C   UNL     1      -5.186  14.090  21.940  0.00  0.00    +0.000 A 
ATOM     30  C   UNL     1      -4.360  14.127  23.057  0.00  0.00    +0.000 A 
ATOM     31  C   UNL     1      -2.980  13.935  22.922  0.00  0.00    +0.000 A 
ENDBRANCH  10  26
TORSDOF 5
ENDMDL
MODEL 9
REMARK VINA RESULT:      -7.8      1.563      3.018
REMARK  Name = 
REMARK  6 active torsions:
REMARK  status: ('A' for Active; 'I' for Inactive)
REMARK    1  A    between atoms: C_1  and  C_2
REMARK    2  A    between atoms: C_2  and  O_3
REMARK    3  A    between atoms: O_3  and  C_4
REMARK    4  A    between atoms: C_9  and  C_10
REMARK    5  A    between atoms: N_14  and  C_15
REMARK    6  A    between atoms: N_25  and  C_26
REMARK                            x       y       z     vdW  Elec       q    Type
REMARK                         _______ _______ _______ _____ _____    ______ ____
ROOT
ATOM      1  C   UNL     1      -0.242  12.608  20.322  0.00  0.00    +0.000 C 
ATOM      2  C   UNL     1       0.906  13.514  20.749  0.00  0.00    +0.000 C 
ATOM      3  C   UNL     1       1.313  14.352  19.577  0.00  0.00    +0.000 C 
ATOM      4  O   UNL     1       1.965  13.882  18.652  0.00  0.00    +0.000 OA
ATOM      5  N   UNL     1       0.908  15.653  19.750  0.00  0.00    +0.000 N 
ATOM      6  C   UNL     1       0.586  15.882  21.067  0.00  0.00    +0.000 C 
ATOM      7  O   UNL     1       0.471  16.944  21.670  0.00  0.00    +0.000 OA
ATOM      8  C   UNL     1       0.311  14.533  21.689  0.00  0.00    +0.000 C 
ATOM      9  O   UNL     1      -1.108  14.398  21.672  0.00  0.00    +0.000 OA
ATOM     10  N   UNL     1      -1.411  13.407  20.724  0.00  0.00    +0.000 N 
ENDROOT
BRANCH   1  16
ATOM     11  C   UNL     1       0.044  10.029  20.298  0.00  0.00    +0.000 A 
ATOM     12  C   UNL     1       0.130   8.824  21.022  0.00  0.00    +0.000 A 
ATOM     13  C   UNL     1      -0.170   8.770  22.380  0.00  0.00    +0.000 A 
ATOM     14  C   UNL     1      -0.501   9.931  23.054  0.00  0.00    +0.000 A 
ATOM     15  C   UNL     1      -0.477  11.150  22.382  0.00  0.00    +0.000 A 
ATOM     16  C   UNL     1      -0.205  11.235  20.999  0.00  0.00    +0.000 A 
BRANCH  11  17
ATOM     17  O   UNL     1       0.139  10.051  18.916  0.00  0.00    +0.000 OA
BRANCH  17  19
ATOM     18  C   UNL     1       1.909   8.759  17.771  0.00  0.00    +0.000 C 
ATOM     19  C   UNL     1       1.494  10.069  18.416  0.00  0.00    +0.000 C 
ENDBRANCH  17  19
ENDBRANCH  11  17
ENDBRANCH   1  16
BRANCH   5  20
ATOM     20  C   UNL     1       0.793  16.599  18.693  0.00  0.00    +0.000 A 
ATOM     21  C   UNL     1       1.954  17.013  18.017  0.00  0.00    +0.000 A 
ATOM     22  C   UNL     1       1.890  17.830  16.888  0.00  0.00    +0.000 A 
ATOM     23  C   UNL     1       0.654  18.270  16.415  0.00  0.00    +0.000 A 
ATOM     24  C   UNL     1      -0.503  17.883  17.082  0.00  0.00    +0.000 A 
ATOM     25  C   UNL     1      -0.439  17.049  18.201  0.00  0.00    +0.000 A 
ENDBRANCH   5  20
BRANCH  10  26
ATOM     26  C   UNL     1      -2.719  13.231  20.288  0.00  0.00    +0.000 A 
ATOM     27  C   UNL     1      -3.742  14.046  20.806  0.00  0.00    +0.000 A 
ATOM     28  C   UNL     1      -5.077  13.881  20.429  0.00  0.00    +0.000 A 
ATOM     29  C   UNL     1      -5.421  12.875  19.532  0.00  0.00    +0.000 A 
ATOM     30  C   UNL     1      -4.428  12.056  19.005  0.00  0.00    +0.000 A 
ATOM     31  C   UNL     1      -3.089  12.245  19.366  0.00  0.00    +0.000 A 
ENDBRANCH  10  26
TORSDOF 5
ENDMDL
