MODEL 1
REMARK VINA RESULT:      -6.6      0.000      0.000
REMARK  Name = 
REMARK  4 active torsions:
REMARK  status: ('A' for Active; 'I' for Inactive)
REMARK    1  A    between atoms: C_1  and  O_2
REMARK    2  A    between atoms: O_2  and  C_3
REMARK    3  A    between atoms: C_9  and  N_10
REMARK    4  A    between atoms: C_11  and  S_12
REMARK                            x       y       z     vdW  Elec       q    Type
REMARK                         _______ _______ _______ _____ _____    ______ ____
ROOT
ATOM      1  N   UNL     1       4.509   3.695  17.691  0.00  0.00    +0.000 NA
ATOM      2  C   UNL     1       3.655   4.485  18.267  0.00  0.00    +0.000 C 
ATOM      3  N   UNL     1       2.871   4.020  19.311  0.00  0.00    +0.000 N 
ATOM      4  C   UNL     1       1.421   3.818  19.088  0.00  0.00    +0.000 C 
ATOM      5  C   UNL     1       0.706   3.731  20.447  0.00  0.00    +0.000 C 
ATOM      6  O   UNL     1       1.254   2.683  21.266  0.00  0.00    +0.000 OA
ATOM      7  C   UNL     1       2.658   2.897  21.479  0.00  0.00    +0.000 C 
ATOM      8  C   UNL     1       3.418   2.932  20.147  0.00  0.00    +0.000 C 
ENDROOT
BRANCH   1  15
ATOM      9  C   UNL     1       6.698   4.695  16.944  0.00  0.00    +0.000 A 
ATOM     10  C   UNL     1       7.501   5.058  15.847  0.00  0.00    +0.000 A 
ATOM     11  C   UNL     1       7.096   4.780  14.541  0.00  0.00    +0.000 A 
ATOM     12  C   UNL     1       5.902   4.107  14.326  0.00  0.00    +0.000 A 
ATOM     13 CL   UNL     1       5.362   3.814  12.716  0.00  0.00    +0.000 Cl
ATOM     14  C   UNL     1       5.121   3.703  15.405  0.00  0.00    +0.000 A 
ATOM     15  C   UNL     1       5.495   3.984  16.733  0.00  0.00    +0.000 A 
BRANCH   9  17
ATOM     16  C   UNL     1       7.595   6.282  18.483  0.00  0.00    +0.000 C 
ATOM     17  O   UNL     1       7.019   5.003  18.242  0.00  0.00    +0.000 OA
ENDBRANCH   9  17
ENDBRANCH   1  15
BRANCH   2  18
ATOM     18  S   UNL     1       3.463   6.206  17.978  0.00  0.00    +0.000 S 
ATOM     19  H   UNL     1       3.409   6.574  19.261  0.00  0.00    +0.000 HD
ENDBRANCH   2  18
TORSDOF 3
ENDMDL
MODEL 2
REMARK VINA RESULT:      -6.0      2.843      6.162
REMARK  Name = 
REMARK  4 active torsions:
REMARK  status: ('A' for Active; 'I' for Inactive)
REMARK    1  A    between atoms: C_1  and  O_2
REMARK    2  A    between atoms: O_2  and  C_3
REMARK    3  A    between atoms: C_9  and  N_10
REMARK    4  A    between atoms: C_11  and  S_12
REMARK                            x       y       z     vdW  Elec       q    Type
REMARK                         _______ _______ _______ _____ _____    ______ ____
ROOT
ATOM      1  N   UNL     1       5.061   3.759  16.401  0.00  0.00    +0.000 NA
ATOM      2  C   UNL     1       5.383   4.795  15.687  0.00  0.00    +0.000 C 
ATOM      3  N   UNL     1       5.903   4.628  14.413  0.00  0.00    +0.000 N 
ATOM      4  C   UNL     1       7.332   4.935  14.173  0.00  0.00    +0.000 C 
ATOM      5  C   UNL     1       7.567   5.100  12.662  0.00  0.00    +0.000 C 
ATOM      6  O   UNL     1       7.160   3.929  11.932  0.00  0.00    +0.000 OA
ATOM      7  C   UNL     1       5.772   3.649  12.170  0.00  0.00    +0.000 C 
ATOM      8  C   UNL     1       5.505   3.420  13.663  0.00  0.00    +0.000 C 
ENDROOT
BRANCH   1  15
ATOM      9  C   UNL     1       4.971   3.795  18.919  0.00  0.00    +0.000 A 
ATOM     10  C   UNL     1       4.195   3.529  20.062  0.00  0.00    +0.000 A 
ATOM     11  C   UNL     1       2.872   3.101  19.945  0.00  0.00    +0.000 A 
ATOM     12  C   UNL     1       2.307   2.968  18.685  0.00  0.00    +0.000 A 
ATOM     13 CL   UNL     1       0.695   2.381  18.528  0.00  0.00    +0.000 Cl
ATOM     14  C   UNL     1       3.049   3.272  17.549  0.00  0.00    +0.000 A 
ATOM     15  C   UNL     1       4.392   3.691  17.633  0.00  0.00    +0.000 A 
BRANCH   9  17
ATOM     16  C   UNL     1       6.586   5.497  19.348  0.00  0.00    +0.000 C 
ATOM     17  O   UNL     1       6.294   4.155  18.978  0.00  0.00    +0.000 OA
ENDBRANCH   9  17
ENDBRANCH   1  15
BRANCH   2  18
ATOM     18  S   UNL     1       5.087   6.477  16.093  0.00  0.00    +0.000 S 
ATOM     19  H   UNL     1       5.122   6.947  14.843  0.00  0.00    +0.000 HD
ENDBRANCH   2  18
TORSDOF 3
ENDMDL
MODEL 3
REMARK VINA RESULT:      -5.9      3.263      3.660
REMARK  Name = 
REMARK  4 active torsions:
REMARK  status: ('A' for Active; 'I' for Inactive)
REMARK    1  A    between atoms: C_1  and  O_2
REMARK    2  A    between atoms: O_2  and  C_3
REMARK    3  A    between atoms: C_9  and  N_10
REMARK    4  A    between atoms: C_11  and  S_12
REMARK                            x       y       z     vdW  Elec       q    Type
REMARK                         _______ _______ _______ _____ _____    ______ ____
ROOT
ATOM      1  N   UNL     1       4.247   6.601  17.843  0.00  0.00    +0.000 NA
ATOM      2  C   UNL     1       3.086   6.394  18.387  0.00  0.00    +0.000 C 
ATOM      3  N   UNL     1       2.259   7.463  18.696  0.00  0.00    +0.000 N 
ATOM      4  C   UNL     1       2.044   7.820  20.117  0.00  0.00    +0.000 C 
ATOM      5  C   UNL     1       0.796   8.711  20.231  0.00  0.00    +0.000 C 
ATOM      6  O   UNL     1       0.911   9.890  19.415  0.00  0.00    +0.000 OA
ATOM      7  C   UNL     1       1.114   9.528  18.040  0.00  0.00    +0.000 C 
ATOM      8  C   UNL     1       2.384   8.684  17.874  0.00  0.00    +0.000 C 
ENDROOT
BRANCH   1  15
ATOM      9  C   UNL     1       6.396   5.288  17.898  0.00  0.00    +0.000 A 
ATOM     10  C   UNL     1       7.296   4.492  17.166  0.00  0.00    +0.000 A 
ATOM     11  C   UNL     1       7.023   4.134  15.845  0.00  0.00    +0.000 A 
ATOM     12  C   UNL     1       5.834   4.543  15.259  0.00  0.00    +0.000 A 
ATOM     13 CL   UNL     1       5.515   4.161  13.610  0.00  0.00    +0.000 Cl
ATOM     14  C   UNL     1       4.915   5.292  15.988  0.00  0.00    +0.000 A 
ATOM     15  C   UNL     1       5.169   5.683  17.318  0.00  0.00    +0.000 A 
BRANCH   9  17
ATOM     16  C   UNL     1       8.004   5.736  19.603  0.00  0.00    +0.000 C 
ATOM     17  O   UNL     1       6.647   5.720  19.176  0.00  0.00    +0.000 OA
ENDBRANCH   9  17
ENDBRANCH   1  15
BRANCH   2  18
ATOM     18  S   UNL     1       2.323   4.836  18.659  0.00  0.00    +0.000 S 
ATOM     19  H   UNL     1       1.061   5.256  18.528  0.00  0.00    +0.000 HD
ENDBRANCH   2  18
TORSDOF 3
ENDMDL
MODEL 4
REMARK VINA RESULT:      -5.7      1.369      1.719
REMARK  Name = 
REMARK  4 active torsions:
REMARK  status: ('A' for Active; 'I' for Inactive)
REMARK    1  A    between atoms: C_1  and  O_2
REMARK    2  A    between atoms: O_2  and  C_3
REMARK    3  A    between atoms: C_9  and  N_10
REMARK    4  A    between atoms: C_11  and  S_12
REMARK                            x       y       z     vdW  Elec       q    Type
REMARK                         _______ _______ _______ _____ _____    ______ ____
ROOT
ATOM      1  N   UNL     1       4.575   4.013  18.165  0.00  0.00    +0.000 NA
ATOM      2  C   UNL     1       3.949   2.962  18.599  0.00  0.00    +0.000 C 
ATOM      3  N   UNL     1       2.929   3.093  19.528  0.00  0.00    +0.000 N 
ATOM      4  C   UNL     1       3.156   2.628  20.916  0.00  0.00    +0.000 C 
ATOM      5  C   UNL     1       1.800   2.467  21.624  0.00  0.00    +0.000 C 
ATOM      6  O   UNL     1       1.046   3.692  21.607  0.00  0.00    +0.000 OA
ATOM      7  C   UNL     1       0.829   4.127  20.255  0.00  0.00    +0.000 C 
ATOM      8  C   UNL     1       2.161   4.354  19.529  0.00  0.00    +0.000 C 
ENDROOT
BRANCH   1  15
ATOM      9  C   UNL     1       6.844   4.615  17.248  0.00  0.00    +0.000 A 
ATOM     10  C   UNL     1       7.612   4.843  16.092  0.00  0.00    +0.000 A 
ATOM     11  C   UNL     1       7.064   4.658  14.821  0.00  0.00    +0.000 A 
ATOM     12  C   UNL     1       5.756   4.213  14.701  0.00  0.00    +0.000 A 
ATOM     13 CL   UNL     1       5.050   4.041  13.139  0.00  0.00    +0.000 Cl
ATOM     14  C   UNL     1       5.001   3.941  15.838  0.00  0.00    +0.000 A 
ATOM     15  C   UNL     1       5.520   4.133  17.133  0.00  0.00    +0.000 A 
BRANCH   9  17
ATOM     16  C   UNL     1       7.785   6.155  18.809  0.00  0.00    +0.000 C 
ATOM     17  O   UNL     1       7.314   4.844  18.517  0.00  0.00    +0.000 OA
ENDBRANCH   9  17
ENDBRANCH   1  15
BRANCH   2  18
ATOM     18  S   UNL     1       4.137   1.317  18.013  0.00  0.00    +0.000 S 
ATOM     19  H   UNL     1       3.397   1.460  16.910  0.00  0.00    +0.000 HD
ENDBRANCH   2  18
TORSDOF 3
ENDMDL
MODEL 5
REMARK VINA RESULT:      -5.4      1.493      1.654
REMARK  Name = 
REMARK  4 active torsions:
REMARK  status: ('A' for Active; 'I' for Inactive)
REMARK    1  A    between atoms: C_1  and  O_2
REMARK    2  A    between atoms: O_2  and  C_3
REMARK    3  A    between atoms: C_9  and  N_10
REMARK    4  A    between atoms: C_11  and  S_12
REMARK                            x       y       z     vdW  Elec       q    Type
REMARK                         _______ _______ _______ _____ _____    ______ ____
ROOT
ATOM      1  N   UNL     1       4.219   4.527  16.927  0.00  0.00    +0.000 NA
ATOM      2  C   UNL     1       4.219   4.221  18.189  0.00  0.00    +0.000 C 
ATOM      3  N   UNL     1       3.026   3.954  18.842  0.00  0.00    +0.000 N 
ATOM      4  C   UNL     1       2.513   4.930  19.831  0.00  0.00    +0.000 C 
ATOM      5  C   UNL     1       1.457   4.245  20.715  0.00  0.00    +0.000 C 
ATOM      6  O   UNL     1       0.385   3.694  19.930  0.00  0.00    +0.000 OA
ATOM      7  C   UNL     1       0.898   2.746  18.980  0.00  0.00    +0.000 C 
ATOM      8  C   UNL     1       1.915   3.404  18.039  0.00  0.00    +0.000 C 
ENDROOT
BRANCH   1  15
ATOM      9  C   UNL     1       6.257   5.725  16.054  0.00  0.00    +0.000 A 
ATOM     10  C   UNL     1       7.173   5.847  14.994  0.00  0.00    +0.000 A 
ATOM     11  C   UNL     1       7.110   4.993  13.891  0.00  0.00    +0.000 A 
ATOM     12  C   UNL     1       6.151   3.991  13.859  0.00  0.00    +0.000 A 
ATOM     13 CL   UNL     1       6.024   2.971  12.477  0.00  0.00    +0.000 Cl
ATOM     14  C   UNL     1       5.269   3.831  14.924  0.00  0.00    +0.000 A 
ATOM     15  C   UNL     1       5.297   4.687  16.042  0.00  0.00    +0.000 A 
BRANCH   9  17
ATOM     16  C   UNL     1       7.489   6.940  17.696  0.00  0.00    +0.000 C 
ATOM     17  O   UNL     1       6.235   6.579  17.128  0.00  0.00    +0.000 OA
ENDBRANCH   9  17
ENDBRANCH   1  15
BRANCH   2  18
ATOM     18  S   UNL     1       5.630   3.938  19.196  0.00  0.00    +0.000 S 
ATOM     19  H   UNL     1       6.542   4.303  18.290  0.00  0.00    +0.000 HD
ENDBRANCH   2  18
TORSDOF 3
ENDMDL
MODEL 6
REMARK VINA RESULT:      -5.0      3.556      6.473
REMARK  Name = 
REMARK  4 active torsions:
REMARK  status: ('A' for Active; 'I' for Inactive)
REMARK    1  A    between atoms: C_1  and  O_2
REMARK    2  A    between atoms: O_2  and  C_3
REMARK    3  A    between atoms: C_9  and  N_10
REMARK    4  A    between atoms: C_11  and  S_12
REMARK                            x       y       z     vdW  Elec       q    Type
REMARK                         _______ _______ _______ _____ _____    ______ ____
ROOT
ATOM      1  N   UNL     1       3.989   5.802  17.658  0.00  0.00    +0.000 NA
ATOM      2  C   UNL     1       4.288   4.718  17.008  0.00  0.00    +0.000 C 
ATOM      3  N   UNL     1       5.369   4.703  16.140  0.00  0.00    +0.000 N 
ATOM      4  C   UNL     1       5.120   4.633  14.681  0.00  0.00    +0.000 C 
ATOM      5  C   UNL     1       6.410   4.195  13.968  0.00  0.00    +0.000 C 
ATOM      6  O   UNL     1       7.505   5.080  14.263  0.00  0.00    +0.000 OA
ATOM      7  C   UNL     1       7.738   5.133  15.679  0.00  0.00    +0.000 C 
ATOM      8  C   UNL     1       6.490   5.622  16.425  0.00  0.00    +0.000 C 
ENDROOT
BRANCH   1  15
ATOM      9  C   UNL     1       2.452   7.229  19.054  0.00  0.00    +0.000 A 
ATOM     10  C   UNL     1       1.663   7.302  20.216  0.00  0.00    +0.000 A 
ATOM     11  C   UNL     1       1.509   6.191  21.047  0.00  0.00    +0.000 A 
ATOM     12  C   UNL     1       2.117   4.993  20.703  0.00  0.00    +0.000 A 
ATOM     13 CL   UNL     1       1.986   3.634  21.754  0.00  0.00    +0.000 Cl
ATOM     14  C   UNL     1       2.863   4.896  19.532  0.00  0.00    +0.000 A 
ATOM     15  C   UNL     1       3.049   6.003  18.682  0.00  0.00    +0.000 A 
BRANCH   9  17
ATOM     16  C   UNL     1       1.580   9.151  17.941  0.00  0.00    +0.000 C 
ATOM     17  O   UNL     1       2.687   8.309  18.239  0.00  0.00    +0.000 OA
ENDBRANCH   9  17
ENDBRANCH   1  15
BRANCH   2  18
ATOM     18  S   UNL     1       3.551   3.138  17.213  0.00  0.00    +0.000 S 
ATOM     19  H   UNL     1       3.002   3.064  15.997  0.00  0.00    +0.000 HD
ENDBRANCH   2  18
TORSDOF 3
ENDMDL
MODEL 7
REMARK VINA RESULT:      -5.0      2.302      2.731
REMARK  Name = 
REMARK  4 active torsions:
REMARK  status: ('A' for Active; 'I' for Inactive)
REMARK    1  A    between atoms: C_1  and  O_2
REMARK    2  A    between atoms: O_2  and  C_3
REMARK    3  A    between atoms: C_9  and  N_10
REMARK    4  A    between atoms: C_11  and  S_12
REMARK                            x       y       z     vdW  Elec       q    Type
REMARK                         _______ _______ _______ _____ _____    ______ ____
ROOT
ATOM      1  N   UNL     1       4.698   5.611  16.866  0.00  0.00    +0.000 NA
ATOM      2  C   UNL     1       3.672   5.128  17.499  0.00  0.00    +0.000 C 
ATOM      3  N   UNL     1       2.935   5.935  18.351  0.00  0.00    +0.000 N 
ATOM      4  C   UNL     1       3.020   5.704  19.812  0.00  0.00    +0.000 C 
ATOM      5  C   UNL     1       1.829   6.391  20.502  0.00  0.00    +0.000 C 
ATOM      6  O   UNL     1       1.783   7.797  20.203  0.00  0.00    +0.000 OA
ATOM      7  C   UNL     1       1.696   8.005  18.785  0.00  0.00    +0.000 C 
ATOM      8  C   UNL     1       2.898   7.382  18.062  0.00  0.00    +0.000 C 
ENDROOT
BRANCH   1  15
ATOM      9  C   UNL     1       6.893   5.094  15.742  0.00  0.00    +0.000 A 
ATOM     10  C   UNL     1       7.524   4.615  14.580  0.00  0.00    +0.000 A 
ATOM     11  C   UNL     1       6.774   4.135  13.504  0.00  0.00    +0.000 A 
ATOM     12  C   UNL     1       5.391   4.101  13.600  0.00  0.00    +0.000 A 
ATOM     13 CL   UNL     1       4.453   3.569  12.256  0.00  0.00    +0.000 Cl
ATOM     14  C   UNL     1       4.757   4.529  14.763  0.00  0.00    +0.000 A 
ATOM     15  C   UNL     1       5.485   5.033  15.858  0.00  0.00    +0.000 A 
BRANCH   9  17
ATOM     16  C   UNL     1       7.702   4.838  17.972  0.00  0.00    +0.000 C 
ATOM     17  O   UNL     1       7.581   5.635  16.800  0.00  0.00    +0.000 OA
ENDBRANCH   9  17
ENDBRANCH   1  15
BRANCH   2  18
ATOM     18  S   UNL     1       2.968   3.533  17.284  0.00  0.00    +0.000 S 
ATOM     19  H   UNL     1       3.673   2.923  18.241  0.00  0.00    +0.000 HD
ENDBRANCH   2  18
TORSDOF 3
ENDMDL
MODEL 8
REMARK VINA RESULT:      -4.9      5.665      6.705
REMARK  Name = 
REMARK  4 active torsions:
REMARK  status: ('A' for Active; 'I' for Inactive)
REMARK    1  A    between atoms: C_1  and  O_2
REMARK    2  A    between atoms: O_2  and  C_3
REMARK    3  A    between atoms: C_9  and  N_10
REMARK    4  A    between atoms: C_11  and  S_12
REMARK                            x       y       z     vdW  Elec       q    Type
REMARK                         _______ _______ _______ _____ _____    ______ ____
ROOT
ATOM      1  N   UNL     1       1.857   8.131  18.999  0.00  0.00    +0.000 NA
ATOM      2  C   UNL     1       1.304   8.906  19.883  0.00  0.00    +0.000 C 
ATOM      3  N   UNL     1       0.535   9.985  19.479  0.00  0.00    +0.000 N 
ATOM      4  C   UNL     1       1.057  11.357  19.678  0.00  0.00    +0.000 C 
ATOM      5  C   UNL     1      -0.103  12.361  19.572  0.00  0.00    +0.000 C 
ATOM      6  O   UNL     1      -0.788  12.247  18.312  0.00  0.00    +0.000 OA
ATOM      7  C   UNL     1      -1.294  10.915  18.136  0.00  0.00    +0.000 C 
ATOM      8  C   UNL     1      -0.158   9.884  18.178  0.00  0.00    +0.000 C 
ENDROOT
BRANCH   1  15
ATOM      9  C   UNL     1       3.600   6.420  18.378  0.00  0.00    +0.000 A 
ATOM     10  C   UNL     1       4.064   5.107  18.568  0.00  0.00    +0.000 A 
ATOM     11  C   UNL     1       3.452   4.258  19.492  0.00  0.00    +0.000 A 
ATOM     12  C   UNL     1       2.393   4.730  20.254  0.00  0.00    +0.000 A 
ATOM     13 CL   UNL     1       1.591   3.673  21.351  0.00  0.00    +0.000 Cl
ATOM     14  C   UNL     1       1.954   6.042  20.107  0.00  0.00    +0.000 A 
ATOM     15  C   UNL     1       2.541   6.917  19.172  0.00  0.00    +0.000 A 
BRANCH   9  17
ATOM     16  C   UNL     1       5.040   6.720  16.499  0.00  0.00    +0.000 C 
ATOM     17  O   UNL     1       4.124   7.272  17.438  0.00  0.00    +0.000 OA
ENDBRANCH   9  17
ENDBRANCH   1  15
BRANCH   2  18
ATOM     18  S   UNL     1       1.281   8.659  21.621  0.00  0.00    +0.000 S 
ATOM     19  H   UNL     1       1.091   9.938  21.957  0.00  0.00    +0.000 HD
ENDBRANCH   2  18
TORSDOF 3
ENDMDL
MODEL 9
REMARK VINA RESULT:      -4.9      2.178      2.902
REMARK  Name = 
REMARK  4 active torsions:
REMARK  status: ('A' for Active; 'I' for Inactive)
REMARK    1  A    between atoms: C_1  and  O_2
REMARK    2  A    between atoms: O_2  and  C_3
REMARK    3  A    between atoms: C_9  and  N_10
REMARK    4  A    between atoms: C_11  and  S_12
REMARK                            x       y       z     vdW  Elec       q    Type
REMARK                         _______ _______ _______ _____ _____    ______ ____
ROOT
ATOM      1  N   UNL     1       4.493   4.585  18.174  0.00  0.00    +0.000 NA
ATOM      2  C   UNL     1       3.335   4.996  18.596  0.00  0.00    +0.000 C 
ATOM      3  N   UNL     1       2.596   4.218  19.473  0.00  0.00    +0.000 N 
ATOM      4  C   UNL     1       1.364   3.557  18.985  0.00  0.00    +0.000 C 
ATOM      5  C   UNL     1       0.507   3.133  20.190  0.00  0.00    +0.000 C 
ATOM      6  O   UNL     1       1.236   2.271  21.081  0.00  0.00    +0.000 OA
ATOM      7  C   UNL     1       2.425   2.927  21.550  0.00  0.00    +0.000 C 
ATOM      8  C   UNL     1       3.337   3.317  20.379  0.00  0.00    +0.000 C 
ENDROOT
BRANCH   1  15
ATOM      9  C   UNL     1       5.858   4.967  16.091  0.00  0.00    +0.000 A 
ATOM     10  C   UNL     1       6.970   5.619  15.529  0.00  0.00    +0.000 A 
ATOM     11  C   UNL     1       7.734   6.512  16.284  0.00  0.00    +0.000 A 
ATOM     12  C   UNL     1       7.370   6.780  17.595  0.00  0.00    +0.000 A 
ATOM     13 CL   UNL     1       8.341   7.831  18.555  0.00  0.00    +0.000 Cl
ATOM     14  C   UNL     1       6.245   6.176  18.148  0.00  0.00    +0.000 A 
ATOM     15  C   UNL     1       5.464   5.259  17.417  0.00  0.00    +0.000 A 
BRANCH   9  17
ATOM     16  C   UNL     1       5.352   3.904  14.016  0.00  0.00    +0.000 C 
ATOM     17  O   UNL     1       5.114   4.034  15.413  0.00  0.00    +0.000 OA
ENDBRANCH   9  17
ENDBRANCH   1  15
BRANCH   2  18
ATOM     18  S   UNL     1       2.614   6.569  18.300  0.00  0.00    +0.000 S 
ATOM     19  H   UNL     1       1.483   6.120  17.748  0.00  0.00    +0.000 HD
ENDBRANCH   2  18
TORSDOF 3
ENDMDL
