MODEL 1
REMARK VINA RESULT:      -9.0      0.000      0.000
REMARK  Name = 
REMARK  5 active torsions:
REMARK  status: ('A' for Active; 'I' for Inactive)
REMARK    1  A    between atoms: C_1  and  C_2
REMARK    2  A    between atoms: C_2  and  C_3
REMARK    3  A    between atoms: N_7  and  S_8
REMARK    4  A    between atoms: S_8  and  C_11
REMARK    5  A    between atoms: C_14  and  N_15
REMARK                            x       y       z     vdW  Elec       q    Type
REMARK                         _______ _______ _______ _____ _____    ______ ____
ROOT
ATOM      1  C   UNL     1       2.295   6.727  19.534  0.00  0.00    +0.000 A 
ATOM      2  C   UNL     1       2.256   7.842  18.709  0.00  0.00    +0.000 A 
ATOM      3  C   UNL     1       1.568   8.993  19.119  0.00  0.00    +0.000 A 
ATOM      4  C   UNL     1       0.900   9.046  20.356  0.00  0.00    +0.000 A 
ATOM      5  C   UNL     1       0.972   7.906  21.176  0.00  0.00    +0.000 A 
ATOM      6  C   UNL     1       1.651   6.749  20.771  0.00  0.00    +0.000 A 
ENDROOT
BRANCH   4   7
ATOM      7  N   UNL     1       0.063  10.152  20.708  0.00  0.00    +0.000 N 
ATOM      8  C   UNL     1      -0.003  10.718  21.964  0.00  0.00    +0.000 C 
ATOM      9  O   UNL     1       0.375  10.267  23.032  0.00  0.00    +0.000 OA
ATOM     10  C   UNL     1      -0.532  12.126  21.819  0.00  0.00    +0.000 C 
ATOM     11  C   UNL     1      -1.358  12.587  23.015  0.00  0.00    +0.000 C 
ATOM     12  C   UNL     1      -2.824  12.714  22.779  0.00  0.00    +0.000 C 
ATOM     13  C   UNL     1      -3.385  12.676  21.568  0.00  0.00    +0.000 C 
ATOM     14 CL   UNL     1      -5.089  12.929  21.408  0.00  0.00    +0.000 Cl
ATOM     15  C   UNL     1      -2.636  12.490  20.288  0.00  0.00    +0.000 C 
ATOM     16  C   UNL     1      -1.149  12.159  20.429  0.00  0.00    +0.000 C 
ATOM     17  C   UNL     1      -0.772  10.817  19.835  0.00  0.00    +0.000 C 
ATOM     18  O   UNL     1      -1.173  10.443  18.743  0.00  0.00    +0.000 OA
ENDBRANCH   4   7
BRANCH   1  19
ATOM     19  S   UNL     1       3.134   5.274  18.965  0.00  0.00    +0.000 S 
ATOM     20  O   UNL     1       2.516   4.848  17.730  0.00  0.00    +0.000 OA
ATOM     21  O   UNL     1       3.251   4.362  20.086  0.00  0.00    +0.000 OA
BRANCH  19  26
ATOM     22  C   UNL     1       6.148   5.263  15.284  0.00  0.00    +0.000 A 
ATOM     23  N   UNL     1       5.462   6.389  15.267  0.00  0.00    +0.000 NA
ATOM     24  N   UNL     1       4.852   6.646  16.481  0.00  0.00    +0.000 NA
ATOM     25  C   UNL     1       5.110   5.712  17.363  0.00  0.00    +0.000 A 
ATOM     26  N   UNL     1       4.709   5.834  18.716  0.00  0.00    +0.000 N 
ATOM     27  S   UNL     1       6.113   4.449  16.802  0.00  0.00    +0.000 S 
ATOM     28  H   UNL     1       5.302   5.300  19.348  0.00  0.00    +0.000 HD
BRANCH  22  30
ATOM     29  C   UNL     1       6.068   3.798  13.265  0.00  0.00    +0.000 C 
ATOM     30  C   UNL     1       6.919   4.720  14.124  0.00  0.00    +0.000 C 
ENDBRANCH  22  30
ENDBRANCH  19  26
ENDBRANCH   1  19
TORSDOF 4
ENDMDL
MODEL 2
REMARK VINA RESULT:      -8.6      4.056      9.931
REMARK  Name = 
REMARK  5 active torsions:
REMARK  status: ('A' for Active; 'I' for Inactive)
REMARK    1  A    between atoms: C_1  and  C_2
REMARK    2  A    between atoms: C_2  and  C_3
REMARK    3  A    between atoms: N_7  and  S_8
REMARK    4  A    between atoms: S_8  and  C_11
REMARK    5  A    between atoms: C_14  and  N_15
REMARK                            x       y       z     vdW  Elec       q    Type
REMARK                         _______ _______ _______ _____ _____    ______ ____
ROOT
ATOM      1  C   UNL     1       1.515   7.914  20.346  0.00  0.00    +0.000 A 
ATOM      2  C   UNL     1       1.841   8.455  19.110  0.00  0.00    +0.000 A 
ATOM      3  C   UNL     1       2.643   7.730  18.216  0.00  0.00    +0.000 A 
ATOM      4  C   UNL     1       3.140   6.456  18.545  0.00  0.00    +0.000 A 
ATOM      5  C   UNL     1       2.778   5.927  19.798  0.00  0.00    +0.000 A 
ATOM      6  C   UNL     1       1.984   6.648  20.700  0.00  0.00    +0.000 A 
ENDROOT
BRANCH   4   7
ATOM      7  N   UNL     1       4.087   5.782  17.711  0.00  0.00    +0.000 N 
ATOM      8  C   UNL     1       5.341   6.262  17.400  0.00  0.00    +0.000 C 
ATOM      9  O   UNL     1       5.781   7.394  17.511  0.00  0.00    +0.000 OA
ATOM     10  C   UNL     1       6.205   5.093  16.990  0.00  0.00    +0.000 C 
ATOM     11  C   UNL     1       7.257   5.455  15.947  0.00  0.00    +0.000 C 
ATOM     12  C   UNL     1       7.023   4.917  14.577  0.00  0.00    +0.000 C 
ATOM     13  C   UNL     1       6.110   3.985  14.294  0.00  0.00    +0.000 C 
ATOM     14 CL   UNL     1       5.991   3.368  12.682  0.00  0.00    +0.000 Cl
ATOM     15  C   UNL     1       5.192   3.360  15.294  0.00  0.00    +0.000 C 
ATOM     16  C   UNL     1       5.216   3.975  16.695  0.00  0.00    +0.000 C 
ATOM     17  C   UNL     1       3.882   4.551  17.123  0.00  0.00    +0.000 C 
ATOM     18  O   UNL     1       2.825   3.964  16.952  0.00  0.00    +0.000 OA
ENDBRANCH   4   7
BRANCH   1  19
ATOM     19  S   UNL     1       0.540   8.876  21.468  0.00  0.00    +0.000 S 
ATOM     20  O   UNL     1       1.405   9.359  22.520  0.00  0.00    +0.000 OA
ATOM     21  O   UNL     1      -0.653   8.114  21.783  0.00  0.00    +0.000 OA
BRANCH  19  26
ATOM     22  C   UNL     1      -0.124  13.548  22.068  0.00  0.00    +0.000 A 
ATOM     23  N   UNL     1       1.086  13.351  21.585  0.00  0.00    +0.000 NA
ATOM     24  N   UNL     1       1.228  12.092  21.032  0.00  0.00    +0.000 NA
ATOM     25  C   UNL     1       0.119  11.397  21.111  0.00  0.00    +0.000 A 
ATOM     26  N   UNL     1      -0.015  10.134  20.485  0.00  0.00    +0.000 N 
ATOM     27  S   UNL     1      -1.186  12.208  21.857  0.00  0.00    +0.000 S 
ATOM     28  H   UNL     1      -0.982   9.911  20.260  0.00  0.00    +0.000 HD
BRANCH  22  30
ATOM     29  C   UNL     1      -1.369  14.532  23.996  0.00  0.00    +0.000 C 
ATOM     30  C   UNL     1      -0.582  14.810  22.725  0.00  0.00    +0.000 C 
ENDBRANCH  22  30
ENDBRANCH  19  26
ENDBRANCH   1  19
TORSDOF 4
ENDMDL
MODEL 3
REMARK VINA RESULT:      -8.4      4.179      9.586
REMARK  Name = 
REMARK  5 active torsions:
REMARK  status: ('A' for Active; 'I' for Inactive)
REMARK    1  A    between atoms: C_1  and  C_2
REMARK    2  A    between atoms: C_2  and  C_3
REMARK    3  A    between atoms: N_7  and  S_8
REMARK    4  A    between atoms: S_8  and  C_11
REMARK    5  A    between atoms: C_14  and  N_15
REMARK                            x       y       z     vdW  Elec       q    Type
REMARK                         _______ _______ _______ _____ _____    ______ ____
ROOT
ATOM      1  C   UNL     1       1.471   8.675  19.886  0.00  0.00    +0.000 A 
ATOM      2  C   UNL     1       1.804   9.006  18.579  0.00  0.00    +0.000 A 
ATOM      3  C   UNL     1       2.611   8.144  17.822  0.00  0.00    +0.000 A 
ATOM      4  C   UNL     1       3.105   6.942  18.359  0.00  0.00    +0.000 A 
ATOM      5  C   UNL     1       2.735   6.626  19.680  0.00  0.00    +0.000 A 
ATOM      6  C   UNL     1       1.936   7.485  20.446  0.00  0.00    +0.000 A 
ENDROOT
BRANCH   4   7
ATOM      7  N   UNL     1       4.057   6.141  17.653  0.00  0.00    +0.000 N 
ATOM      8  C   UNL     1       5.356   6.516  17.385  0.00  0.00    +0.000 C 
ATOM      9  O   UNL     1       5.860   7.627  17.425  0.00  0.00    +0.000 OA
ATOM     10  C   UNL     1       6.167   5.266  17.139  0.00  0.00    +0.000 C 
ATOM     11  C   UNL     1       7.302   5.470  16.140  0.00  0.00    +0.000 C 
ATOM     12  C   UNL     1       7.118   4.822  14.811  0.00  0.00    +0.000 C 
ATOM     13  C   UNL     1       6.167   3.922  14.551  0.00  0.00    +0.000 C 
ATOM     14 CL   UNL     1       6.108   3.166  12.996  0.00  0.00    +0.000 Cl
ATOM     15  C   UNL     1       5.152   3.446  15.539  0.00  0.00    +0.000 C 
ATOM     16  C   UNL     1       5.129   4.185  16.879  0.00  0.00    +0.000 C 
ATOM     17  C   UNL     1       3.811   4.875  17.164  0.00  0.00    +0.000 C 
ATOM     18  O   UNL     1       2.730   4.336  16.975  0.00  0.00    +0.000 OA
ENDBRANCH   4   7
BRANCH   1  19
ATOM     19  S   UNL     1       0.489   9.809  20.829  0.00  0.00    +0.000 S 
ATOM     20  O   UNL     1       1.250  10.209  21.990  0.00  0.00    +0.000 OA
ATOM     21  O   UNL     1      -0.834   9.235  20.973  0.00  0.00    +0.000 OA
BRANCH  19  26
ATOM     22  C   UNL     1      -3.192  11.494  18.332  0.00  0.00    +0.000 A 
ATOM     23  N   UNL     1      -3.137  12.129  19.486  0.00  0.00    +0.000 NA
ATOM     24  N   UNL     1      -1.908  11.984  20.103  0.00  0.00    +0.000 NA
ATOM     25  C   UNL     1      -1.086  11.256  19.385  0.00  0.00    +0.000 A 
ATOM     26  N   UNL     1       0.273  11.091  19.749  0.00  0.00    +0.000 N 
ATOM     27  S   UNL     1      -1.729  10.691  17.907  0.00  0.00    +0.000 S 
ATOM     28  H   UNL     1       0.868  10.890  18.949  0.00  0.00    +0.000 HD
BRANCH  22  30
ATOM     29  C   UNL     1      -4.016  11.055  16.017  0.00  0.00    +0.000 C 
ATOM     30  C   UNL     1      -4.386  11.469  17.433  0.00  0.00    +0.000 C 
ENDBRANCH  22  30
ENDBRANCH  19  26
ENDBRANCH   1  19
TORSDOF 4
ENDMDL
MODEL 4
REMARK VINA RESULT:      -8.3      0.796      1.220
REMARK  Name = 
REMARK  5 active torsions:
REMARK  status: ('A' for Active; 'I' for Inactive)
REMARK    1  A    between atoms: C_1  and  C_2
REMARK    2  A    between atoms: C_2  and  C_3
REMARK    3  A    between atoms: N_7  and  S_8
REMARK    4  A    between atoms: S_8  and  C_11
REMARK    5  A    between atoms: C_14  and  N_15
REMARK                            x       y       z     vdW  Elec       q    Type
REMARK                         _______ _______ _______ _____ _____    ______ ____
ROOT
ATOM      1  C   UNL     1       2.701   6.573  19.072  0.00  0.00    +0.000 A 
ATOM      2  C   UNL     1       2.028   6.672  20.283  0.00  0.00    +0.000 A 
ATOM      3  C   UNL     1       1.234   7.796  20.553  0.00  0.00    +0.000 A 
ATOM      4  C   UNL     1       1.104   8.843  19.623  0.00  0.00    +0.000 A 
ATOM      5  C   UNL     1       1.784   8.705  18.399  0.00  0.00    +0.000 A 
ATOM      6  C   UNL     1       2.586   7.590  18.124  0.00  0.00    +0.000 A 
ENDROOT
BRANCH   4   7
ATOM      7  N   UNL     1       0.431  10.061  19.955  0.00  0.00    +0.000 N 
ATOM      8  C   UNL     1       0.663  10.803  21.093  0.00  0.00    +0.000 C 
ATOM      9  O   UNL     1       1.227  10.474  22.124  0.00  0.00    +0.000 OA
ATOM     10  C   UNL     1       0.205  12.219  20.836  0.00  0.00    +0.000 C 
ATOM     11  C   UNL     1      -0.323  12.919  22.084  0.00  0.00    +0.000 C 
ATOM     12  C   UNL     1      -1.795  13.148  22.124  0.00  0.00    +0.000 C 
ATOM     13  C   UNL     1      -2.598  12.992  21.069  0.00  0.00    +0.000 C 
ATOM     14 CL   UNL     1      -4.278  13.377  21.210  0.00  0.00    +0.000 Cl
ATOM     15  C   UNL     1      -2.146  12.558  19.712  0.00  0.00    +0.000 C 
ATOM     16  C   UNL     1      -0.685  12.112  19.607  0.00  0.00    +0.000 C 
ATOM     17  C   UNL     1      -0.525  10.671  19.169  0.00  0.00    +0.000 C 
ATOM     18  O   UNL     1      -1.168  10.185  18.251  0.00  0.00    +0.000 OA
ENDBRANCH   4   7
BRANCH   1  19
ATOM     19  S   UNL     1       3.733   5.163  18.783  0.00  0.00    +0.000 S 
ATOM     20  O   UNL     1       3.151   4.389  17.711  0.00  0.00    +0.000 OA
ATOM     21  O   UNL     1       4.019   4.553  20.066  0.00  0.00    +0.000 OA
BRANCH  19  26
ATOM     22  C   UNL     1       6.365   5.125  14.820  0.00  0.00    +0.000 A 
ATOM     23  N   UNL     1       5.548   6.159  14.776  0.00  0.00    +0.000 NA
ATOM     24  N   UNL     1       5.028   6.466  16.020  0.00  0.00    +0.000 NA
ATOM     25  C   UNL     1       5.481   5.660  16.950  0.00  0.00    +0.000 A 
ATOM     26  N   UNL     1       5.197   5.870  18.321  0.00  0.00    +0.000 N 
ATOM     27  S   UNL     1       6.573   4.468  16.399  0.00  0.00    +0.000 S 
ATOM     28  H   UNL     1       5.907   5.473  18.932  0.00  0.00    +0.000 HD
BRANCH  22  30
ATOM     29  C   UNL     1       6.207   3.593  12.856  0.00  0.00    +0.000 C 
ATOM     30  C   UNL     1       7.084   4.559  13.638  0.00  0.00    +0.000 C 
ENDBRANCH  22  30
ENDBRANCH  19  26
ENDBRANCH   1  19
TORSDOF 4
ENDMDL
MODEL 5
REMARK VINA RESULT:      -8.3      1.436      2.210
REMARK  Name = 
REMARK  5 active torsions:
REMARK  status: ('A' for Active; 'I' for Inactive)
REMARK    1  A    between atoms: C_1  and  C_2
REMARK    2  A    between atoms: C_2  and  C_3
REMARK    3  A    between atoms: N_7  and  S_8
REMARK    4  A    between atoms: S_8  and  C_11
REMARK    5  A    between atoms: C_14  and  N_15
REMARK                            x       y       z     vdW  Elec       q    Type
REMARK                         _______ _______ _______ _____ _____    ______ ____
ROOT
ATOM      1  C   UNL     1       2.633   6.123  19.165  0.00  0.00    +0.000 A 
ATOM      2  C   UNL     1       2.686   7.223  18.320  0.00  0.00    +0.000 A 
ATOM      3  C   UNL     1       2.047   8.418  18.684  0.00  0.00    +0.000 A 
ATOM      4  C   UNL     1       1.337   8.531  19.893  0.00  0.00    +0.000 A 
ATOM      5  C   UNL     1       1.318   7.405  20.736  0.00  0.00    +0.000 A 
ATOM      6  C   UNL     1       1.947   6.205  20.376  0.00  0.00    +0.000 A 
ENDROOT
BRANCH   4   7
ATOM      7  N   UNL     1       0.550   9.687  20.194  0.00  0.00    +0.000 N 
ATOM      8  C   UNL     1      -0.280  10.328  19.299  0.00  0.00    +0.000 C 
ATOM      9  O   UNL     1      -0.308  10.247  18.082  0.00  0.00    +0.000 OA
ATOM     10  C   UNL     1      -1.308  11.108  20.084  0.00  0.00    +0.000 C 
ATOM     11  C   UNL     1      -1.757  12.387  19.387  0.00  0.00    +0.000 C 
ATOM     12  C   UNL     1      -1.284  13.660  20.001  0.00  0.00    +0.000 C 
ATOM     13  C   UNL     1      -0.714  13.734  21.206  0.00  0.00    +0.000 C 
ATOM     14 CL   UNL     1      -0.289  15.279  21.856  0.00  0.00    +0.000 Cl
ATOM     15  C   UNL     1      -0.459  12.564  22.100  0.00  0.00    +0.000 C 
ATOM     16  C   UNL     1      -0.732  11.187  21.490  0.00  0.00    +0.000 C 
ATOM     17  C   UNL     1       0.496  10.302  21.427  0.00  0.00    +0.000 C 
ATOM     18  O   UNL     1       1.276  10.189  22.361  0.00  0.00    +0.000 OA
ENDBRANCH   4   7
BRANCH   1  19
ATOM     19  S   UNL     1       3.412   4.617  18.654  0.00  0.00    +0.000 S 
ATOM     20  O   UNL     1       2.779   4.171  17.434  0.00  0.00    +0.000 OA
ATOM     21  O   UNL     1       3.489   3.744  19.809  0.00  0.00    +0.000 OA
BRANCH  19  26
ATOM     22  C   UNL     1       6.199   5.011  14.819  0.00  0.00    +0.000 A 
ATOM     23  N   UNL     1       5.604   6.168  15.031  0.00  0.00    +0.000 NA
ATOM     24  N   UNL     1       5.087   6.262  16.310  0.00  0.00    +0.000 NA
ATOM     25  C   UNL     1       5.321   5.178  17.010  0.00  0.00    +0.000 A 
ATOM     26  N   UNL     1       5.009   5.102  18.390  0.00  0.00    +0.000 N 
ATOM     27  S   UNL     1       6.187   3.960  16.184  0.00  0.00    +0.000 S 
ATOM     28  H   UNL     1       5.593   4.431  18.885  0.00  0.00    +0.000 HD
BRANCH  22  30
ATOM     29  C   UNL     1       6.054   3.559  12.793  0.00  0.00    +0.000 C 
ATOM     30  C   UNL     1       6.856   4.616  13.536  0.00  0.00    +0.000 C 
ENDBRANCH  22  30
ENDBRANCH  19  26
ENDBRANCH   1  19
TORSDOF 4
ENDMDL
MODEL 6
REMARK VINA RESULT:      -8.3      1.618      2.035
REMARK  Name = 
REMARK  5 active torsions:
REMARK  status: ('A' for Active; 'I' for Inactive)
REMARK    1  A    between atoms: C_1  and  C_2
REMARK    2  A    between atoms: C_2  and  C_3
REMARK    3  A    between atoms: N_7  and  S_8
REMARK    4  A    between atoms: S_8  and  C_11
REMARK    5  A    between atoms: C_14  and  N_15
REMARK                            x       y       z     vdW  Elec       q    Type
REMARK                         _______ _______ _______ _____ _____    ______ ____
ROOT
ATOM      1  C   UNL     1       2.542   7.047  18.896  0.00  0.00    +0.000 A 
ATOM      2  C   UNL     1       2.480   7.854  17.768  0.00  0.00    +0.000 A 
ATOM      3  C   UNL     1       1.898   9.128  17.850  0.00  0.00    +0.000 A 
ATOM      4  C   UNL     1       1.361   9.613  19.055  0.00  0.00    +0.000 A 
ATOM      5  C   UNL     1       1.455   8.779  20.184  0.00  0.00    +0.000 A 
ATOM      6  C   UNL     1       2.027   7.502  20.110  0.00  0.00    +0.000 A 
ENDROOT
BRANCH   4   7
ATOM      7  N   UNL     1       0.624  10.838  19.107  0.00  0.00    +0.000 N 
ATOM      8  C   UNL     1       1.175  12.094  18.970  0.00  0.00    +0.000 C 
ATOM      9  O   UNL     1       2.343  12.435  19.059  0.00  0.00    +0.000 OA
ATOM     10  C   UNL     1       0.084  13.045  18.540  0.00  0.00    +0.000 C 
ATOM     11  C   UNL     1       0.278  14.463  19.064  0.00  0.00    +0.000 C 
ATOM     12  C   UNL     1      -0.670  14.896  20.130  0.00  0.00    +0.000 C 
ATOM     13  C   UNL     1      -1.772  14.219  20.460  0.00  0.00    +0.000 C 
ATOM     14 CL   UNL     1      -2.848  14.866  21.649  0.00  0.00    +0.000 Cl
ATOM     15  C   UNL     1      -2.206  12.937  19.825  0.00  0.00    +0.000 C 
ATOM     16  C   UNL     1      -1.209  12.305  18.852  0.00  0.00    +0.000 C 
ATOM     17  C   UNL     1      -0.742  10.928  19.278  0.00  0.00    +0.000 C 
ATOM     18  O   UNL     1      -1.508  10.071  19.693  0.00  0.00    +0.000 OA
ENDBRANCH   4   7
BRANCH   1  19
ATOM     19  S   UNL     1       3.241   5.426  18.748  0.00  0.00    +0.000 S 
ATOM     20  O   UNL     1       2.612   4.762  17.630  0.00  0.00    +0.000 OA
ATOM     21  O   UNL     1       3.239   4.821  20.065  0.00  0.00    +0.000 OA
BRANCH  19  26
ATOM     22  C   UNL     1       6.100   4.968  14.973  0.00  0.00    +0.000 A 
ATOM     23  N   UNL     1       5.580   6.180  14.966  0.00  0.00    +0.000 NA
ATOM     24  N   UNL     1       5.052   6.528  16.196  0.00  0.00    +0.000 NA
ATOM     25  C   UNL     1       5.206   5.571  17.080  0.00  0.00    +0.000 A 
ATOM     26  N   UNL     1       4.870   5.757  18.444  0.00  0.00    +0.000 N 
ATOM     27  S   UNL     1       6.001   4.176  16.500  0.00  0.00    +0.000 S 
ATOM     28  H   UNL     1       5.403   5.149  19.062  0.00  0.00    +0.000 HD
BRANCH  22  30
ATOM     29  C   UNL     1       5.727   3.632  12.898  0.00  0.00    +0.000 C 
ATOM     30  C   UNL     1       6.747   4.315  13.795  0.00  0.00    +0.000 C 
ENDBRANCH  22  30
ENDBRANCH  19  26
ENDBRANCH   1  19
TORSDOF 4
ENDMDL
MODEL 7
REMARK VINA RESULT:      -8.3      2.204      2.607
REMARK  Name = 
REMARK  5 active torsions:
REMARK  status: ('A' for Active; 'I' for Inactive)
REMARK    1  A    between atoms: C_1  and  C_2
REMARK    2  A    between atoms: C_2  and  C_3
REMARK    3  A    between atoms: N_7  and  S_8
REMARK    4  A    between atoms: S_8  and  C_11
REMARK    5  A    between atoms: C_14  and  N_15
REMARK                            x       y       z     vdW  Elec       q    Type
REMARK                         _______ _______ _______ _____ _____    ______ ____
ROOT
ATOM      1  C   UNL     1       2.124   7.288  19.111  0.00  0.00    +0.000 A 
ATOM      2  C   UNL     1       1.763   7.715  20.381  0.00  0.00    +0.000 A 
ATOM      3  C   UNL     1       1.310   9.028  20.577  0.00  0.00    +0.000 A 
ATOM      4  C   UNL     1       1.218   9.938  19.509  0.00  0.00    +0.000 A 
ATOM      5  C   UNL     1       1.574   9.470  18.231  0.00  0.00    +0.000 A 
ATOM      6  C   UNL     1       2.036   8.163  18.028  0.00  0.00    +0.000 A 
ENDROOT
BRANCH   4   7
ATOM      7  N   UNL     1       0.914  11.319  19.726  0.00  0.00    +0.000 N 
ATOM      8  C   UNL     1      -0.159  11.782  20.457  0.00  0.00    +0.000 C 
ATOM      9  O   UNL     1      -1.166  11.188  20.805  0.00  0.00    +0.000 OA
ATOM     10  C   UNL     1       0.150  13.189  20.910  0.00  0.00    +0.000 C 
ATOM     11  C   UNL     1      -1.087  14.074  21.019  0.00  0.00    +0.000 C 
ATOM     12  C   UNL     1      -1.215  15.138  19.984  0.00  0.00    +0.000 C 
ATOM     13  C   UNL     1      -0.229  15.486  19.154  0.00  0.00    +0.000 C 
ATOM     14 CL   UNL     1      -0.463  16.801  18.054  0.00  0.00    +0.000 Cl
ATOM     15  C   UNL     1       1.127  14.859  19.132  0.00  0.00    +0.000 C 
ATOM     16  C   UNL     1       1.306  13.628  20.024  0.00  0.00    +0.000 C 
ATOM     17  C   UNL     1       1.667  12.374  19.254  0.00  0.00    +0.000 C 
ATOM     18  O   UNL     1       2.508  12.363  18.368  0.00  0.00    +0.000 OA
ENDBRANCH   4   7
BRANCH   1  19
ATOM     19  S   UNL     1       2.737   5.638  18.907  0.00  0.00    +0.000 S 
ATOM     20  O   UNL     1       2.193   5.101  17.681  0.00  0.00    +0.000 OA
ATOM     21  O   UNL     1       2.556   4.940  20.165  0.00  0.00    +0.000 OA
BRANCH  19  26
ATOM     22  C   UNL     1       5.958   5.242  15.429  0.00  0.00    +0.000 A 
ATOM     23  N   UNL     1       5.515   6.483  15.456  0.00  0.00    +0.000 NA
ATOM     24  N   UNL     1       4.878   6.783  16.646  0.00  0.00    +0.000 NA
ATOM     25  C   UNL     1       4.877   5.762  17.469  0.00  0.00    +0.000 A 
ATOM     26  N   UNL     1       4.406   5.879  18.800  0.00  0.00    +0.000 N 
ATOM     27  S   UNL     1       5.646   4.358  16.874  0.00  0.00    +0.000 S 
ATOM     28  H   UNL     1       4.831   5.196  19.424  0.00  0.00    +0.000 HD
BRANCH  22  30
ATOM     29  C   UNL     1       5.774   3.764  13.425  0.00  0.00    +0.000 C 
ATOM     30  C   UNL     1       6.690   4.626  14.280  0.00  0.00    +0.000 C 
ENDBRANCH  22  30
ENDBRANCH  19  26
ENDBRANCH   1  19
TORSDOF 4
ENDMDL
MODEL 8
REMARK VINA RESULT:      -8.3      4.171      9.667
REMARK  Name = 
REMARK  5 active torsions:
REMARK  status: ('A' for Active; 'I' for Inactive)
REMARK    1  A    between atoms: C_1  and  C_2
REMARK    2  A    between atoms: C_2  and  C_3
REMARK    3  A    between atoms: N_7  and  S_8
REMARK    4  A    between atoms: S_8  and  C_11
REMARK    5  A    between atoms: C_14  and  N_15
REMARK                            x       y       z     vdW  Elec       q    Type
REMARK                         _______ _______ _______ _____ _____    ______ ____
ROOT
ATOM      1  C   UNL     1       1.387   8.389  20.048  0.00  0.00    +0.000 A 
ATOM      2  C   UNL     1       1.733   8.802  18.769  0.00  0.00    +0.000 A 
ATOM      3  C   UNL     1       2.562   7.998  17.973  0.00  0.00    +0.000 A 
ATOM      4  C   UNL     1       3.066   6.772  18.444  0.00  0.00    +0.000 A 
ATOM      5  C   UNL     1       2.683   6.373  19.738  0.00  0.00    +0.000 A 
ATOM      6  C   UNL     1       1.862   7.174  20.543  0.00  0.00    +0.000 A 
ENDROOT
BRANCH   4   7
ATOM      7  N   UNL     1       4.038   6.028  17.705  0.00  0.00    +0.000 N 
ATOM      8  C   UNL     1       5.316   6.463  17.426  0.00  0.00    +0.000 C 
ATOM      9  O   UNL     1       5.773   7.593  17.483  0.00  0.00    +0.000 OA
ATOM     10  C   UNL     1       6.174   5.254  17.138  0.00  0.00    +0.000 C 
ATOM     11  C   UNL     1       7.283   5.527  16.127  0.00  0.00    +0.000 C 
ATOM     12  C   UNL     1       7.104   4.902  14.786  0.00  0.00    +0.000 C 
ATOM     13  C   UNL     1       6.187   3.969  14.520  0.00  0.00    +0.000 C 
ATOM     14 CL   UNL     1       6.135   3.247  12.949  0.00  0.00    +0.000 Cl
ATOM     15  C   UNL     1       5.210   3.429  15.512  0.00  0.00    +0.000 C 
ATOM     16  C   UNL     1       5.178   4.137  16.869  0.00  0.00    +0.000 C 
ATOM     17  C   UNL     1       3.837   4.764  17.191  0.00  0.00    +0.000 C 
ATOM     18  O   UNL     1       2.777   4.185  17.007  0.00  0.00    +0.000 OA
ENDBRANCH   4   7
BRANCH   1  19
ATOM     19  S   UNL     1       0.377   9.451  21.043  0.00  0.00    +0.000 S 
ATOM     20  O   UNL     1       1.231  10.432  21.671  0.00  0.00    +0.000 OA
ATOM     21  O   UNL     1      -0.496   8.611  21.840  0.00  0.00    +0.000 OA
BRANCH  19  26
ATOM     22  C   UNL     1      -0.538  13.911  19.663  0.00  0.00    +0.000 A 
ATOM     23  N   UNL     1       0.412  13.415  18.894  0.00  0.00    +0.000 NA
ATOM     24  N   UNL     1       0.475  12.036  18.966  0.00  0.00    +0.000 NA
ATOM     25  C   UNL     1      -0.434  11.549  19.777  0.00  0.00    +0.000 A 
ATOM     26  N   UNL     1      -0.651  10.155  19.900  0.00  0.00    +0.000 N 
ATOM     27  S   UNL     1      -1.439  12.715  20.515  0.00  0.00    +0.000 S 
ATOM     28  H   UNL     1      -1.599   9.933  20.198  0.00  0.00    +0.000 HD
BRANCH  22  30
ATOM     29  C   UNL     1      -0.290  16.171  18.632  0.00  0.00    +0.000 C 
ATOM     30  C   UNL     1      -0.851  15.366  19.794  0.00  0.00    +0.000 C 
ENDBRANCH  22  30
ENDBRANCH  19  26
ENDBRANCH   1  19
TORSDOF 4
ENDMDL
MODEL 9
REMARK VINA RESULT:      -8.2      2.086      2.682
REMARK  Name = 
REMARK  5 active torsions:
REMARK  status: ('A' for Active; 'I' for Inactive)
REMARK    1  A    between atoms: C_1  and  C_2
REMARK    2  A    between atoms: C_2  and  C_3
REMARK    3  A    between atoms: N_7  and  S_8
REMARK    4  A    between atoms: S_8  and  C_11
REMARK    5  A    between atoms: C_14  and  N_15
REMARK                            x       y       z     vdW  Elec       q    Type
REMARK                         _______ _______ _______ _____ _____    ______ ____
ROOT
ATOM      1  C   UNL     1       2.206   7.349  18.958  0.00  0.00    +0.000 A 
ATOM      2  C   UNL     1       1.783   7.860  20.177  0.00  0.00    +0.000 A 
ATOM      3  C   UNL     1       1.230   9.148  20.243  0.00  0.00    +0.000 A 
ATOM      4  C   UNL     1       1.100   9.949  19.095  0.00  0.00    +0.000 A 
ATOM      5  C   UNL     1       1.521   9.397  17.872  0.00  0.00    +0.000 A 
ATOM      6  C   UNL     1       2.082   8.115  17.798  0.00  0.00    +0.000 A 
ENDROOT
BRANCH   4   7
ATOM      7  N   UNL     1       0.690  11.318  19.180  0.00  0.00    +0.000 N 
ATOM      8  C   UNL     1       1.448  12.392  18.767  0.00  0.00    +0.000 C 
ATOM      9  O   UNL     1       2.644  12.444  18.531  0.00  0.00    +0.000 OA
ATOM     10  C   UNL     1       0.519  13.553  18.505  0.00  0.00    +0.000 C 
ATOM     11  C   UNL     1       1.150  14.910  18.796  0.00  0.00    +0.000 C 
ATOM     12  C   UNL     1       0.634  15.620  20.001  0.00  0.00    +0.000 C 
ATOM     13  C   UNL     1      -0.463  15.250  20.664  0.00  0.00    +0.000 C 
ATOM     14 CL   UNL     1      -1.020  16.206  21.994  0.00  0.00    +0.000 Cl
ATOM     15  C   UNL     1      -1.319  14.078  20.308  0.00  0.00    +0.000 C 
ATOM     16  C   UNL     1      -0.776  13.168  19.204  0.00  0.00    +0.000 C 
ATOM     17  C   UNL     1      -0.529  11.746  19.663  0.00  0.00    +0.000 C 
ATOM     18  O   UNL     1      -1.328  11.125  20.349  0.00  0.00    +0.000 OA
ENDBRANCH   4   7
BRANCH   1  19
ATOM     19  S   UNL     1       2.942   5.739  18.917  0.00  0.00    +0.000 S 
ATOM     20  O   UNL     1       2.387   5.015  17.797  0.00  0.00    +0.000 OA
ATOM     21  O   UNL     1       2.880   5.190  20.257  0.00  0.00    +0.000 OA
BRANCH  19  26
ATOM     22  C   UNL     1       6.039   5.071  15.369  0.00  0.00    +0.000 A 
ATOM     23  N   UNL     1       5.492   6.263  15.235  0.00  0.00    +0.000 NA
ATOM     24  N   UNL     1       4.882   6.690  16.400  0.00  0.00    +0.000 NA
ATOM     25  C   UNL     1       5.002   5.809  17.364  0.00  0.00    +0.000 A 
ATOM     26  N   UNL     1       4.579   6.091  18.686  0.00  0.00    +0.000 N 
ATOM     27  S   UNL     1       5.864   4.396  16.944  0.00  0.00    +0.000 S 
ATOM     28  H   UNL     1       5.086   5.547  19.381  0.00  0.00    +0.000 HD
BRANCH  22  30
ATOM     29  C   UNL     1       5.824   3.791  13.236  0.00  0.00    +0.000 C 
ATOM     30  C   UNL     1       6.773   4.347  14.287  0.00  0.00    +0.000 C 
ENDBRANCH  22  30
ENDBRANCH  19  26
ENDBRANCH   1  19
TORSDOF 4
ENDMDL
