MODEL 1
REMARK VINA RESULT:      -7.2      0.000      0.000
REMARK  Name = 
REMARK  9 active torsions:
REMARK  status: ('A' for Active; 'I' for Inactive)
REMARK    1  A    between atoms: C_1  and  C_2
REMARK    2  A    between atoms: C_2  and  C_3
REMARK    3  A    between atoms: C_3  and  O_4
REMARK    4  A    between atoms: O_4  and  C_5
REMARK    5  A    between atoms: C_8  and  N_9
REMARK    6  A    between atoms: C_16  and  C_17
REMARK    7  A    between atoms: C_17  and  C_18
REMARK    8  A    between atoms: C_20  and  C_21
REMARK    9  A    between atoms: C_23  and  C_24
REMARK                            x       y       z     vdW  Elec       q    Type
REMARK                         _______ _______ _______ _____ _____    ______ ____
ROOT
ATOM      1  N   UNL     1       2.571   7.338  18.480  0.00  0.00    +0.000 N 
ATOM      2  C   UNL     1       2.058   7.105  19.847  0.00  0.00    +0.000 C 
ATOM      3  C   UNL     1       1.673   8.458  20.486  0.00  0.00    +0.000 C 
ATOM      4  N   UNL     1       0.729   9.197  19.627  0.00  0.00    +0.000 N 
ATOM      5  C   UNL     1      -0.062  10.149  20.177  0.00  0.00    +0.000 A 
ATOM      6  N   UNL     1      -0.901  10.970  19.528  0.00  0.00    +0.000 NA
ATOM      7  O   UNL     1      -1.431  11.770  20.534  0.00  0.00    +0.000 OA
ATOM      8  C   UNL     1      -0.851  11.353  21.691  0.00  0.00    +0.000 A 
ATOM      9  N   UNL     1      -0.025  10.350  21.531  0.00  0.00    +0.000 NA
ATOM     10  C   UNL     1       1.135   9.346  18.206  0.00  0.00    +0.000 C 
ATOM     11  C   UNL     1       2.261  10.384  18.082  0.00  0.00    +0.000 C 
ATOM     12  C   UNL     1       1.539   7.957  17.619  0.00  0.00    +0.000 C 
ENDROOT
BRANCH   1  16
ATOM     13  C   UNL     1       5.313   4.804  16.491  0.00  0.00    +0.000 A 
ATOM     14  C   UNL     1       5.639   6.127  16.747  0.00  0.00    +0.000 A 
ATOM     15  C   UNL     1       4.744   6.940  17.457  0.00  0.00    +0.000 A 
ATOM     16  C   UNL     1       3.504   6.467  17.930  0.00  0.00    +0.000 A 
ATOM     17  C   UNL     1       3.216   5.098  17.720  0.00  0.00    +0.000 A 
ATOM     18  C   UNL     1       1.913   4.437  18.072  0.00  0.00    +0.000 C 
ATOM     19  C   UNL     1       4.122   4.296  16.996  0.00  0.00    +0.000 A 
BRANCH  13  20
ATOM     20  O   UNL     1       6.044   3.912  15.759  0.00  0.00    +0.000 OA
BRANCH  20  21
ATOM     21  C   UNL     1       6.571   4.384  14.521  0.00  0.00    +0.000 C 
BRANCH  21  23
ATOM     22  C   UNL     1       6.603   3.598  12.138  0.00  0.00    +0.000 C 
ATOM     23  C   UNL     1       5.762   3.760  13.391  0.00  0.00    +0.000 C 
ENDBRANCH  21  23
ENDBRANCH  20  21
ENDBRANCH  13  20
ENDBRANCH   1  16
BRANCH   8  24
ATOM     24  C   UNL     1      -1.166  12.123  22.912  0.00  0.00    +0.000 C 
ATOM     25  C   UNL     1      -2.672  12.243  23.084  0.00  0.00    +0.000 C 
ENDBRANCH   8  24
TORSDOF 5
ENDMDL
MODEL 2
REMARK VINA RESULT:      -7.1      1.530      2.689
REMARK  Name = 
REMARK  9 active torsions:
REMARK  status: ('A' for Active; 'I' for Inactive)
REMARK    1  A    between atoms: C_1  and  C_2
REMARK    2  A    between atoms: C_2  and  C_3
REMARK    3  A    between atoms: C_3  and  O_4
REMARK    4  A    between atoms: O_4  and  C_5
REMARK    5  A    between atoms: C_8  and  N_9
REMARK    6  A    between atoms: C_16  and  C_17
REMARK    7  A    between atoms: C_17  and  C_18
REMARK    8  A    between atoms: C_20  and  C_21
REMARK    9  A    between atoms: C_23  and  C_24
REMARK                            x       y       z     vdW  Elec       q    Type
REMARK                         _______ _______ _______ _____ _____    ______ ____
ROOT
ATOM      1  N   UNL     1       3.907   6.168  17.766  0.00  0.00    +0.000 N 
ATOM      2  C   UNL     1       3.678   7.607  17.515  0.00  0.00    +0.000 C 
ATOM      3  C   UNL     1       2.343   8.033  18.167  0.00  0.00    +0.000 C 
ATOM      4  N   UNL     1       2.319   7.680  19.599  0.00  0.00    +0.000 N 
ATOM      5  C   UNL     1       1.480   8.341  20.431  0.00  0.00    +0.000 A 
ATOM      6  N   UNL     1       1.269   8.085  21.730  0.00  0.00    +0.000 NA
ATOM      7  O   UNL     1       0.300   9.010  22.101  0.00  0.00    +0.000 OA
ATOM      8  C   UNL     1       0.019   9.729  20.982  0.00  0.00    +0.000 A 
ATOM      9  N   UNL     1       0.730   9.377  19.941  0.00  0.00    +0.000 NA
ATOM     10  C   UNL     1       2.674   6.274  19.919  0.00  0.00    +0.000 C 
ATOM     11  C   UNL     1       1.519   5.335  19.537  0.00  0.00    +0.000 C 
ATOM     12  C   UNL     1       4.012   5.888  19.216  0.00  0.00    +0.000 C 
ENDROOT
BRANCH   1  16
ATOM     13  C   UNL     1       5.901   3.963  14.757  0.00  0.00    +0.000 A 
ATOM     14  C   UNL     1       6.142   5.320  14.909  0.00  0.00    +0.000 A 
ATOM     15  C   UNL     1       5.518   6.026  15.946  0.00  0.00    +0.000 A 
ATOM     16  C   UNL     1       4.637   5.412  16.858  0.00  0.00    +0.000 A 
ATOM     17  C   UNL     1       4.454   4.014  16.731  0.00  0.00    +0.000 A 
ATOM     18  C   UNL     1       3.490   3.203  17.550  0.00  0.00    +0.000 C 
ATOM     19  C   UNL     1       5.082   3.320  15.676  0.00  0.00    +0.000 A 
BRANCH  13  20
ATOM     20  O   UNL     1       6.377   3.157  13.761  0.00  0.00    +0.000 OA
BRANCH  20  21
ATOM     21  C   UNL     1       6.285   3.665  12.432  0.00  0.00    +0.000 C 
BRANCH  21  23
ATOM     22  C   UNL     1       4.073   3.278  11.311  0.00  0.00    +0.000 C 
ATOM     23  C   UNL     1       5.442   2.697  11.611  0.00  0.00    +0.000 C 
ENDBRANCH  21  23
ENDBRANCH  20  21
ENDBRANCH  13  20
ENDBRANCH   1  16
BRANCH   8  24
ATOM     24  C   UNL     1      -1.073  10.720  21.081  0.00  0.00    +0.000 C 
ATOM     25  C   UNL     1      -1.043  11.403  22.439  0.00  0.00    +0.000 C 
ENDBRANCH   8  24
TORSDOF 5
ENDMDL
MODEL 3
REMARK VINA RESULT:      -6.6      1.613      2.715
REMARK  Name = 
REMARK  9 active torsions:
REMARK  status: ('A' for Active; 'I' for Inactive)
REMARK    1  A    between atoms: C_1  and  C_2
REMARK    2  A    between atoms: C_2  and  C_3
REMARK    3  A    between atoms: C_3  and  O_4
REMARK    4  A    between atoms: O_4  and  C_5
REMARK    5  A    between atoms: C_8  and  N_9
REMARK    6  A    between atoms: C_16  and  C_17
REMARK    7  A    between atoms: C_17  and  C_18
REMARK    8  A    between atoms: C_20  and  C_21
REMARK    9  A    between atoms: C_23  and  C_24
REMARK                            x       y       z     vdW  Elec       q    Type
REMARK                         _______ _______ _______ _____ _____    ______ ____
ROOT
ATOM      1  N   UNL     1       1.615   8.518  19.526  0.00  0.00    +0.000 N 
ATOM      2  C   UNL     1       1.157   9.600  18.629  0.00  0.00    +0.000 C 
ATOM      3  C   UNL     1      -0.212  10.125  19.118  0.00  0.00    +0.000 C 
ATOM      4  N   UNL     1      -0.144  10.532  20.535  0.00  0.00    +0.000 N 
ATOM      5  C   UNL     1      -1.055  11.411  21.016  0.00  0.00    +0.000 A 
ATOM      6  N   UNL     1      -1.191  11.811  22.289  0.00  0.00    +0.000 NA
ATOM      7  O   UNL     1      -2.283  12.670  22.255  0.00  0.00    +0.000 OA
ATOM      8  C   UNL     1      -2.701  12.697  20.962  0.00  0.00    +0.000 A 
ATOM      9  N   UNL     1      -1.970  11.964  20.160  0.00  0.00    +0.000 NA
ATOM     10  C   UNL     1       0.434   9.528  21.464  0.00  0.00    +0.000 C 
ATOM     11  C   UNL     1      -0.569   8.389  21.705  0.00  0.00    +0.000 C 
ATOM     12  C   UNL     1       1.798   9.012  20.910  0.00  0.00    +0.000 C 
ENDROOT
BRANCH   1  16
ATOM     13  C   UNL     1       3.863   5.388  17.782  0.00  0.00    +0.000 A 
ATOM     14  C   UNL     1       3.949   6.678  17.281  0.00  0.00    +0.000 A 
ATOM     15  C   UNL     1       3.243   7.716  17.903  0.00  0.00    +0.000 A 
ATOM     16  C   UNL     1       2.431   7.506  19.036  0.00  0.00    +0.000 A 
ATOM     17  C   UNL     1       2.407   6.198  19.576  0.00  0.00    +0.000 A 
ATOM     18  C   UNL     1       1.536   5.765  20.721  0.00  0.00    +0.000 C 
ATOM     19  C   UNL     1       3.116   5.163  18.932  0.00  0.00    +0.000 A 
BRANCH  13  20
ATOM     20  O   UNL     1       4.433   4.267  17.249  0.00  0.00    +0.000 OA
BRANCH  20  21
ATOM     21  C   UNL     1       5.820   4.350  16.926  0.00  0.00    +0.000 C 
BRANCH  21  23
ATOM     22  C   UNL     1       5.700   4.811  14.463  0.00  0.00    +0.000 C 
ATOM     23  C   UNL     1       6.017   3.778  15.528  0.00  0.00    +0.000 C 
ENDBRANCH  21  23
ENDBRANCH  20  21
ENDBRANCH  13  20
ENDBRANCH   1  16
BRANCH   8  24
ATOM     24  C   UNL     1      -3.931  13.461  20.671  0.00  0.00    +0.000 C 
ATOM     25  C   UNL     1      -5.158  12.659  21.078  0.00  0.00    +0.000 C 
ENDBRANCH   8  24
TORSDOF 5
ENDMDL
MODEL 4
REMARK VINA RESULT:      -6.5      3.033      4.933
REMARK  Name = 
REMARK  9 active torsions:
REMARK  status: ('A' for Active; 'I' for Inactive)
REMARK    1  A    between atoms: C_1  and  C_2
REMARK    2  A    between atoms: C_2  and  C_3
REMARK    3  A    between atoms: C_3  and  O_4
REMARK    4  A    between atoms: O_4  and  C_5
REMARK    5  A    between atoms: C_8  and  N_9
REMARK    6  A    between atoms: C_16  and  C_17
REMARK    7  A    between atoms: C_17  and  C_18
REMARK    8  A    between atoms: C_20  and  C_21
REMARK    9  A    between atoms: C_23  and  C_24
REMARK                            x       y       z     vdW  Elec       q    Type
REMARK                         _______ _______ _______ _____ _____    ______ ____
ROOT
ATOM      1  N   UNL     1       0.314  10.645  19.765  0.00  0.00    +0.000 N 
ATOM      2  C   UNL     1      -0.743  11.112  18.844  0.00  0.00    +0.000 C 
ATOM      3  C   UNL     1      -1.928  11.669  19.666  0.00  0.00    +0.000 C 
ATOM      4  N   UNL     1      -1.474  12.709  20.608  0.00  0.00    +0.000 N 
ATOM      5  C   UNL     1      -2.365  13.615  21.075  0.00  0.00    +0.000 A 
ATOM      6  N   UNL     1      -2.141  14.561  21.999  0.00  0.00    +0.000 NA
ATOM      7  O   UNL     1      -3.374  15.184  22.147  0.00  0.00    +0.000 OA
ATOM      8  C   UNL     1      -4.223  14.545  21.298  0.00  0.00    +0.000 A 
ATOM      9  N   UNL     1      -3.650  13.595  20.602  0.00  0.00    +0.000 NA
ATOM     10  C   UNL     1      -0.322  12.337  21.469  0.00  0.00    +0.000 C 
ATOM     11  C   UNL     1      -0.774  11.359  22.565  0.00  0.00    +0.000 C 
ATOM     12  C   UNL     1       0.832  11.757  20.593  0.00  0.00    +0.000 C 
ENDROOT
BRANCH   1  16
ATOM     13  C   UNL     1       2.616   7.352  18.442  0.00  0.00    +0.000 A 
ATOM     14  C   UNL     1       2.412   8.444  17.613  0.00  0.00    +0.000 A 
ATOM     15  C   UNL     1       1.696   9.553  18.084  0.00  0.00    +0.000 A 
ATOM     16  C   UNL     1       1.159   9.610  19.385  0.00  0.00    +0.000 A 
ATOM     17  C   UNL     1       1.433   8.516  20.242  0.00  0.00    +0.000 A 
ATOM     18  C   UNL     1       0.873   8.358  21.627  0.00  0.00    +0.000 C 
ATOM     19  C   UNL     1       2.148   7.405  19.749  0.00  0.00    +0.000 A 
BRANCH  13  20
ATOM     20  O   UNL     1       3.230   6.178  18.108  0.00  0.00    +0.000 OA
BRANCH  20  21
ATOM     21  C   UNL     1       2.769   5.005  18.775  0.00  0.00    +0.000 C 
BRANCH  21  23
ATOM     22  C   UNL     1       1.106   3.153  18.465  0.00  0.00    +0.000 C 
ATOM     23  C   UNL     1       2.010   4.152  17.768  0.00  0.00    +0.000 C 
ENDBRANCH  21  23
ENDBRANCH  20  21
ENDBRANCH  13  20
ENDBRANCH   1  16
BRANCH   8  24
ATOM     24  C   UNL     1      -5.643  14.950  21.341  0.00  0.00    +0.000 C 
ATOM     25  C   UNL     1      -6.136  14.985  22.779  0.00  0.00    +0.000 C 
ENDBRANCH   8  24
TORSDOF 5
ENDMDL
MODEL 5
REMARK VINA RESULT:      -6.5      2.655      4.183
REMARK  Name = 
REMARK  9 active torsions:
REMARK  status: ('A' for Active; 'I' for Inactive)
REMARK    1  A    between atoms: C_1  and  C_2
REMARK    2  A    between atoms: C_2  and  C_3
REMARK    3  A    between atoms: C_3  and  O_4
REMARK    4  A    between atoms: O_4  and  C_5
REMARK    5  A    between atoms: C_8  and  N_9
REMARK    6  A    between atoms: C_16  and  C_17
REMARK    7  A    between atoms: C_17  and  C_18
REMARK    8  A    between atoms: C_20  and  C_21
REMARK    9  A    between atoms: C_23  and  C_24
REMARK                            x       y       z     vdW  Elec       q    Type
REMARK                         _______ _______ _______ _____ _____    ______ ____
ROOT
ATOM      1  N   UNL     1       0.641   9.878  19.299  0.00  0.00    +0.000 N 
ATOM      2  C   UNL     1      -0.430  10.158  18.320  0.00  0.00    +0.000 C 
ATOM      3  C   UNL     1      -1.683  10.671  19.066  0.00  0.00    +0.000 C 
ATOM      4  N   UNL     1      -1.353  11.830  19.916  0.00  0.00    +0.000 N 
ATOM      5  C   UNL     1      -2.336  12.686  20.282  0.00  0.00    +0.000 A 
ATOM      6  N   UNL     1      -2.226  13.728  21.119  0.00  0.00    +0.000 NA
ATOM      7  O   UNL     1      -3.515  14.242  21.187  0.00  0.00    +0.000 OA
ATOM      8  C   UNL     1      -4.278  13.452  20.386  0.00  0.00    +0.000 A 
ATOM      9  N   UNL     1      -3.601  12.501  19.791  0.00  0.00    +0.000 NA
ATOM     10  C   UNL     1      -0.194  11.648  20.828  0.00  0.00    +0.000 C 
ATOM     11  C   UNL     1      -0.582  10.735  22.002  0.00  0.00    +0.000 C 
ATOM     12  C   UNL     1       1.032  11.104  20.031  0.00  0.00    +0.000 C 
ENDROOT
BRANCH   1  16
ATOM     13  C   UNL     1       3.284   6.733  18.291  0.00  0.00    +0.000 A 
ATOM     14  C   UNL     1       3.103   7.802  17.426  0.00  0.00    +0.000 A 
ATOM     15  C   UNL     1       2.268   8.864  17.798  0.00  0.00    +0.000 A 
ATOM     16  C   UNL     1       1.588   8.898  19.032  0.00  0.00    +0.000 A 
ATOM     17  C   UNL     1       1.837   7.833  19.931  0.00  0.00    +0.000 A 
ATOM     18  C   UNL     1       1.140   7.651  21.249  0.00  0.00    +0.000 C 
ATOM     19  C   UNL     1       2.672   6.767  19.538  0.00  0.00    +0.000 A 
BRANCH  13  20
ATOM     20  O   UNL     1       4.007   5.599  18.046  0.00  0.00    +0.000 OA
BRANCH  20  21
ATOM     21  C   UNL     1       4.761   5.076  19.137  0.00  0.00    +0.000 C 
BRANCH  21  23
ATOM     22  C   UNL     1       3.903   3.055  17.922  0.00  0.00    +0.000 C 
ATOM     23  C   UNL     1       4.509   3.576  19.212  0.00  0.00    +0.000 C 
ENDBRANCH  21  23
ENDBRANCH  20  21
ENDBRANCH  13  20
ENDBRANCH   1  16
BRANCH   8  24
ATOM     24  C   UNL     1      -5.730  13.722  20.366  0.00  0.00    +0.000 C 
ATOM     25  C   UNL     1      -6.461  12.733  21.261  0.00  0.00    +0.000 C 
ENDBRANCH   8  24
TORSDOF 5
ENDMDL
MODEL 6
REMARK VINA RESULT:      -6.4      2.735     10.515
REMARK  Name = 
REMARK  9 active torsions:
REMARK  status: ('A' for Active; 'I' for Inactive)
REMARK    1  A    between atoms: C_1  and  C_2
REMARK    2  A    between atoms: C_2  and  C_3
REMARK    3  A    between atoms: C_3  and  O_4
REMARK    4  A    between atoms: O_4  and  C_5
REMARK    5  A    between atoms: C_8  and  N_9
REMARK    6  A    between atoms: C_16  and  C_17
REMARK    7  A    between atoms: C_17  and  C_18
REMARK    8  A    between atoms: C_20  and  C_21
REMARK    9  A    between atoms: C_23  and  C_24
REMARK                            x       y       z     vdW  Elec       q    Type
REMARK                         _______ _______ _______ _____ _____    ______ ____
ROOT
ATOM      1  N   UNL     1      -1.114  11.506  20.900  0.00  0.00    +0.000 N 
ATOM      2  C   UNL     1      -0.206  10.591  21.623  0.00  0.00    +0.000 C 
ATOM      3  C   UNL     1       0.216   9.440  20.683  0.00  0.00    +0.000 C 
ATOM      4  N   UNL     1       0.794   9.966  19.432  0.00  0.00    +0.000 N 
ATOM      5  C   UNL     1       1.615   9.179  18.698  0.00  0.00    +0.000 A 
ATOM      6  N   UNL     1       2.147   9.466  17.501  0.00  0.00    +0.000 NA
ATOM      7  O   UNL     1       2.867   8.323  17.171  0.00  0.00    +0.000 OA
ATOM      8  C   UNL     1       2.691   7.457  18.204  0.00  0.00    +0.000 A 
ATOM      9  N   UNL     1       1.955   7.939  19.173  0.00  0.00    +0.000 NA
ATOM     10  C   UNL     1      -0.020  10.992  18.730  0.00  0.00    +0.000 C 
ATOM     11  C   UNL     1      -1.228  10.333  18.046  0.00  0.00    +0.000 C 
ATOM     12  C   UNL     1      -0.441  12.114  19.730  0.00  0.00    +0.000 C 
ENDROOT
BRANCH   1  16
ATOM     13  C   UNL     1      -4.163  13.388  23.147  0.00  0.00    +0.000 A 
ATOM     14  C   UNL     1      -2.959  13.050  23.744  0.00  0.00    +0.000 A 
ATOM     15  C   UNL     1      -1.936  12.479  22.974  0.00  0.00    +0.000 A 
ATOM     16  C   UNL     1      -2.078  12.224  21.596  0.00  0.00    +0.000 A 
ATOM     17  C   UNL     1      -3.288  12.637  20.988  0.00  0.00    +0.000 A 
ATOM     18  C   UNL     1      -3.656  12.370  19.556  0.00  0.00    +0.000 C 
ATOM     19  C   UNL     1      -4.311  13.201  21.778  0.00  0.00    +0.000 A 
BRANCH  13  20
ATOM     20  O   UNL     1      -5.272  13.886  23.773  0.00  0.00    +0.000 OA
BRANCH  20  21
ATOM     21  C   UNL     1      -6.113  12.938  24.428  0.00  0.00    +0.000 C 
BRANCH  21  23
ATOM     22  C   UNL     1      -7.895  12.126  22.858  0.00  0.00    +0.000 C 
ATOM     23  C   UNL     1      -7.537  13.142  23.928  0.00  0.00    +0.000 C 
ENDBRANCH  21  23
ENDBRANCH  20  21
ENDBRANCH  13  20
ENDBRANCH   1  16
BRANCH   8  24
ATOM     24  C   UNL     1       3.271   6.107  18.051  0.00  0.00    +0.000 C 
ATOM     25  C   UNL     1       4.428   6.140  17.064  0.00  0.00    +0.000 C 
ENDBRANCH   8  24
TORSDOF 5
ENDMDL
MODEL 7
REMARK VINA RESULT:      -6.4      2.395      4.141
REMARK  Name = 
REMARK  9 active torsions:
REMARK  status: ('A' for Active; 'I' for Inactive)
REMARK    1  A    between atoms: C_1  and  C_2
REMARK    2  A    between atoms: C_2  and  C_3
REMARK    3  A    between atoms: C_3  and  O_4
REMARK    4  A    between atoms: O_4  and  C_5
REMARK    5  A    between atoms: C_8  and  N_9
REMARK    6  A    between atoms: C_16  and  C_17
REMARK    7  A    between atoms: C_17  and  C_18
REMARK    8  A    between atoms: C_20  and  C_21
REMARK    9  A    between atoms: C_23  and  C_24
REMARK                            x       y       z     vdW  Elec       q    Type
REMARK                         _______ _______ _______ _____ _____    ______ ____
ROOT
ATOM      1  N   UNL     1       0.642   9.935  19.350  0.00  0.00    +0.000 N 
ATOM      2  C   UNL     1      -0.445  10.231  18.393  0.00  0.00    +0.000 C 
ATOM      3  C   UNL     1      -1.674  10.764  19.163  0.00  0.00    +0.000 C 
ATOM      4  N   UNL     1      -1.308  11.919  20.005  0.00  0.00    +0.000 N 
ATOM      5  C   UNL     1      -2.270  12.790  20.390  0.00  0.00    +0.000 A 
ATOM      6  N   UNL     1      -2.126  13.831  21.223  0.00  0.00    +0.000 NA
ATOM      7  O   UNL     1      -3.406  14.366  21.316  0.00  0.00    +0.000 OA
ATOM      8  C   UNL     1      -4.197  13.587  20.531  0.00  0.00    +0.000 A 
ATOM      9  N   UNL     1      -3.548  12.626  19.924  0.00  0.00    +0.000 NA
ATOM     10  C   UNL     1      -0.135  11.719  20.894  0.00  0.00    +0.000 C 
ATOM     11  C   UNL     1      -0.513  10.813  22.076  0.00  0.00    +0.000 C 
ATOM     12  C   UNL     1       1.066  11.155  20.072  0.00  0.00    +0.000 C 
ENDROOT
BRANCH   1  16
ATOM     13  C   UNL     1       3.216   6.752  18.286  0.00  0.00    +0.000 A 
ATOM     14  C   UNL     1       3.056   7.838  17.439  0.00  0.00    +0.000 A 
ATOM     15  C   UNL     1       2.244   8.911  17.830  0.00  0.00    +0.000 A 
ATOM     16  C   UNL     1       1.567   8.939  19.065  0.00  0.00    +0.000 A 
ATOM     17  C   UNL     1       1.795   7.855  19.946  0.00  0.00    +0.000 A 
ATOM     18  C   UNL     1       1.095   7.666  21.262  0.00  0.00    +0.000 C 
ATOM     19  C   UNL     1       2.607   6.778  19.534  0.00  0.00    +0.000 A 
BRANCH  13  20
ATOM     20  O   UNL     1       3.914   5.607  18.020  0.00  0.00    +0.000 OA
BRANCH  20  21
ATOM     21  C   UNL     1       5.270   5.572  18.460  0.00  0.00    +0.000 C 
BRANCH  21  23
ATOM     22  C   UNL     1       7.026   7.045  17.440  0.00  0.00    +0.000 C 
ATOM     23  C   UNL     1       6.168   5.807  17.253  0.00  0.00    +0.000 C 
ENDBRANCH  21  23
ENDBRANCH  20  21
ENDBRANCH  13  20
ENDBRANCH   1  16
BRANCH   8  24
ATOM     24  C   UNL     1      -5.645  13.880  20.541  0.00  0.00    +0.000 C 
ATOM     25  C   UNL     1      -6.329  13.191  19.370  0.00  0.00    +0.000 C 
ENDBRANCH   8  24
TORSDOF 5
ENDMDL
MODEL 8
REMARK VINA RESULT:      -6.4      2.293      3.377
REMARK  Name = 
REMARK  9 active torsions:
REMARK  status: ('A' for Active; 'I' for Inactive)
REMARK    1  A    between atoms: C_1  and  C_2
REMARK    2  A    between atoms: C_2  and  C_3
REMARK    3  A    between atoms: C_3  and  O_4
REMARK    4  A    between atoms: O_4  and  C_5
REMARK    5  A    between atoms: C_8  and  N_9
REMARK    6  A    between atoms: C_16  and  C_17
REMARK    7  A    between atoms: C_17  and  C_18
REMARK    8  A    between atoms: C_20  and  C_21
REMARK    9  A    between atoms: C_23  and  C_24
REMARK                            x       y       z     vdW  Elec       q    Type
REMARK                         _______ _______ _______ _____ _____    ______ ____
ROOT
ATOM      1  N   UNL     1       1.391   8.919  19.199  0.00  0.00    +0.000 N 
ATOM      2  C   UNL     1       0.666   9.669  18.152  0.00  0.00    +0.000 C 
ATOM      3  C   UNL     1      -0.721  10.087  18.690  0.00  0.00    +0.000 C 
ATOM      4  N   UNL     1      -0.592  10.831  19.958  0.00  0.00    +0.000 N 
ATOM      5  C   UNL     1      -1.594  11.653  20.348  0.00  0.00    +0.000 A 
ATOM      6  N   UNL     1      -1.678  12.327  21.505  0.00  0.00    +0.000 NA
ATOM      7  O   UNL     1      -2.903  12.978  21.426  0.00  0.00    +0.000 OA
ATOM      8  C   UNL     1      -3.440  12.626  20.228  0.00  0.00    +0.000 A 
ATOM      9  N   UNL     1      -2.670  11.838  19.520  0.00  0.00    +0.000 NA
ATOM     10  C   UNL     1       0.240  10.181  21.002  0.00  0.00    +0.000 C 
ATOM     11  C   UNL     1      -0.518   8.998  21.625  0.00  0.00    +0.000 C 
ATOM     12  C   UNL     1       1.615   9.756  20.399  0.00  0.00    +0.000 C 
ENDROOT
BRANCH   1  16
ATOM     13  C   UNL     1       4.007   5.874  17.865  0.00  0.00    +0.000 A 
ATOM     14  C   UNL     1       3.974   7.101  17.222  0.00  0.00    +0.000 A 
ATOM     15  C   UNL     1       3.144   8.120  17.709  0.00  0.00    +0.000 A 
ATOM     16  C   UNL     1       2.324   7.952  18.842  0.00  0.00    +0.000 A 
ATOM     17  C   UNL     1       2.420   6.717  19.527  0.00  0.00    +0.000 A 
ATOM     18  C   UNL     1       1.562   6.323  20.696  0.00  0.00    +0.000 C 
ATOM     19  C   UNL     1       3.252   5.699  19.019  0.00  0.00    +0.000 A 
BRANCH  13  20
ATOM     20  O   UNL     1       4.708   4.767  17.474  0.00  0.00    +0.000 OA
BRANCH  20  21
ATOM     21  C   UNL     1       5.747   4.330  18.348  0.00  0.00    +0.000 C 
BRANCH  21  23
ATOM     22  C   UNL     1       7.593   5.980  18.751  0.00  0.00    +0.000 C 
ATOM     23  C   UNL     1       7.066   4.891  17.835  0.00  0.00    +0.000 C 
ENDBRANCH  21  23
ENDBRANCH  20  21
ENDBRANCH  13  20
ENDBRANCH   1  16
BRANCH   8  24
ATOM     24  C   UNL     1      -4.808  13.104  19.942  0.00  0.00    +0.000 C 
ATOM     25  C   UNL     1      -5.726  12.808  21.118  0.00  0.00    +0.000 C 
ENDBRANCH   8  24
TORSDOF 5
ENDMDL
MODEL 9
REMARK VINA RESULT:      -6.4      1.890      3.176
REMARK  Name = 
REMARK  9 active torsions:
REMARK  status: ('A' for Active; 'I' for Inactive)
REMARK    1  A    between atoms: C_1  and  C_2
REMARK    2  A    between atoms: C_2  and  C_3
REMARK    3  A    between atoms: C_3  and  O_4
REMARK    4  A    between atoms: O_4  and  C_5
REMARK    5  A    between atoms: C_8  and  N_9
REMARK    6  A    between atoms: C_16  and  C_17
REMARK    7  A    between atoms: C_17  and  C_18
REMARK    8  A    between atoms: C_20  and  C_21
REMARK    9  A    between atoms: C_23  and  C_24
REMARK                            x       y       z     vdW  Elec       q    Type
REMARK                         _______ _______ _______ _____ _____    ______ ____
ROOT
ATOM      1  N   UNL     1       1.493   8.691  19.823  0.00  0.00    +0.000 N 
ATOM      2  C   UNL     1       0.994   9.868  19.081  0.00  0.00    +0.000 C 
ATOM      3  C   UNL     1      -0.337  10.340  19.708  0.00  0.00    +0.000 C 
ATOM      4  N   UNL     1      -0.182  10.586  21.154  0.00  0.00    +0.000 N 
ATOM      5  C   UNL     1      -1.054  11.408  21.784  0.00  0.00    +0.000 A 
ATOM      6  N   UNL     1      -1.110  11.664  23.100  0.00  0.00    +0.000 NA
ATOM      7  O   UNL     1      -2.194  12.525  23.227  0.00  0.00    +0.000 OA
ATOM      8  C   UNL     1      -2.686  12.698  21.972  0.00  0.00    +0.000 A 
ATOM      9  N   UNL     1      -2.011  12.057  21.051  0.00  0.00    +0.000 NA
ATOM     10  C   UNL     1       0.439   9.481  21.929  0.00  0.00    +0.000 C 
ATOM     11  C   UNL     1      -0.560   8.326  22.101  0.00  0.00    +0.000 C 
ATOM     12  C   UNL     1       1.763   9.025  21.240  0.00  0.00    +0.000 C 
ENDROOT
BRANCH   1  16
ATOM     13  C   UNL     1       3.595   5.757  17.617  0.00  0.00    +0.000 A 
ATOM     14  C   UNL     1       3.629   7.087  17.226  0.00  0.00    +0.000 A 
ATOM     15  C   UNL     1       2.975   8.056  17.999  0.00  0.00    +0.000 A 
ATOM     16  C   UNL     1       2.268   7.737  19.175  0.00  0.00    +0.000 A 
ATOM     17  C   UNL     1       2.300   6.386  19.597  0.00  0.00    +0.000 A 
ATOM     18  C   UNL     1       1.535   5.842  20.770  0.00  0.00    +0.000 C 
ATOM     19  C   UNL     1       2.954   5.422  18.803  0.00  0.00    +0.000 A 
BRANCH  13  20
ATOM     20  O   UNL     1       4.122   4.695  16.938  0.00  0.00    +0.000 OA
BRANCH  20  21
ATOM     21  C   UNL     1       5.233   4.039  17.546  0.00  0.00    +0.000 C 
BRANCH  21  23
ATOM     22  C   UNL     1       7.434   5.170  17.959  0.00  0.00    +0.000 C 
ATOM     23  C   UNL     1       6.509   4.579  16.912  0.00  0.00    +0.000 C 
ENDBRANCH  21  23
ENDBRANCH  20  21
ENDBRANCH  13  20
ENDBRANCH   1  16
BRANCH   8  24
ATOM     24  C   UNL     1      -3.923  13.496  21.843  0.00  0.00    +0.000 C 
ATOM     25  C   UNL     1      -3.619  14.973  22.032  0.00  0.00    +0.000 C 
ENDBRANCH   8  24
TORSDOF 5
ENDMDL
