MODEL 1
REMARK VINA RESULT:      -7.6      0.000      0.000
REMARK  Name = 
REMARK  3 active torsions:
REMARK  status: ('A' for Active; 'I' for Inactive)
REMARK    1  A    between atoms: C_1  and  C_2
REMARK    2  A    between atoms: C_8  and  C_9
REMARK    3  A    between atoms: C_11  and  C_12
REMARK                            x       y       z     vdW  Elec       q    Type
REMARK                         _______ _______ _______ _____ _____    ______ ____
ROOT
ATOM      1  C   UNL     1       6.998   4.250  12.296  0.00  0.00    +0.000 C 
ATOM      2  C   UNL     1       7.012   4.722  13.726  0.00  0.00    +0.000 C 
ATOM      3  O   UNL     1       7.873   5.497  14.126  0.00  0.00    +0.000 OA
ATOM      4  N   UNL     1       5.965   4.209  14.470  0.00  0.00    +0.000 N 
ATOM      5  C   UNL     1       5.784   4.410  15.806  0.00  0.00    +0.000 C 
ATOM      6  N   UNL     1       6.492   5.161  16.575  0.00  0.00    +0.000 NA
ATOM      7  N   UNL     1       6.072   5.068  17.885  0.00  0.00    +0.000 N 
ATOM      8  C   UNL     1       6.861   5.581  18.905  0.00  0.00    +0.000 C 
ATOM      9  C   UNL     1       8.050   6.419  18.494  0.00  0.00    +0.000 C 
ATOM     10  O   UNL     1       6.630   5.379  20.099  0.00  0.00    +0.000 OA
ATOM     11  C   UNL     1       5.028   4.085  18.162  0.00  0.00    +0.000 C 
ATOM     12  S   UNL     1       4.483   3.504  16.509  0.00  0.00    +0.000 S 
ATOM     13  H   UNL     1       5.323   3.569  14.032  0.00  0.00    +0.000 HD
ENDROOT
BRANCH  11  14
ATOM     14  C   UNL     1       3.875   4.583  19.011  0.00  0.00    +0.000 A 
ATOM     15  C   UNL     1       3.347   5.876  18.883  0.00  0.00    +0.000 A 
ATOM     16  C   UNL     1       2.299   6.300  19.707  0.00  0.00    +0.000 A 
ATOM     17  C   UNL     1       1.772   5.444  20.671  0.00  0.00    +0.000 A 
ATOM     18  C   UNL     1       2.285   4.158  20.813  0.00  0.00    +0.000 A 
ATOM     19  C   UNL     1       3.327   3.731  19.989  0.00  0.00    +0.000 A 
ENDBRANCH  11  14
TORSDOF 1
ENDMDL
MODEL 2
REMARK VINA RESULT:      -7.6      0.107      1.141
REMARK  Name = 
REMARK  3 active torsions:
REMARK  status: ('A' for Active; 'I' for Inactive)
REMARK    1  A    between atoms: C_1  and  C_2
REMARK    2  A    between atoms: C_8  and  C_9
REMARK    3  A    between atoms: C_11  and  C_12
REMARK                            x       y       z     vdW  Elec       q    Type
REMARK                         _______ _______ _______ _____ _____    ______ ____
ROOT
ATOM      1  C   UNL     1       6.935   4.253  12.351  0.00  0.00    +0.000 C 
ATOM      2  C   UNL     1       6.968   4.720  13.781  0.00  0.00    +0.000 C 
ATOM      3  O   UNL     1       7.844   5.480  14.177  0.00  0.00    +0.000 OA
ATOM      4  N   UNL     1       5.918   4.222  14.532  0.00  0.00    +0.000 N 
ATOM      5  C   UNL     1       5.750   4.423  15.870  0.00  0.00    +0.000 C 
ATOM      6  N   UNL     1       6.476   5.161  16.635  0.00  0.00    +0.000 NA
ATOM      7  N   UNL     1       6.064   5.071  17.948  0.00  0.00    +0.000 N 
ATOM      8  C   UNL     1       6.868   5.569  18.964  0.00  0.00    +0.000 C 
ATOM      9  C   UNL     1       8.068   6.388  18.546  0.00  0.00    +0.000 C 
ATOM     10  O   UNL     1       6.643   5.367  20.159  0.00  0.00    +0.000 OA
ATOM     11  C   UNL     1       5.006   4.104  18.231  0.00  0.00    +0.000 C 
ATOM     12  S   UNL     1       4.440   3.536  16.581  0.00  0.00    +0.000 S 
ATOM     13  H   UNL     1       5.263   3.594  14.097  0.00  0.00    +0.000 HD
ENDROOT
BRANCH  11  14
ATOM     14  C   UNL     1       3.868   4.618  19.089  0.00  0.00    +0.000 A 
ATOM     15  C   UNL     1       3.239   3.826  20.062  0.00  0.00    +0.000 A 
ATOM     16  C   UNL     1       2.175   4.335  20.813  0.00  0.00    +0.000 A 
ATOM     17  C   UNL     1       1.721   5.635  20.599  0.00  0.00    +0.000 A 
ATOM     18  C   UNL     1       2.332   6.434  19.637  0.00  0.00    +0.000 A 
ATOM     19  C   UNL     1       3.398   5.930  18.889  0.00  0.00    +0.000 A 
ENDBRANCH  11  14
TORSDOF 1
ENDMDL
MODEL 3
REMARK VINA RESULT:      -6.6      2.064      2.990
REMARK  Name = 
REMARK  3 active torsions:
REMARK  status: ('A' for Active; 'I' for Inactive)
REMARK    1  A    between atoms: C_1  and  C_2
REMARK    2  A    between atoms: C_8  and  C_9
REMARK    3  A    between atoms: C_11  and  C_12
REMARK                            x       y       z     vdW  Elec       q    Type
REMARK                         _______ _______ _______ _____ _____    ______ ____
ROOT
ATOM      1  C   UNL     1       7.213   5.068  14.079  0.00  0.00    +0.000 C 
ATOM      2  C   UNL     1       6.109   5.555  14.979  0.00  0.00    +0.000 C 
ATOM      3  O   UNL     1       5.462   6.557  14.699  0.00  0.00    +0.000 OA
ATOM      4  N   UNL     1       5.922   4.744  16.084  0.00  0.00    +0.000 N 
ATOM      5  C   UNL     1       5.044   4.995  17.097  0.00  0.00    +0.000 C 
ATOM      6  N   UNL     1       4.197   5.962  17.161  0.00  0.00    +0.000 NA
ATOM      7  N   UNL     1       3.523   5.953  18.364  0.00  0.00    +0.000 N 
ATOM      8  C   UNL     1       2.768   7.054  18.745  0.00  0.00    +0.000 C 
ATOM      9  C   UNL     1       2.551   8.127  17.703  0.00  0.00    +0.000 C 
ATOM     10  O   UNL     1       2.287   7.180  19.873  0.00  0.00    +0.000 OA
ATOM     11  C   UNL     1       3.963   4.966  19.346  0.00  0.00    +0.000 C 
ATOM     12  S   UNL     1       5.147   3.899  18.438  0.00  0.00    +0.000 S 
ATOM     13  H   UNL     1       6.526   3.950  16.213  0.00  0.00    +0.000 HD
ENDROOT
BRANCH  11  14
ATOM     14  C   UNL     1       2.856   4.170  20.009  0.00  0.00    +0.000 A 
ATOM     15  C   UNL     1       2.854   3.877  21.381  0.00  0.00    +0.000 A 
ATOM     16  C   UNL     1       1.824   3.117  21.943  0.00  0.00    +0.000 A 
ATOM     17  C   UNL     1       0.788   2.636  21.145  0.00  0.00    +0.000 A 
ATOM     18  C   UNL     1       0.775   2.915  19.782  0.00  0.00    +0.000 A 
ATOM     19  C   UNL     1       1.800   3.678  19.219  0.00  0.00    +0.000 A 
ENDBRANCH  11  14
TORSDOF 1
ENDMDL
MODEL 4
REMARK VINA RESULT:      -6.5      2.494      5.447
REMARK  Name = 
REMARK  3 active torsions:
REMARK  status: ('A' for Active; 'I' for Inactive)
REMARK    1  A    between atoms: C_1  and  C_2
REMARK    2  A    between atoms: C_8  and  C_9
REMARK    3  A    between atoms: C_11  and  C_12
REMARK                            x       y       z     vdW  Elec       q    Type
REMARK                         _______ _______ _______ _____ _____    ______ ____
ROOT
ATOM      1  C   UNL     1       0.881   2.363  19.022  0.00  0.00    +0.000 C 
ATOM      2  C   UNL     1       2.005   2.857  18.151  0.00  0.00    +0.000 C 
ATOM      3  O   UNL     1       2.016   2.629  16.947  0.00  0.00    +0.000 OA
ATOM      4  N   UNL     1       2.949   3.583  18.854  0.00  0.00    +0.000 N 
ATOM      5  C   UNL     1       4.104   4.079  18.328  0.00  0.00    +0.000 C 
ATOM      6  N   UNL     1       4.472   4.031  17.095  0.00  0.00    +0.000 NA
ATOM      7  N   UNL     1       5.734   4.562  16.931  0.00  0.00    +0.000 N 
ATOM      8  C   UNL     1       6.422   4.366  15.742  0.00  0.00    +0.000 C 
ATOM      9  C   UNL     1       5.647   3.754  14.598  0.00  0.00    +0.000 C 
ATOM     10  O   UNL     1       7.609   4.662  15.597  0.00  0.00    +0.000 OA
ATOM     11  C   UNL     1       6.436   4.952  18.152  0.00  0.00    +0.000 C 
ATOM     12  S   UNL     1       5.181   4.798  19.481  0.00  0.00    +0.000 S 
ATOM     13  H   UNL     1       2.836   3.695  19.848  0.00  0.00    +0.000 HD
ENDROOT
BRANCH  11  14
ATOM     14  C   UNL     1       7.082   6.323  18.120  0.00  0.00    +0.000 A 
ATOM     15  C   UNL     1       8.176   6.660  18.932  0.00  0.00    +0.000 A 
ATOM     16  C   UNL     1       8.724   7.946  18.887  0.00  0.00    +0.000 A 
ATOM     17  C   UNL     1       8.184   8.911  18.039  0.00  0.00    +0.000 A 
ATOM     18  C   UNL     1       7.098   8.594  17.229  0.00  0.00    +0.000 A 
ATOM     19  C   UNL     1       6.553   7.310  17.268  0.00  0.00    +0.000 A 
ENDBRANCH  11  14
TORSDOF 1
ENDMDL
MODEL 5
REMARK VINA RESULT:      -6.5      2.533      5.327
REMARK  Name = 
REMARK  3 active torsions:
REMARK  status: ('A' for Active; 'I' for Inactive)
REMARK    1  A    between atoms: C_1  and  C_2
REMARK    2  A    between atoms: C_8  and  C_9
REMARK    3  A    between atoms: C_11  and  C_12
REMARK                            x       y       z     vdW  Elec       q    Type
REMARK                         _______ _______ _______ _____ _____    ______ ____
ROOT
ATOM      1  C   UNL     1       0.867   2.375  18.713  0.00  0.00    +0.000 C 
ATOM      2  C   UNL     1       2.048   2.856  17.913  0.00  0.00    +0.000 C 
ATOM      3  O   UNL     1       2.168   2.567  16.729  0.00  0.00    +0.000 OA
ATOM      4  N   UNL     1       2.912   3.644  18.654  0.00  0.00    +0.000 N 
ATOM      5  C   UNL     1       4.095   4.145  18.200  0.00  0.00    +0.000 C 
ATOM      6  N   UNL     1       4.568   4.044  17.007  0.00  0.00    +0.000 NA
ATOM      7  N   UNL     1       5.825   4.603  16.921  0.00  0.00    +0.000 N 
ATOM      8  C   UNL     1       6.617   4.365  15.806  0.00  0.00    +0.000 C 
ATOM      9  C   UNL     1       5.957   3.674  14.635  0.00  0.00    +0.000 C 
ATOM     10  O   UNL     1       7.805   4.687  15.745  0.00  0.00    +0.000 OA
ATOM     11  C   UNL     1       6.411   5.074  18.174  0.00  0.00    +0.000 C 
ATOM     12  S   UNL     1       5.052   4.953  19.400  0.00  0.00    +0.000 S 
ATOM     13  H   UNL     1       2.712   3.803  19.627  0.00  0.00    +0.000 HD
ENDROOT
BRANCH  11  14
ATOM     14  C   UNL     1       7.025   6.459  18.123  0.00  0.00    +0.000 A 
ATOM     15  C   UNL     1       6.517   7.481  17.308  0.00  0.00    +0.000 A 
ATOM     16  C   UNL     1       7.132   8.736  17.275  0.00  0.00    +0.000 A 
ATOM     17  C   UNL     1       8.264   8.985  18.048  0.00  0.00    +0.000 A 
ATOM     18  C   UNL     1       8.784   7.982  18.861  0.00  0.00    +0.000 A 
ATOM     19  C   UNL     1       8.168   6.730  18.900  0.00  0.00    +0.000 A 
ENDBRANCH  11  14
TORSDOF 1
ENDMDL
MODEL 6
REMARK VINA RESULT:      -6.4      2.060      2.891
REMARK  Name = 
REMARK  3 active torsions:
REMARK  status: ('A' for Active; 'I' for Inactive)
REMARK    1  A    between atoms: C_1  and  C_2
REMARK    2  A    between atoms: C_8  and  C_9
REMARK    3  A    between atoms: C_11  and  C_12
REMARK                            x       y       z     vdW  Elec       q    Type
REMARK                         _______ _______ _______ _____ _____    ______ ____
ROOT
ATOM      1  C   UNL     1       7.232   5.047  14.058  0.00  0.00    +0.000 C 
ATOM      2  C   UNL     1       6.128   5.527  14.962  0.00  0.00    +0.000 C 
ATOM      3  O   UNL     1       5.484   6.534  14.691  0.00  0.00    +0.000 OA
ATOM      4  N   UNL     1       5.938   4.706  16.059  0.00  0.00    +0.000 N 
ATOM      5  C   UNL     1       5.060   4.948  17.073  0.00  0.00    +0.000 C 
ATOM      6  N   UNL     1       4.215   5.917  17.146  0.00  0.00    +0.000 NA
ATOM      7  N   UNL     1       3.540   5.897  18.348  0.00  0.00    +0.000 N 
ATOM      8  C   UNL     1       2.787   6.996  18.740  0.00  0.00    +0.000 C 
ATOM      9  C   UNL     1       2.573   8.080  17.709  0.00  0.00    +0.000 C 
ATOM     10  O   UNL     1       2.305   7.112  19.868  0.00  0.00    +0.000 OA
ATOM     11  C   UNL     1       3.976   4.898  19.320  0.00  0.00    +0.000 C 
ATOM     12  S   UNL     1       5.158   3.838  18.402  0.00  0.00    +0.000 S 
ATOM     13  H   UNL     1       6.540   3.908  16.180  0.00  0.00    +0.000 HD
ENDROOT
BRANCH  11  14
ATOM     14  C   UNL     1       2.866   4.099  19.973  0.00  0.00    +0.000 A 
ATOM     15  C   UNL     1       1.720   3.687  19.275  0.00  0.00    +0.000 A 
ATOM     16  C   UNL     1       0.710   2.973  19.926  0.00  0.00    +0.000 A 
ATOM     17  C   UNL     1       0.825   2.667  21.280  0.00  0.00    +0.000 A 
ATOM     18  C   UNL     1       1.954   3.069  21.989  0.00  0.00    +0.000 A 
ATOM     19  C   UNL     1       2.966   3.777  21.340  0.00  0.00    +0.000 A 
ENDBRANCH  11  14
TORSDOF 1
ENDMDL
MODEL 7
REMARK VINA RESULT:      -5.3      2.635      6.242
REMARK  Name = 
REMARK  3 active torsions:
REMARK  status: ('A' for Active; 'I' for Inactive)
REMARK    1  A    between atoms: C_1  and  C_2
REMARK    2  A    between atoms: C_8  and  C_9
REMARK    3  A    between atoms: C_11  and  C_12
REMARK                            x       y       z     vdW  Elec       q    Type
REMARK                         _______ _______ _______ _____ _____    ______ ____
ROOT
ATOM      1  C   UNL     1       1.489   2.129  22.168  0.00  0.00    +0.000 C 
ATOM      2  C   UNL     1       1.991   3.252  21.301  0.00  0.00    +0.000 C 
ATOM      3  O   UNL     1       1.866   4.421  21.648  0.00  0.00    +0.000 OA
ATOM      4  N   UNL     1       2.598   2.804  20.142  0.00  0.00    +0.000 N 
ATOM      5  C   UNL     1       3.070   3.607  19.147  0.00  0.00    +0.000 C 
ATOM      6  N   UNL     1       3.106   4.894  19.147  0.00  0.00    +0.000 NA
ATOM      7  N   UNL     1       3.576   5.378  17.944  0.00  0.00    +0.000 N 
ATOM      8  C   UNL     1       3.442   6.725  17.638  0.00  0.00    +0.000 C 
ATOM      9  C   UNL     1       2.977   7.636  18.751  0.00  0.00    +0.000 C 
ATOM     10  O   UNL     1       3.681   7.186  16.520  0.00  0.00    +0.000 OA
ATOM     11  C   UNL     1       3.819   4.388  16.898  0.00  0.00    +0.000 C 
ATOM     12  S   UNL     1       3.625   2.767  17.734  0.00  0.00    +0.000 S 
ATOM     13  H   UNL     1       2.631   1.815  19.960  0.00  0.00    +0.000 HD
ENDROOT
BRANCH  11  14
ATOM     14  C   UNL     1       5.148   4.515  16.179  0.00  0.00    +0.000 A 
ATOM     15  C   UNL     1       6.354   4.748  16.857  0.00  0.00    +0.000 A 
ATOM     16  C   UNL     1       7.552   4.884  16.150  0.00  0.00    +0.000 A 
ATOM     17  C   UNL     1       7.562   4.795  14.759  0.00  0.00    +0.000 A 
ATOM     18  C   UNL     1       6.374   4.566  14.070  0.00  0.00    +0.000 A 
ATOM     19  C   UNL     1       5.178   4.425  14.775  0.00  0.00    +0.000 A 
ENDBRANCH  11  14
TORSDOF 1
ENDMDL
MODEL 8
REMARK VINA RESULT:      -5.3      8.183     10.499
REMARK  Name = 
REMARK  3 active torsions:
REMARK  status: ('A' for Active; 'I' for Inactive)
REMARK    1  A    between atoms: C_1  and  C_2
REMARK    2  A    between atoms: C_8  and  C_9
REMARK    3  A    between atoms: C_11  and  C_12
REMARK                            x       y       z     vdW  Elec       q    Type
REMARK                         _______ _______ _______ _____ _____    ______ ____
ROOT
ATOM      1  C   UNL     1      -6.152  13.154  19.160  0.00  0.00    +0.000 C 
ATOM      2  C   UNL     1      -4.780  13.006  19.759  0.00  0.00    +0.000 C 
ATOM      3  O   UNL     1      -4.479  13.584  20.797  0.00  0.00    +0.000 OA
ATOM      4  N   UNL     1      -3.965  12.158  19.031  0.00  0.00    +0.000 N 
ATOM      5  C   UNL     1      -2.653  11.909  19.305  0.00  0.00    +0.000 C 
ATOM      6  N   UNL     1      -1.981  12.344  20.313  0.00  0.00    +0.000 NA
ATOM      7  N   UNL     1      -0.660  11.957  20.233  0.00  0.00    +0.000 N 
ATOM      8  C   UNL     1       0.286  12.539  21.065  0.00  0.00    +0.000 C 
ATOM      9  C   UNL     1      -0.233  13.420  22.179  0.00  0.00    +0.000 C 
ATOM     10  O   UNL     1       1.499  12.367  20.927  0.00  0.00    +0.000 OA
ATOM     11  C   UNL     1      -0.261  11.261  19.012  0.00  0.00    +0.000 C 
ATOM     12  S   UNL     1      -1.833  10.939  18.123  0.00  0.00    +0.000 S 
ATOM     13  H   UNL     1      -4.322  11.748  18.184  0.00  0.00    +0.000 HD
ENDROOT
BRANCH  11  14
ATOM     14  C   UNL     1       0.556  10.002  19.219  0.00  0.00    +0.000 A 
ATOM     15  C   UNL     1       0.553   9.289  20.428  0.00  0.00    +0.000 A 
ATOM     16  C   UNL     1       1.344   8.146  20.582  0.00  0.00    +0.000 A 
ATOM     17  C   UNL     1       2.151   7.704  19.536  0.00  0.00    +0.000 A 
ATOM     18  C   UNL     1       2.169   8.400  18.331  0.00  0.00    +0.000 A 
ATOM     19  C   UNL     1       1.376   9.538  18.173  0.00  0.00    +0.000 A 
ENDBRANCH  11  14
TORSDOF 1
ENDMDL
MODEL 9
REMARK VINA RESULT:      -5.3      8.547     10.699
REMARK  Name = 
REMARK  3 active torsions:
REMARK  status: ('A' for Active; 'I' for Inactive)
REMARK    1  A    between atoms: C_1  and  C_2
REMARK    2  A    between atoms: C_8  and  C_9
REMARK    3  A    between atoms: C_11  and  C_12
REMARK                            x       y       z     vdW  Elec       q    Type
REMARK                         _______ _______ _______ _____ _____    ______ ____
ROOT
ATOM      1  C   UNL     1      -7.077  12.088  17.973  0.00  0.00    +0.000 C 
ATOM      2  C   UNL     1      -5.699  12.333  18.525  0.00  0.00    +0.000 C 
ATOM      3  O   UNL     1      -5.477  13.282  19.269  0.00  0.00    +0.000 OA
ATOM      4  N   UNL     1      -4.782  11.380  18.120  0.00  0.00    +0.000 N 
ATOM      5  C   UNL     1      -3.450  11.405  18.409  0.00  0.00    +0.000 C 
ATOM      6  N   UNL     1      -2.840  12.255  19.160  0.00  0.00    +0.000 NA
ATOM      7  N   UNL     1      -1.481  12.025  19.169  0.00  0.00    +0.000 N 
ATOM      8  C   UNL     1      -0.619  12.978  19.692  0.00  0.00    +0.000 C 
ATOM      9  C   UNL     1      -1.248  14.137  20.431  0.00  0.00    +0.000 C 
ATOM     10  O   UNL     1       0.607  12.913  19.573  0.00  0.00    +0.000 OA
ATOM     11  C   UNL     1      -0.994  10.983  18.268  0.00  0.00    +0.000 C 
ATOM     12  S   UNL     1      -2.511  10.175  17.625  0.00  0.00    +0.000 S 
ATOM     13  H   UNL     1      -5.082  10.650  17.496  0.00  0.00    +0.000 HD
ENDROOT
BRANCH  11  14
ATOM     14  C   UNL     1      -0.026   9.993  18.882  0.00  0.00    +0.000 A 
ATOM     15  C   UNL     1      -0.103   9.595  20.226  0.00  0.00    +0.000 A 
ATOM     16  C   UNL     1       0.829   8.698  20.756  0.00  0.00    +0.000 A 
ATOM     17  C   UNL     1       1.852   8.192  19.957  0.00  0.00    +0.000 A 
ATOM     18  C   UNL     1       1.945   8.577  18.622  0.00  0.00    +0.000 A 
ATOM     19  C   UNL     1       1.013   9.469  18.089  0.00  0.00    +0.000 A 
ENDBRANCH  11  14
TORSDOF 1
ENDMDL
