MODEL 1
REMARK VINA RESULT:      -7.9      0.000      0.000
REMARK  Name = 
REMARK  9 active torsions:
REMARK  status: ('A' for Active; 'I' for Inactive)
REMARK    1  A    between atoms: C_1  and  N_2
REMARK    2  A    between atoms: C_3  and  C_5
REMARK    3  A    between atoms: C_5  and  C_6
REMARK    4  A    between atoms: C_5  and  N_10
REMARK    5  A    between atoms: C_6  and  C_7
REMARK    6  A    between atoms: C_7  and  C_8
REMARK    7  A    between atoms: C_7  and  C_9
REMARK    8  A    between atoms: C_11  and  C_13
REMARK    9  A    between atoms: C_17  and  C_18
REMARK                            x       y       z     vdW  Elec       q    Type
REMARK                         _______ _______ _______ _____ _____    ______ ____
ROOT
ATOM      1  N   UNL     1       3.258   5.552  17.937  0.00  0.00    +0.000 N 
ATOM      2  C   UNL     1       2.775   6.132  19.090  0.00  0.00    +0.000 C 
ATOM      3  O   UNL     1       2.780   5.555  20.175  0.00  0.00    +0.000 OA
ATOM      4  H   UNL     1       3.403   6.175  17.147  0.00  0.00    +0.000 HD
ENDROOT
BRANCH   2   5
ATOM      5  C   UNL     1       2.274   7.540  18.955  0.00  0.00    +0.000 A 
ATOM      6  C   UNL     1       2.536   8.230  17.779  0.00  0.00    +0.000 A 
ATOM      7  C   UNL     1       2.065   9.529  17.666  0.00  0.00    +0.000 A 
ATOM      8  C   UNL     1       1.350  10.084  18.722  0.00  0.00    +0.000 A 
ATOM      9  C   UNL     1       1.106   9.328  19.874  0.00  0.00    +0.000 A 
ATOM     10  N   UNL     1       1.575   8.057  20.006  0.00  0.00    +0.000 NA
BRANCH   9  11
ATOM     11  C   UNL     1       0.318   9.863  21.007  0.00  0.00    +0.000 A 
ATOM     12  C   UNL     1      -0.422  11.057  20.894  0.00  0.00    +0.000 A 
ATOM     13  C   UNL     1      -1.162  11.566  21.968  0.00  0.00    +0.000 A 
ATOM     14  C   UNL     1      -1.181  10.885  23.181  0.00  0.00    +0.000 A 
ATOM     15  C   UNL     1      -0.464   9.701  23.319  0.00  0.00    +0.000 A 
ATOM     16  C   UNL     1       0.275   9.195  22.243  0.00  0.00    +0.000 A 
ENDBRANCH   9  11
ENDBRANCH   2   5
BRANCH   1  17
ATOM     17  C   UNL     1       3.836   4.204  17.921  0.00  0.00    +0.000 C 
BRANCH  17  20
ATOM     18  C   UNL     1       7.582   4.523  17.265  0.00  0.00    +0.000 C 
ATOM     19  N   UNL     1       6.281   4.433  17.871  0.00  0.00    +0.000 N 
ATOM     20  C   UNL     1       5.150   4.238  17.105  0.00  0.00    +0.000 C 
ATOM     21  O   UNL     1       5.197   4.105  15.885  0.00  0.00    +0.000 OA
ATOM     22  H   UNL     1       6.165   4.609  18.869  0.00  0.00    +0.000 HD
ENDBRANCH  17  20
BRANCH  17  23
ATOM     23  C   UNL     1       2.813   3.203  17.360  0.00  0.00    +0.000 C 
BRANCH  23  24
ATOM     24  C   UNL     1       2.239   2.195  18.382  0.00  0.00    +0.000 C 
ATOM     25  C   UNL     1       3.100   2.063  19.638  0.00  0.00    +0.000 C 
ATOM     26  C   UNL     1       0.816   2.605  18.771  0.00  0.00    +0.000 C 
ENDBRANCH  23  24
ENDBRANCH  17  23
ENDBRANCH   1  17
TORSDOF 6
ENDMDL
MODEL 2
REMARK VINA RESULT:      -7.8      2.720      8.159
REMARK  Name = 
REMARK  9 active torsions:
REMARK  status: ('A' for Active; 'I' for Inactive)
REMARK    1  A    between atoms: C_1  and  N_2
REMARK    2  A    between atoms: C_3  and  C_5
REMARK    3  A    between atoms: C_5  and  C_6
REMARK    4  A    between atoms: C_5  and  N_10
REMARK    5  A    between atoms: C_6  and  C_7
REMARK    6  A    between atoms: C_7  and  C_8
REMARK    7  A    between atoms: C_7  and  C_9
REMARK    8  A    between atoms: C_11  and  C_13
REMARK    9  A    between atoms: C_17  and  C_18
REMARK                            x       y       z     vdW  Elec       q    Type
REMARK                         _______ _______ _______ _____ _____    ______ ____
ROOT
ATOM      1  N   UNL     1       3.341   5.665  19.232  0.00  0.00    +0.000 N 
ATOM      2  C   UNL     1       3.536   4.996  18.043  0.00  0.00    +0.000 C 
ATOM      3  O   UNL     1       2.607   4.543  17.378  0.00  0.00    +0.000 OA
ATOM      4  H   UNL     1       4.140   6.177  19.596  0.00  0.00    +0.000 HD
ENDROOT
BRANCH   2   5
ATOM      5  C   UNL     1       4.958   4.885  17.580  0.00  0.00    +0.000 A 
ATOM      6  C   UNL     1       5.971   4.897  18.529  0.00  0.00    +0.000 A 
ATOM      7  C   UNL     1       7.281   4.790  18.087  0.00  0.00    +0.000 A 
ATOM      8  C   UNL     1       7.528   4.670  16.724  0.00  0.00    +0.000 A 
ATOM      9  C   UNL     1       6.460   4.647  15.820  0.00  0.00    +0.000 A 
ATOM     10  N   UNL     1       5.169   4.767  16.237  0.00  0.00    +0.000 NA
BRANCH   9  11
ATOM     11  C   UNL     1       6.672   4.484  14.365  0.00  0.00    +0.000 A 
ATOM     12  C   UNL     1       5.913   3.570  13.605  0.00  0.00    +0.000 A 
ATOM     13  C   UNL     1       6.119   3.412  12.230  0.00  0.00    +0.000 A 
ATOM     14  C   UNL     1       7.087   4.171  11.581  0.00  0.00    +0.000 A 
ATOM     15  C   UNL     1       7.847   5.085  12.304  0.00  0.00    +0.000 A 
ATOM     16  C   UNL     1       7.639   5.240  13.680  0.00  0.00    +0.000 A 
ENDBRANCH   9  11
ENDBRANCH   2   5
BRANCH   1  17
ATOM     17  C   UNL     1       2.004   5.908  19.785  0.00  0.00    +0.000 C 
BRANCH  17  20
ATOM     18  C   UNL     1       1.406   8.996  21.946  0.00  0.00    +0.000 C 
ATOM     19  N   UNL     1       1.591   7.655  21.461  0.00  0.00    +0.000 N 
ATOM     20  C   UNL     1       1.876   7.409  20.134  0.00  0.00    +0.000 C 
ATOM     21  O   UNL     1       2.013   8.312  19.312  0.00  0.00    +0.000 OA
ATOM     22  H   UNL     1       1.418   6.858  22.075  0.00  0.00    +0.000 HD
ENDBRANCH  17  20
BRANCH  17  23
ATOM     23  C   UNL     1       1.766   4.993  20.998  0.00  0.00    +0.000 C 
BRANCH  23  24
ATOM     24  C   UNL     1       1.818   3.475  20.708  0.00  0.00    +0.000 C 
ATOM     25  C   UNL     1       1.718   2.622  21.972  0.00  0.00    +0.000 C 
ATOM     26  C   UNL     1       0.697   3.095  19.737  0.00  0.00    +0.000 C 
ENDBRANCH  23  24
ENDBRANCH  17  23
ENDBRANCH   1  17
TORSDOF 6
ENDMDL
MODEL 3
REMARK VINA RESULT:      -7.7      0.857      1.300
REMARK  Name = 
REMARK  9 active torsions:
REMARK  status: ('A' for Active; 'I' for Inactive)
REMARK    1  A    between atoms: C_1  and  N_2
REMARK    2  A    between atoms: C_3  and  C_5
REMARK    3  A    between atoms: C_5  and  C_6
REMARK    4  A    between atoms: C_5  and  N_10
REMARK    5  A    between atoms: C_6  and  C_7
REMARK    6  A    between atoms: C_7  and  C_8
REMARK    7  A    between atoms: C_7  and  C_9
REMARK    8  A    between atoms: C_11  and  C_13
REMARK    9  A    between atoms: C_17  and  C_18
REMARK                            x       y       z     vdW  Elec       q    Type
REMARK                         _______ _______ _______ _____ _____    ______ ____
ROOT
ATOM      1  N   UNL     1       3.376   5.612  18.382  0.00  0.00    +0.000 N 
ATOM      2  C   UNL     1       2.681   6.194  19.420  0.00  0.00    +0.000 C 
ATOM      3  O   UNL     1       2.513   5.634  20.501  0.00  0.00    +0.000 OA
ATOM      4  H   UNL     1       3.639   6.228  17.616  0.00  0.00    +0.000 HD
ENDROOT
BRANCH   2   5
ATOM      5  C   UNL     1       2.168   7.581  19.169  0.00  0.00    +0.000 A 
ATOM      6  C   UNL     1       2.433   8.177  17.943  0.00  0.00    +0.000 A 
ATOM      7  C   UNL     1       1.951   9.459  17.723  0.00  0.00    +0.000 A 
ATOM      8  C   UNL     1       1.222  10.089  18.726  0.00  0.00    +0.000 A 
ATOM      9  C   UNL     1       0.975   9.425  19.933  0.00  0.00    +0.000 A 
ATOM     10  N   UNL     1       1.456   8.173  20.170  0.00  0.00    +0.000 NA
BRANCH   9  11
ATOM     11  C   UNL     1       0.174  10.041  21.014  0.00  0.00    +0.000 A 
ATOM     12  C   UNL     1      -0.022   9.393  22.250  0.00  0.00    +0.000 A 
ATOM     13  C   UNL     1      -0.786   9.974  23.269  0.00  0.00    +0.000 A 
ATOM     14  C   UNL     1      -1.368  11.222  23.075  0.00  0.00    +0.000 A 
ATOM     15  C   UNL     1      -1.187  11.887  21.866  0.00  0.00    +0.000 A 
ATOM     16  C   UNL     1      -0.422  11.303  20.849  0.00  0.00    +0.000 A 
ENDBRANCH   9  11
ENDBRANCH   2   5
BRANCH   1  17
ATOM     17  C   UNL     1       3.990   4.285  18.496  0.00  0.00    +0.000 C 
BRANCH  17  20
ATOM     18  C   UNL     1       6.732   4.424  15.844  0.00  0.00    +0.000 C 
ATOM     19  N   UNL     1       5.475   4.395  16.542  0.00  0.00    +0.000 N 
ATOM     20  C   UNL     1       5.424   4.351  17.920  0.00  0.00    +0.000 C 
ATOM     21  O   UNL     1       6.437   4.362  18.616  0.00  0.00    +0.000 OA
ATOM     22  H   UNL     1       4.600   4.309  16.022  0.00  0.00    +0.000 HD
ENDBRANCH  17  20
BRANCH  17  23
ATOM     23  C   UNL     1       3.112   3.240  17.788  0.00  0.00    +0.000 C 
BRANCH  23  24
ATOM     24  C   UNL     1       2.375   2.249  18.719  0.00  0.00    +0.000 C 
ATOM     25  C   UNL     1       2.863   2.314  20.166  0.00  0.00    +0.000 C 
ATOM     26  C   UNL     1       0.868   2.516  18.669  0.00  0.00    +0.000 C 
ENDBRANCH  23  24
ENDBRANCH  17  23
ENDBRANCH   1  17
TORSDOF 6
ENDMDL
MODEL 4
REMARK VINA RESULT:      -7.6      2.264      4.273
REMARK  Name = 
REMARK  9 active torsions:
REMARK  status: ('A' for Active; 'I' for Inactive)
REMARK    1  A    between atoms: C_1  and  N_2
REMARK    2  A    between atoms: C_3  and  C_5
REMARK    3  A    between atoms: C_5  and  C_6
REMARK    4  A    between atoms: C_5  and  N_10
REMARK    5  A    between atoms: C_6  and  C_7
REMARK    6  A    between atoms: C_7  and  C_8
REMARK    7  A    between atoms: C_7  and  C_9
REMARK    8  A    between atoms: C_11  and  C_13
REMARK    9  A    between atoms: C_17  and  C_18
REMARK                            x       y       z     vdW  Elec       q    Type
REMARK                         _______ _______ _______ _____ _____    ______ ____
ROOT
ATOM      1  N   UNL     1       4.687   4.591  17.218  0.00  0.00    +0.000 N 
ATOM      2  C   UNL     1       4.698   4.259  18.556  0.00  0.00    +0.000 C 
ATOM      3  O   UNL     1       5.634   3.662  19.083  0.00  0.00    +0.000 OA
ATOM      4  H   UNL     1       3.978   5.258  16.927  0.00  0.00    +0.000 HD
ENDROOT
BRANCH   2   5
ATOM      5  C   UNL     1       3.509   4.708  19.352  0.00  0.00    +0.000 A 
ATOM      6  C   UNL     1       2.875   3.790  20.179  0.00  0.00    +0.000 A 
ATOM      7  C   UNL     1       1.779   4.219  20.911  0.00  0.00    +0.000 A 
ATOM      8  C   UNL     1       1.364   5.542  20.797  0.00  0.00    +0.000 A 
ATOM      9  C   UNL     1       2.057   6.421  19.958  0.00  0.00    +0.000 A 
ATOM     10  N   UNL     1       3.126   6.011  19.220  0.00  0.00    +0.000 NA
BRANCH   9  11
ATOM     11  C   UNL     1       1.675   7.845  19.833  0.00  0.00    +0.000 A 
ATOM     12  C   UNL     1       1.814   8.544  18.616  0.00  0.00    +0.000 A 
ATOM     13  C   UNL     1       1.458   9.892  18.501  0.00  0.00    +0.000 A 
ATOM     14  C   UNL     1       0.948  10.573  19.601  0.00  0.00    +0.000 A 
ATOM     15  C   UNL     1       0.796   9.907  20.814  0.00  0.00    +0.000 A 
ATOM     16  C   UNL     1       1.152   8.558  20.926  0.00  0.00    +0.000 A 
ENDBRANCH   9  11
ENDBRANCH   2   5
BRANCH   1  17
ATOM     17  C   UNL     1       5.805   4.275  16.323  0.00  0.00    +0.000 C 
BRANCH  17  20
ATOM     18  C   UNL     1       7.848   7.363  17.249  0.00  0.00    +0.000 C 
ATOM     19  N   UNL     1       6.799   6.451  16.882  0.00  0.00    +0.000 N 
ATOM     20  C   UNL     1       7.039   5.097  16.761  0.00  0.00    +0.000 C 
ATOM     21  O   UNL     1       8.142   4.603  16.984  0.00  0.00    +0.000 OA
ATOM     22  H   UNL     1       5.881   6.805  16.612  0.00  0.00    +0.000 HD
ENDBRANCH  17  20
BRANCH  17  23
ATOM     23  C   UNL     1       5.398   4.543  14.865  0.00  0.00    +0.000 C 
BRANCH  23  24
ATOM     24  C   UNL     1       6.317   3.915  13.791  0.00  0.00    +0.000 C 
ATOM     25  C   UNL     1       5.544   3.367  12.592  0.00  0.00    +0.000 C 
ATOM     26  C   UNL     1       7.341   4.950  13.317  0.00  0.00    +0.000 C 
ENDBRANCH  23  24
ENDBRANCH  17  23
ENDBRANCH   1  17
TORSDOF 6
ENDMDL
MODEL 5
REMARK VINA RESULT:      -7.5      1.181      1.599
REMARK  Name = 
REMARK  9 active torsions:
REMARK  status: ('A' for Active; 'I' for Inactive)
REMARK    1  A    between atoms: C_1  and  N_2
REMARK    2  A    between atoms: C_3  and  C_5
REMARK    3  A    between atoms: C_5  and  C_6
REMARK    4  A    between atoms: C_5  and  N_10
REMARK    5  A    between atoms: C_6  and  C_7
REMARK    6  A    between atoms: C_7  and  C_8
REMARK    7  A    between atoms: C_7  and  C_9
REMARK    8  A    between atoms: C_11  and  C_13
REMARK    9  A    between atoms: C_17  and  C_18
REMARK                            x       y       z     vdW  Elec       q    Type
REMARK                         _______ _______ _______ _____ _____    ______ ____
ROOT
ATOM      1  N   UNL     1       3.944   6.161  18.571  0.00  0.00    +0.000 N 
ATOM      2  C   UNL     1       2.771   6.410  19.251  0.00  0.00    +0.000 C 
ATOM      3  O   UNL     1       2.251   5.585  19.998  0.00  0.00    +0.000 OA
ATOM      4  H   UNL     1       4.400   6.968  18.151  0.00  0.00    +0.000 HD
ENDROOT
BRANCH   2   5
ATOM      5  C   UNL     1       2.179   7.775  19.058  0.00  0.00    +0.000 A 
ATOM      6  C   UNL     1       2.373   8.419  17.844  0.00  0.00    +0.000 A 
ATOM      7  C   UNL     1       1.817   9.679  17.677  0.00  0.00    +0.000 A 
ATOM      8  C   UNL     1       1.089  10.241  18.721  0.00  0.00    +0.000 A 
ATOM      9  C   UNL     1       0.917   9.530  19.914  0.00  0.00    +0.000 A 
ATOM     10  N   UNL     1       1.470   8.300  20.099  0.00  0.00    +0.000 NA
BRANCH   9  11
ATOM     11  C   UNL     1       0.120  10.072  21.038  0.00  0.00    +0.000 A 
ATOM     12  C   UNL     1       0.051   9.412  22.281  0.00  0.00    +0.000 A 
ATOM     13  C   UNL     1      -0.708   9.922  23.341  0.00  0.00    +0.000 A 
ATOM     14  C   UNL     1      -1.413  11.110  23.181  0.00  0.00    +0.000 A 
ATOM     15  C   UNL     1      -1.360  11.785  21.966  0.00  0.00    +0.000 A 
ATOM     16  C   UNL     1      -0.599  11.273  20.908  0.00  0.00    +0.000 A 
ENDBRANCH   9  11
ENDBRANCH   2   5
BRANCH   1  17
ATOM     17  C   UNL     1       4.675   4.897  18.706  0.00  0.00    +0.000 C 
BRANCH  17  20
ATOM     18  C   UNL     1       7.831   6.893  17.914  0.00  0.00    +0.000 C 
ATOM     19  N   UNL     1       6.477   6.476  18.164  0.00  0.00    +0.000 N 
ATOM     20  C   UNL     1       6.184   5.173  18.514  0.00  0.00    +0.000 C 
ATOM     21  O   UNL     1       7.056   4.319  18.657  0.00  0.00    +0.000 OA
ATOM     22  H   UNL     1       5.702   7.116  17.990  0.00  0.00    +0.000 HD
ENDBRANCH  17  20
BRANCH  17  23
ATOM     23  C   UNL     1       4.127   3.867  17.704  0.00  0.00    +0.000 C 
BRANCH  23  24
ATOM     24  C   UNL     1       3.713   2.506  18.308  0.00  0.00    +0.000 C 
ATOM     25  C   UNL     1       3.926   2.434  19.820  0.00  0.00    +0.000 C 
ATOM     26  C   UNL     1       2.246   2.217  17.978  0.00  0.00    +0.000 C 
ENDBRANCH  23  24
ENDBRANCH  17  23
ENDBRANCH   1  17
TORSDOF 6
ENDMDL
MODEL 6
REMARK VINA RESULT:      -7.5      2.704      8.167
REMARK  Name = 
REMARK  9 active torsions:
REMARK  status: ('A' for Active; 'I' for Inactive)
REMARK    1  A    between atoms: C_1  and  N_2
REMARK    2  A    between atoms: C_3  and  C_5
REMARK    3  A    between atoms: C_5  and  C_6
REMARK    4  A    between atoms: C_5  and  N_10
REMARK    5  A    between atoms: C_6  and  C_7
REMARK    6  A    between atoms: C_7  and  C_8
REMARK    7  A    between atoms: C_7  and  C_9
REMARK    8  A    between atoms: C_11  and  C_13
REMARK    9  A    between atoms: C_17  and  C_18
REMARK                            x       y       z     vdW  Elec       q    Type
REMARK                         _______ _______ _______ _____ _____    ______ ____
ROOT
ATOM      1  N   UNL     1       3.484   5.589  19.237  0.00  0.00    +0.000 N 
ATOM      2  C   UNL     1       3.694   4.803  18.125  0.00  0.00    +0.000 C 
ATOM      3  O   UNL     1       2.788   4.188  17.567  0.00  0.00    +0.000 OA
ATOM      4  H   UNL     1       4.243   6.214  19.495  0.00  0.00    +0.000 HD
ENDROOT
BRANCH   2   5
ATOM      5  C   UNL     1       5.100   4.770  17.602  0.00  0.00    +0.000 A 
ATOM      6  C   UNL     1       6.149   4.840  18.509  0.00  0.00    +0.000 A 
ATOM      7  C   UNL     1       7.444   4.806  18.013  0.00  0.00    +0.000 A 
ATOM      8  C   UNL     1       7.640   4.697  16.640  0.00  0.00    +0.000 A 
ATOM      9  C   UNL     1       6.538   4.613  15.781  0.00  0.00    +0.000 A 
ATOM     10  N   UNL     1       5.261   4.662  16.252  0.00  0.00    +0.000 NA
BRANCH   9  11
ATOM     11  C   UNL     1       6.698   4.459  14.318  0.00  0.00    +0.000 A 
ATOM     12  C   UNL     1       5.905   3.558  13.578  0.00  0.00    +0.000 A 
ATOM     13  C   UNL     1       6.062   3.409  12.196  0.00  0.00    +0.000 A 
ATOM     14  C   UNL     1       7.014   4.164  11.520  0.00  0.00    +0.000 A 
ATOM     15  C   UNL     1       7.807   5.065  12.223  0.00  0.00    +0.000 A 
ATOM     16  C   UNL     1       7.648   5.212  13.606  0.00  0.00    +0.000 A 
ENDBRANCH   9  11
ENDBRANCH   2   5
BRANCH   1  17
ATOM     17  C   UNL     1       2.154   5.771  19.828  0.00  0.00    +0.000 C 
BRANCH  17  20
ATOM     18  C   UNL     1       1.759   9.353  18.571  0.00  0.00    +0.000 C 
ATOM     19  N   UNL     1       1.980   7.936  18.681  0.00  0.00    +0.000 N 
ATOM     20  C   UNL     1       1.841   7.284  19.890  0.00  0.00    +0.000 C 
ATOM     21  O   UNL     1       1.499   7.867  20.916  0.00  0.00    +0.000 OA
ATOM     22  H   UNL     1       2.337   7.408  17.884  0.00  0.00    +0.000 HD
ENDBRANCH  17  20
BRANCH  17  23
ATOM     23  C   UNL     1       2.098   5.095  21.208  0.00  0.00    +0.000 C 
BRANCH  23  24
ATOM     24  C   UNL     1       1.568   3.643  21.217  0.00  0.00    +0.000 C 
ATOM     25  C   UNL     1       0.734   3.304  19.982  0.00  0.00    +0.000 C 
ATOM     26  C   UNL     1       2.740   2.665  21.334  0.00  0.00    +0.000 C 
ENDBRANCH  23  24
ENDBRANCH  17  23
ENDBRANCH   1  17
TORSDOF 6
ENDMDL
MODEL 7
REMARK VINA RESULT:      -7.5      2.200      4.265
REMARK  Name = 
REMARK  9 active torsions:
REMARK  status: ('A' for Active; 'I' for Inactive)
REMARK    1  A    between atoms: C_1  and  N_2
REMARK    2  A    between atoms: C_3  and  C_5
REMARK    3  A    between atoms: C_5  and  C_6
REMARK    4  A    between atoms: C_5  and  N_10
REMARK    5  A    between atoms: C_6  and  C_7
REMARK    6  A    between atoms: C_7  and  C_8
REMARK    7  A    between atoms: C_7  and  C_9
REMARK    8  A    between atoms: C_11  and  C_13
REMARK    9  A    between atoms: C_17  and  C_18
REMARK                            x       y       z     vdW  Elec       q    Type
REMARK                         _______ _______ _______ _____ _____    ______ ____
ROOT
ATOM      1  N   UNL     1       4.724   4.661  17.420  0.00  0.00    +0.000 N 
ATOM      2  C   UNL     1       4.635   4.291  18.745  0.00  0.00    +0.000 C 
ATOM      3  O   UNL     1       5.503   3.628  19.307  0.00  0.00    +0.000 OA
ATOM      4  H   UNL     1       4.070   5.375  17.108  0.00  0.00    +0.000 HD
ENDROOT
BRANCH   2   5
ATOM      5  C   UNL     1       3.424   4.782  19.482  0.00  0.00    +0.000 A 
ATOM      6  C   UNL     1       2.737   3.894  20.298  0.00  0.00    +0.000 A 
ATOM      7  C   UNL     1       1.620   4.361  20.976  0.00  0.00    +0.000 A 
ATOM      8  C   UNL     1       1.241   5.690  20.819  0.00  0.00    +0.000 A 
ATOM      9  C   UNL     1       1.988   6.537  19.993  0.00  0.00    +0.000 A 
ATOM     10  N   UNL     1       3.076   6.089  19.309  0.00  0.00    +0.000 NA
BRANCH   9  11
ATOM     11  C   UNL     1       1.643   7.966  19.825  0.00  0.00    +0.000 A 
ATOM     12  C   UNL     1       1.070   8.718  20.871  0.00  0.00    +0.000 A 
ATOM     13  C   UNL     1       0.739  10.068  20.709  0.00  0.00    +0.000 A 
ATOM     14  C   UNL     1       0.980  10.700  19.494  0.00  0.00    +0.000 A 
ATOM     15  C   UNL     1       1.550   9.985  18.445  0.00  0.00    +0.000 A 
ATOM     16  C   UNL     1       1.880   8.634  18.611  0.00  0.00    +0.000 A 
ENDBRANCH   9  11
ENDBRANCH   2   5
BRANCH   1  17
ATOM     17  C   UNL     1       5.877   4.311  16.584  0.00  0.00    +0.000 C 
BRANCH  17  20
ATOM     18  C   UNL     1       8.085   6.880  18.341  0.00  0.00    +0.000 C 
ATOM     19  N   UNL     1       6.987   6.171  17.739  0.00  0.00    +0.000 N 
ATOM     20  C   UNL     1       7.153   4.902  17.225  0.00  0.00    +0.000 C 
ATOM     21  O   UNL     1       8.227   4.306  17.278  0.00  0.00    +0.000 OA
ATOM     22  H   UNL     1       6.091   6.638  17.597  0.00  0.00    +0.000 HD
ENDBRANCH  17  20
BRANCH  17  23
ATOM     23  C   UNL     1       5.649   4.805  15.145  0.00  0.00    +0.000 C 
BRANCH  23  24
ATOM     24  C   UNL     1       6.440   4.054  14.050  0.00  0.00    +0.000 C 
ATOM     25  C   UNL     1       5.547   3.510  12.936  0.00  0.00    +0.000 C 
ATOM     26  C   UNL     1       7.504   4.979  13.454  0.00  0.00    +0.000 C 
ENDBRANCH  23  24
ENDBRANCH  17  23
ENDBRANCH   1  17
TORSDOF 6
ENDMDL
MODEL 8
REMARK VINA RESULT:      -7.4      1.188      1.218
REMARK  Name = 
REMARK  9 active torsions:
REMARK  status: ('A' for Active; 'I' for Inactive)
REMARK    1  A    between atoms: C_1  and  N_2
REMARK    2  A    between atoms: C_3  and  C_5
REMARK    3  A    between atoms: C_5  and  C_6
REMARK    4  A    between atoms: C_5  and  N_10
REMARK    5  A    between atoms: C_6  and  C_7
REMARK    6  A    between atoms: C_7  and  C_8
REMARK    7  A    between atoms: C_7  and  C_9
REMARK    8  A    between atoms: C_11  and  C_13
REMARK    9  A    between atoms: C_17  and  C_18
REMARK                            x       y       z     vdW  Elec       q    Type
REMARK                         _______ _______ _______ _____ _____    ______ ____
ROOT
ATOM      1  N   UNL     1       3.554   6.237  18.626  0.00  0.00    +0.000 N 
ATOM      2  C   UNL     1       2.557   6.665  19.477  0.00  0.00    +0.000 C 
ATOM      3  O   UNL     1       2.155   5.987  20.420  0.00  0.00    +0.000 OA
ATOM      4  H   UNL     1       3.956   6.943  18.015  0.00  0.00    +0.000 HD
ENDROOT
BRANCH   2   5
ATOM      5  C   UNL     1       2.011   8.036  19.209  0.00  0.00    +0.000 A 
ATOM      6  C   UNL     1       2.268   8.627  17.980  0.00  0.00    +0.000 A 
ATOM      7  C   UNL     1       1.755   9.894  17.744  0.00  0.00    +0.000 A 
ATOM      8  C   UNL     1       1.004  10.515  18.737  0.00  0.00    +0.000 A 
ATOM      9  C   UNL     1       0.768   9.857  19.949  0.00  0.00    +0.000 A 
ATOM     10  N   UNL     1       1.278   8.620  20.201  0.00  0.00    +0.000 NA
BRANCH   9  11
ATOM     11  C   UNL     1      -0.056  10.462  21.019  0.00  0.00    +0.000 A 
ATOM     12  C   UNL     1      -0.666  11.723  20.859  0.00  0.00    +0.000 A 
ATOM     13  C   UNL     1      -1.439  12.297  21.874  0.00  0.00    +0.000 A 
ATOM     14  C   UNL     1      -1.625  11.619  23.074  0.00  0.00    +0.000 A 
ATOM     15  C   UNL     1      -1.039  10.370  23.258  0.00  0.00    +0.000 A 
ATOM     16  C   UNL     1      -0.266   9.798  22.240  0.00  0.00    +0.000 A 
ENDBRANCH   9  11
ENDBRANCH   2   5
BRANCH   1  17
ATOM     17  C   UNL     1       4.228   4.946  18.795  0.00  0.00    +0.000 C 
BRANCH  17  20
ATOM     18  C   UNL     1       7.429   6.519  17.435  0.00  0.00    +0.000 C 
ATOM     19  N   UNL     1       6.062   6.213  17.763  0.00  0.00    +0.000 N 
ATOM     20  C   UNL     1       5.747   5.148  18.582  0.00  0.00    +0.000 C 
ATOM     21  O   UNL     1       6.606   4.431  19.090  0.00  0.00    +0.000 OA
ATOM     22  H   UNL     1       5.300   6.722  17.316  0.00  0.00    +0.000 HD
ENDBRANCH  17  20
BRANCH  17  23
ATOM     23  C   UNL     1       3.625   3.910  17.832  0.00  0.00    +0.000 C 
BRANCH  23  24
ATOM     24  C   UNL     1       2.727   2.835  18.486  0.00  0.00    +0.000 C 
ATOM     25  C   UNL     1       3.095   2.558  19.944  0.00  0.00    +0.000 C 
ATOM     26  C   UNL     1       1.260   3.262  18.396  0.00  0.00    +0.000 C 
ENDBRANCH  23  24
ENDBRANCH  17  23
ENDBRANCH   1  17
TORSDOF 6
ENDMDL
MODEL 9
REMARK VINA RESULT:      -7.3      0.573      1.311
REMARK  Name = 
REMARK  9 active torsions:
REMARK  status: ('A' for Active; 'I' for Inactive)
REMARK    1  A    between atoms: C_1  and  N_2
REMARK    2  A    between atoms: C_3  and  C_5
REMARK    3  A    between atoms: C_5  and  C_6
REMARK    4  A    between atoms: C_5  and  N_10
REMARK    5  A    between atoms: C_6  and  C_7
REMARK    6  A    between atoms: C_7  and  C_8
REMARK    7  A    between atoms: C_7  and  C_9
REMARK    8  A    between atoms: C_11  and  C_13
REMARK    9  A    between atoms: C_17  and  C_18
REMARK                            x       y       z     vdW  Elec       q    Type
REMARK                         _______ _______ _______ _____ _____    ______ ____
ROOT
ATOM      1  N   UNL     1       3.335   5.472  18.451  0.00  0.00    +0.000 N 
ATOM      2  C   UNL     1       2.847   6.184  19.526  0.00  0.00    +0.000 C 
ATOM      3  O   UNL     1       2.913   5.768  20.680  0.00  0.00    +0.000 OA
ATOM      4  H   UNL     1       3.423   5.984  17.576  0.00  0.00    +0.000 HD
ENDROOT
BRANCH   2   5
ATOM      5  C   UNL     1       2.259   7.527  19.210  0.00  0.00    +0.000 A 
ATOM      6  C   UNL     1       2.453   8.057  17.941  0.00  0.00    +0.000 A 
ATOM      7  C   UNL     1       1.902   9.299  17.662  0.00  0.00    +0.000 A 
ATOM      8  C   UNL     1       1.178   9.956  18.651  0.00  0.00    +0.000 A 
ATOM      9  C   UNL     1       1.006   9.359  19.904  0.00  0.00    +0.000 A 
ATOM     10  N   UNL     1       1.554   8.147  20.199  0.00  0.00    +0.000 NA
BRANCH   9  11
ATOM     11  C   UNL     1       0.213  10.003  20.974  0.00  0.00    +0.000 A 
ATOM     12  C   UNL     1       0.045   9.399  22.237  0.00  0.00    +0.000 A 
ATOM     13  C   UNL     1      -0.710  10.007  23.246  0.00  0.00    +0.000 A 
ATOM     14  C   UNL     1      -1.312  11.239  23.016  0.00  0.00    +0.000 A 
ATOM     15  C   UNL     1      -1.159  11.862  21.781  0.00  0.00    +0.000 A 
ATOM     16  C   UNL     1      -0.403  11.251  20.773  0.00  0.00    +0.000 A 
ENDBRANCH   9  11
ENDBRANCH   2   5
BRANCH   1  17
ATOM     17  C   UNL     1       3.993   4.171  18.606  0.00  0.00    +0.000 C 
BRANCH  17  20
ATOM     18  C   UNL     1       7.657   4.469  17.582  0.00  0.00    +0.000 C 
ATOM     19  N   UNL     1       6.417   4.432  18.308  0.00  0.00    +0.000 N 
ATOM     20  C   UNL     1       5.229   4.126  17.677  0.00  0.00    +0.000 C 
ATOM     21  O   UNL     1       5.172   3.844  16.482  0.00  0.00    +0.000 OA
ATOM     22  H   UNL     1       6.384   4.728  19.285  0.00  0.00    +0.000 HD
ENDBRANCH  17  20
BRANCH  17  23
ATOM     23  C   UNL     1       2.991   3.041  18.318  0.00  0.00    +0.000 C 
BRANCH  23  24
ATOM     24  C   UNL     1       1.750   3.000  19.239  0.00  0.00    +0.000 C 
ATOM     25  C   UNL     1       0.613   2.151  18.672  0.00  0.00    +0.000 C 
ATOM     26  C   UNL     1       2.148   2.474  20.621  0.00  0.00    +0.000 C 
ENDBRANCH  23  24
ENDBRANCH  17  23
ENDBRANCH   1  17
TORSDOF 6
ENDMDL
