MODEL 1
REMARK VINA RESULT:      -6.1      0.000      0.000
REMARK  Name = 
REMARK  5 active torsions:
REMARK  status: ('A' for Active; 'I' for Inactive)
REMARK    1  A    between atoms: C_1  and  C_2
REMARK    2  A    between atoms: C_2  and  N_3
REMARK    3  A    between atoms: C_8  and  C_9
REMARK    4  A    between atoms: C_9  and  C_10
REMARK    5  A    between atoms: N_14  and  C_15
REMARK                            x       y       z     vdW  Elec       q    Type
REMARK                         _______ _______ _______ _____ _____    ______ ____
ROOT
ATOM      1  N   UNL     1       5.882   5.298  16.977  0.00  0.00    +0.000 N 
ATOM      2  C   UNL     1       7.004   4.752  17.560  0.00  0.00    +0.000 C 
ATOM      3  O   UNL     1       7.997   4.339  16.985  0.00  0.00    +0.000 OA
ATOM      4  O   UNL     1       6.853   4.733  18.920  0.00  0.00    +0.000 OA
ATOM      5  C   UNL     1       5.507   5.125  19.223  0.00  0.00    +0.000 C 
ATOM      6  C   UNL     1       5.039   5.883  17.994  0.00  0.00    +0.000 C 
ENDROOT
BRANCH   1   8
ATOM      7  C   UNL     1       5.521   4.385  14.686  0.00  0.00    +0.000 C 
ATOM      8  C   UNL     1       5.795   5.600  15.557  0.00  0.00    +0.000 C 
ENDBRANCH   1   8
BRANCH   6   9
ATOM      9  C   UNL     1       3.536   5.756  17.731  0.00  0.00    +0.000 C 
BRANCH   9  10
ATOM     10  C   UNL     1       2.985   4.396  18.014  0.00  0.00    +0.000 A 
ATOM     11  C   UNL     1       3.072   3.228  17.283  0.00  0.00    +0.000 A 
ATOM     12  N   UNL     1       2.519   2.175  17.958  0.00  0.00    +0.000 NA
ATOM     13  C   UNL     1       2.095   2.677  19.093  0.00  0.00    +0.000 A 
ATOM     14  N   UNL     1       2.300   4.027  19.150  0.00  0.00    +0.000 N 
ATOM     15  C   UNL     1       1.852   4.870  20.231  0.00  0.00    +0.000 C 
ENDBRANCH   9  10
ENDBRANCH   6   9
TORSDOF 3
ENDMDL
MODEL 2
REMARK VINA RESULT:      -6.1      0.803      1.686
REMARK  Name = 
REMARK  5 active torsions:
REMARK  status: ('A' for Active; 'I' for Inactive)
REMARK    1  A    between atoms: C_1  and  C_2
REMARK    2  A    between atoms: C_2  and  N_3
REMARK    3  A    between atoms: C_8  and  C_9
REMARK    4  A    between atoms: C_9  and  C_10
REMARK    5  A    between atoms: N_14  and  C_15
REMARK                            x       y       z     vdW  Elec       q    Type
REMARK                         _______ _______ _______ _____ _____    ______ ____
ROOT
ATOM      1  N   UNL     1       5.807   5.099  16.983  0.00  0.00    +0.000 N 
ATOM      2  C   UNL     1       6.952   4.617  17.577  0.00  0.00    +0.000 C 
ATOM      3  O   UNL     1       8.020   4.393  17.029  0.00  0.00    +0.000 OA
ATOM      4  O   UNL     1       6.729   4.415  18.912  0.00  0.00    +0.000 OA
ATOM      5  C   UNL     1       5.331   4.611  19.163  0.00  0.00    +0.000 C 
ATOM      6  C   UNL     1       4.845   5.455  17.999  0.00  0.00    +0.000 C 
ENDROOT
BRANCH   1   8
ATOM      7  C   UNL     1       5.545   4.450  14.591  0.00  0.00    +0.000 C 
ATOM      8  C   UNL     1       5.764   5.561  15.605  0.00  0.00    +0.000 C 
ENDBRANCH   1   8
BRANCH   6   9
ATOM      9  C   UNL     1       3.384   5.192  17.619  0.00  0.00    +0.000 C 
BRANCH   9  10
ATOM     10  C   UNL     1       2.545   4.697  18.752  0.00  0.00    +0.000 A 
ATOM     11  C   UNL     1       2.011   5.375  19.830  0.00  0.00    +0.000 A 
ATOM     12  N   UNL     1       1.204   4.564  20.579  0.00  0.00    +0.000 NA
ATOM     13  C   UNL     1       1.231   3.399  19.977  0.00  0.00    +0.000 A 
ATOM     14  N   UNL     1       2.074   3.412  18.901  0.00  0.00    +0.000 N 
ATOM     15  C   UNL     1       2.385   2.253  18.101  0.00  0.00    +0.000 C 
ENDBRANCH   9  10
ENDBRANCH   6   9
TORSDOF 3
ENDMDL
MODEL 3
REMARK VINA RESULT:      -5.9      1.709      2.380
REMARK  Name = 
REMARK  5 active torsions:
REMARK  status: ('A' for Active; 'I' for Inactive)
REMARK    1  A    between atoms: C_1  and  C_2
REMARK    2  A    between atoms: C_2  and  N_3
REMARK    3  A    between atoms: C_8  and  C_9
REMARK    4  A    between atoms: C_9  and  C_10
REMARK    5  A    between atoms: N_14  and  C_15
REMARK                            x       y       z     vdW  Elec       q    Type
REMARK                         _______ _______ _______ _____ _____    ______ ____
ROOT
ATOM      1  N   UNL     1       6.211   5.661  16.742  0.00  0.00    +0.000 N 
ATOM      2  C   UNL     1       6.773   5.100  15.617  0.00  0.00    +0.000 C 
ATOM      3  O   UNL     1       7.655   5.581  14.924  0.00  0.00    +0.000 OA
ATOM      4  O   UNL     1       6.193   3.885  15.369  0.00  0.00    +0.000 OA
ATOM      5  C   UNL     1       5.089   3.728  16.270  0.00  0.00    +0.000 C 
ATOM      6  C   UNL     1       5.383   4.685  17.411  0.00  0.00    +0.000 C 
ENDROOT
BRANCH   1   8
ATOM      7  C   UNL     1       7.804   6.636  18.392  0.00  0.00    +0.000 C 
ATOM      8  C   UNL     1       6.717   6.877  17.358  0.00  0.00    +0.000 C 
ENDBRANCH   1   8
BRANCH   6   9
ATOM      9  C   UNL     1       4.125   5.257  18.071  0.00  0.00    +0.000 C 
BRANCH   9  10
ATOM     10  C   UNL     1       3.034   4.254  18.264  0.00  0.00    +0.000 A 
ATOM     11  C   UNL     1       1.765   4.200  17.722  0.00  0.00    +0.000 A 
ATOM     12  N   UNL     1       1.122   3.045  18.075  0.00  0.00    +0.000 NA
ATOM     13  C   UNL     1       1.976   2.389  18.823  0.00  0.00    +0.000 A 
ATOM     14  N   UNL     1       3.124   3.104  19.016  0.00  0.00    +0.000 N 
ATOM     15  C   UNL     1       4.206   2.684  19.872  0.00  0.00    +0.000 C 
ENDBRANCH   9  10
ENDBRANCH   6   9
TORSDOF 3
ENDMDL
MODEL 4
REMARK VINA RESULT:      -5.9      2.721      5.035
REMARK  Name = 
REMARK  5 active torsions:
REMARK  status: ('A' for Active; 'I' for Inactive)
REMARK    1  A    between atoms: C_1  and  C_2
REMARK    2  A    between atoms: C_2  and  N_3
REMARK    3  A    between atoms: C_8  and  C_9
REMARK    4  A    between atoms: C_9  and  C_10
REMARK    5  A    between atoms: N_14  and  C_15
REMARK                            x       y       z     vdW  Elec       q    Type
REMARK                         _______ _______ _______ _____ _____    ______ ____
ROOT
ATOM      1  N   UNL     1       2.827   3.846  19.620  0.00  0.00    +0.000 N 
ATOM      2  C   UNL     1       1.704   3.939  20.410  0.00  0.00    +0.000 C 
ATOM      3  O   UNL     1       1.013   3.015  20.808  0.00  0.00    +0.000 OA
ATOM      4  O   UNL     1       1.454   5.252  20.703  0.00  0.00    +0.000 OA
ATOM      5  C   UNL     1       2.353   6.058  19.930  0.00  0.00    +0.000 C 
ATOM      6  C   UNL     1       3.495   5.126  19.569  0.00  0.00    +0.000 C 
ENDROOT
BRANCH   1   8
ATOM      7  C   UNL     1       2.935   1.990  17.959  0.00  0.00    +0.000 C 
ATOM      8  C   UNL     1       3.445   2.578  19.265  0.00  0.00    +0.000 C 
ENDBRANCH   1   8
BRANCH   6   9
ATOM      9  C   UNL     1       4.151   5.454  18.224  0.00  0.00    +0.000 C 
BRANCH   9  10
ATOM     10  C   UNL     1       5.631   5.246  18.207  0.00  0.00    +0.000 A 
ATOM     11  C   UNL     1       6.585   5.535  19.163  0.00  0.00    +0.000 A 
ATOM     12  N   UNL     1       7.819   5.079  18.791  0.00  0.00    +0.000 NA
ATOM     13  C   UNL     1       7.638   4.511  17.622  0.00  0.00    +0.000 A 
ATOM     14  N   UNL     1       6.345   4.638  17.199  0.00  0.00    +0.000 N 
ATOM     15  C   UNL     1       5.867   4.200  15.911  0.00  0.00    +0.000 C 
ENDBRANCH   9  10
ENDBRANCH   6   9
TORSDOF 3
ENDMDL
MODEL 5
REMARK VINA RESULT:      -5.8      1.248      1.568
REMARK  Name = 
REMARK  5 active torsions:
REMARK  status: ('A' for Active; 'I' for Inactive)
REMARK    1  A    between atoms: C_1  and  C_2
REMARK    2  A    between atoms: C_2  and  N_3
REMARK    3  A    between atoms: C_8  and  C_9
REMARK    4  A    between atoms: C_9  and  C_10
REMARK    5  A    between atoms: N_14  and  C_15
REMARK                            x       y       z     vdW  Elec       q    Type
REMARK                         _______ _______ _______ _____ _____    ______ ____
ROOT
ATOM      1  N   UNL     1       5.897   4.398  17.201  0.00  0.00    +0.000 N 
ATOM      2  C   UNL     1       7.117   4.528  17.825  0.00  0.00    +0.000 C 
ATOM      3  O   UNL     1       8.206   4.214  17.373  0.00  0.00    +0.000 OA
ATOM      4  O   UNL     1       6.943   5.078  19.067  0.00  0.00    +0.000 OA
ATOM      5  C   UNL     1       5.535   5.150  19.327  0.00  0.00    +0.000 C 
ATOM      6  C   UNL     1       4.885   5.100  17.956  0.00  0.00    +0.000 C 
ENDROOT
BRANCH   1   8
ATOM      7  C   UNL     1       5.659   5.154  14.838  0.00  0.00    +0.000 C 
ATOM      8  C   UNL     1       5.757   3.991  15.812  0.00  0.00    +0.000 C 
ENDBRANCH   1   8
BRANCH   6   9
ATOM      9  C   UNL     1       3.506   4.434  17.955  0.00  0.00    +0.000 C 
BRANCH   9  10
ATOM     10  C   UNL     1       3.070   3.945  19.298  0.00  0.00    +0.000 A 
ATOM     11  C   UNL     1       3.214   2.704  19.886  0.00  0.00    +0.000 A 
ATOM     12  N   UNL     1       2.769   2.710  21.180  0.00  0.00    +0.000 NA
ATOM     13  C   UNL     1       2.355   3.936  21.395  0.00  0.00    +0.000 A 
ATOM     14  N   UNL     1       2.461   4.705  20.271  0.00  0.00    +0.000 N 
ATOM     15  C   UNL     1       1.995   6.067  20.173  0.00  0.00    +0.000 C 
ENDBRANCH   9  10
ENDBRANCH   6   9
TORSDOF 3
ENDMDL
MODEL 6
REMARK VINA RESULT:      -5.8      1.535      1.923
REMARK  Name = 
REMARK  5 active torsions:
REMARK  status: ('A' for Active; 'I' for Inactive)
REMARK    1  A    between atoms: C_1  and  C_2
REMARK    2  A    between atoms: C_2  and  N_3
REMARK    3  A    between atoms: C_8  and  C_9
REMARK    4  A    between atoms: C_9  and  C_10
REMARK    5  A    between atoms: N_14  and  C_15
REMARK                            x       y       z     vdW  Elec       q    Type
REMARK                         _______ _______ _______ _____ _____    ______ ____
ROOT
ATOM      1  N   UNL     1       6.000   4.864  16.294  0.00  0.00    +0.000 N 
ATOM      2  C   UNL     1       6.550   6.057  16.704  0.00  0.00    +0.000 C 
ATOM      3  O   UNL     1       7.604   6.543  16.327  0.00  0.00    +0.000 OA
ATOM      4  O   UNL     1       5.728   6.651  17.624  0.00  0.00    +0.000 OA
ATOM      5  C   UNL     1       4.686   5.723  17.953  0.00  0.00    +0.000 C 
ATOM      6  C   UNL     1       4.645   4.758  16.782  0.00  0.00    +0.000 C 
ENDROOT
BRANCH   1   8
ATOM      7  C   UNL     1       5.754   4.155  13.917  0.00  0.00    +0.000 C 
ATOM      8  C   UNL     1       6.552   4.069  15.208  0.00  0.00    +0.000 C 
ENDBRANCH   1   8
BRANCH   6   9
ATOM      9  C   UNL     1       4.212   3.341  17.170  0.00  0.00    +0.000 C 
BRANCH   9  10
ATOM     10  C   UNL     1       3.081   3.300  18.145  0.00  0.00    +0.000 A 
ATOM     11  C   UNL     1       1.760   3.678  17.998  0.00  0.00    +0.000 A 
ATOM     12  N   UNL     1       1.026   3.368  19.110  0.00  0.00    +0.000 NA
ATOM     13  C   UNL     1       1.874   2.804  19.936  0.00  0.00    +0.000 A 
ATOM     14  N   UNL     1       3.141   2.793  19.424  0.00  0.00    +0.000 N 
ATOM     15  C   UNL     1       4.301   2.326  20.142  0.00  0.00    +0.000 C 
ENDBRANCH   9  10
ENDBRANCH   6   9
TORSDOF 3
ENDMDL
MODEL 7
REMARK VINA RESULT:      -5.7      1.379      2.100
REMARK  Name = 
REMARK  5 active torsions:
REMARK  status: ('A' for Active; 'I' for Inactive)
REMARK    1  A    between atoms: C_1  and  C_2
REMARK    2  A    between atoms: C_2  and  N_3
REMARK    3  A    between atoms: C_8  and  C_9
REMARK    4  A    between atoms: C_9  and  C_10
REMARK    5  A    between atoms: N_14  and  C_15
REMARK                            x       y       z     vdW  Elec       q    Type
REMARK                         _______ _______ _______ _____ _____    ______ ____
ROOT
ATOM      1  N   UNL     1       5.972   5.422  17.367  0.00  0.00    +0.000 N 
ATOM      2  C   UNL     1       7.130   6.163  17.279  0.00  0.00    +0.000 C 
ATOM      3  O   UNL     1       7.628   6.621  16.264  0.00  0.00    +0.000 OA
ATOM      4  O   UNL     1       7.668   6.324  18.527  0.00  0.00    +0.000 OA
ATOM      5  C   UNL     1       6.923   5.511  19.442  0.00  0.00    +0.000 C 
ATOM      6  C   UNL     1       5.591   5.276  18.752  0.00  0.00    +0.000 C 
ENDROOT
BRANCH   1   8
ATOM      7  C   UNL     1       5.539   4.107  15.294  0.00  0.00    +0.000 C 
ATOM      8  C   UNL     1       5.081   5.208  16.238  0.00  0.00    +0.000 C 
ENDBRANCH   1   8
BRANCH   6   9
ATOM      9  C   UNL     1       4.949   3.930  19.102  0.00  0.00    +0.000 C 
BRANCH   9  10
ATOM     10  C   UNL     1       3.490   4.017  19.410  0.00  0.00    +0.000 A 
ATOM     11  C   UNL     1       2.820   4.774  20.351  0.00  0.00    +0.000 A 
ATOM     12  N   UNL     1       1.464   4.641  20.225  0.00  0.00    +0.000 NA
ATOM     13  C   UNL     1       1.291   3.816  19.220  0.00  0.00    +0.000 A 
ATOM     14  N   UNL     1       2.485   3.365  18.732  0.00  0.00    +0.000 N 
ATOM     15  C   UNL     1       2.613   2.374  17.691  0.00  0.00    +0.000 C 
ENDBRANCH   9  10
ENDBRANCH   6   9
TORSDOF 3
ENDMDL
MODEL 8
REMARK VINA RESULT:      -5.7      2.364      5.058
REMARK  Name = 
REMARK  5 active torsions:
REMARK  status: ('A' for Active; 'I' for Inactive)
REMARK    1  A    between atoms: C_1  and  C_2
REMARK    2  A    between atoms: C_2  and  N_3
REMARK    3  A    between atoms: C_8  and  C_9
REMARK    4  A    between atoms: C_9  and  C_10
REMARK    5  A    between atoms: N_14  and  C_15
REMARK                            x       y       z     vdW  Elec       q    Type
REMARK                         _______ _______ _______ _____ _____    ______ ____
ROOT
ATOM      1  N   UNL     1       1.814   3.853  19.035  0.00  0.00    +0.000 N 
ATOM      2  C   UNL     1       1.763   2.537  18.632  0.00  0.00    +0.000 C 
ATOM      3  O   UNL     1       1.389   1.584  19.296  0.00  0.00    +0.000 OA
ATOM      4  O   UNL     1       2.203   2.435  17.340  0.00  0.00    +0.000 OA
ATOM      5  C   UNL     1       2.723   3.711  16.945  0.00  0.00    +0.000 C 
ATOM      6  C   UNL     1       2.079   4.702  17.897  0.00  0.00    +0.000 C 
ENDROOT
BRANCH   1   8
ATOM      7  C   UNL     1       2.169   4.041  21.495  0.00  0.00    +0.000 C 
ATOM      8  C   UNL     1       1.269   4.315  20.302  0.00  0.00    +0.000 C 
ENDBRANCH   1   8
BRANCH   6   9
ATOM      9  C   UNL     1       2.955   5.922  18.197  0.00  0.00    +0.000 C 
BRANCH   9  10
ATOM     10  C   UNL     1       4.410   5.605  18.328  0.00  0.00    +0.000 A 
ATOM     11  C   UNL     1       5.108   5.032  19.373  0.00  0.00    +0.000 A 
ATOM     12  N   UNL     1       6.416   4.814  19.038  0.00  0.00    +0.000 NA
ATOM     13  C   UNL     1       6.532   5.241  17.804  0.00  0.00    +0.000 A 
ATOM     14  N   UNL     1       5.362   5.782  17.350  0.00  0.00    +0.000 N 
ATOM     15  C   UNL     1       5.208   6.420  16.065  0.00  0.00    +0.000 C 
ENDBRANCH   9  10
ENDBRANCH   6   9
TORSDOF 3
ENDMDL
MODEL 9
REMARK VINA RESULT:      -5.7      2.182      4.972
REMARK  Name = 
REMARK  5 active torsions:
REMARK  status: ('A' for Active; 'I' for Inactive)
REMARK    1  A    between atoms: C_1  and  C_2
REMARK    2  A    between atoms: C_2  and  N_3
REMARK    3  A    between atoms: C_8  and  C_9
REMARK    4  A    between atoms: C_9  and  C_10
REMARK    5  A    between atoms: N_14  and  C_15
REMARK                            x       y       z     vdW  Elec       q    Type
REMARK                         _______ _______ _______ _____ _____    ______ ____
ROOT
ATOM      1  N   UNL     1       3.212   3.955  19.630  0.00  0.00    +0.000 N 
ATOM      2  C   UNL     1       3.251   2.690  20.173  0.00  0.00    +0.000 C 
ATOM      3  O   UNL     1       3.079   2.393  21.344  0.00  0.00    +0.000 OA
ATOM      4  O   UNL     1       3.518   1.775  19.190  0.00  0.00    +0.000 OA
ATOM      5  C   UNL     1       3.834   2.492  17.990  0.00  0.00    +0.000 C 
ATOM      6  C   UNL     1       3.222   3.867  18.188  0.00  0.00    +0.000 C 
ENDROOT
BRANCH   1   8
ATOM      7  C   UNL     1       1.291   5.262  20.533  0.00  0.00    +0.000 C 
ATOM      8  C   UNL     1       2.798   5.128  20.383  0.00  0.00    +0.000 C 
ENDBRANCH   1   8
BRANCH   6   9
ATOM      9  C   UNL     1       3.991   4.988  17.483  0.00  0.00    +0.000 C 
BRANCH   9  10
ATOM     10  C   UNL     1       5.464   4.961  17.732  0.00  0.00    +0.000 A 
ATOM     11  C   UNL     1       6.186   5.315  18.855  0.00  0.00    +0.000 A 
ATOM     12  N   UNL     1       7.515   5.029  18.704  0.00  0.00    +0.000 NA
ATOM     13  C   UNL     1       7.621   4.504  17.507  0.00  0.00    +0.000 A 
ATOM     14  N   UNL     1       6.419   4.495  16.856  0.00  0.00    +0.000 N 
ATOM     15  C   UNL     1       6.239   4.068  15.491  0.00  0.00    +0.000 C 
ENDBRANCH   9  10
ENDBRANCH   6   9
TORSDOF 3
ENDMDL
