MODEL 1
REMARK VINA RESULT:      -7.4      0.000      0.000
REMARK  Name = 
REMARK  6 active torsions:
REMARK  status: ('A' for Active; 'I' for Inactive)
REMARK    1  A    between atoms: C_2  and  C_3
REMARK    2  A    between atoms: C_3  and  O_4
REMARK    3  A    between atoms: O_4  and  C_5
REMARK    4  A    between atoms: C_5  and  C_7
REMARK    5  A    between atoms: C_8  and  C_9
REMARK    6  A    between atoms: N_14  and  C_15
REMARK                            x       y       z     vdW  Elec       q    Type
REMARK                         _______ _______ _______ _____ _____    ______ ____
ROOT
ATOM      1  O   UNL     1       6.424   4.987  19.924  0.00  0.00    +0.000 OA
ATOM      2  C   UNL     1       6.569   5.048  18.706  0.00  0.00    +0.000 C 
ATOM      3  N   UNL     1       5.650   4.680  17.742  0.00  0.00    +0.000 N 
ATOM      4  H   UNL     1       5.908   4.799  16.768  0.00  0.00    +0.000 HD
ENDROOT
BRANCH   3   5
ATOM      5  C   UNL     1       4.379   4.135  18.001  0.00  0.00    +0.000 A 
ATOM      6  N   UNL     1       4.261   2.815  18.237  0.00  0.00    +0.000 NA
ATOM      7  C   UNL     1       3.028   2.310  18.478  0.00  0.00    +0.000 A 
ATOM      8  C   UNL     1       1.879   3.079  18.499  0.00  0.00    +0.000 A 
ATOM      9 CL   UNL     1       0.349   2.367  18.805  0.00  0.00    +0.000 Cl
ATOM     10  C   UNL     1       1.996   4.443  18.265  0.00  0.00    +0.000 A 
ATOM     11  C   UNL     1       3.259   4.981  18.013  0.00  0.00    +0.000 A 
ATOM     12 CL   UNL     1       3.395   6.680  17.734  0.00  0.00    +0.000 Cl
ENDBRANCH   3   5
BRANCH   2  13
ATOM     13  C   UNL     1       7.834   5.678  18.118  0.00  0.00    +0.000 C 
BRANCH  13  14
ATOM     14  O   UNL     1       8.078   7.021  18.535  0.00  0.00    +0.000 OA
BRANCH  14  15
ATOM     15  C   UNL     1       7.616   7.954  17.665  0.00  0.00    +0.000 C 
ATOM     16  O   UNL     1       6.692   7.820  16.881  0.00  0.00    +0.000 OA
BRANCH  15  17
ATOM     17  C   UNL     1       8.421   9.175  17.820  0.00  0.00    +0.000 C 
ATOM     18  C   UNL     1       8.857   9.517  19.042  0.00  0.00    +0.000 C 
BRANCH  18  19
ATOM     19  C   UNL     1       9.629  10.693  19.232  0.00  0.00    +0.000 A 
ATOM     20  C   UNL     1      10.079  11.598  18.278  0.00  0.00    +0.000 A 
ATOM     21  C   UNL     1      10.811  12.608  18.947  0.00  0.00    +0.000 A 
ATOM     22  C   UNL     1      10.777  12.277  20.276  0.00  0.00    +0.000 A 
ATOM     23  O   UNL     1      10.072  11.134  20.460  0.00  0.00    +0.000 OA
ENDBRANCH  18  19
ENDBRANCH  15  17
ENDBRANCH  14  15
ENDBRANCH  13  14
ENDBRANCH   2  13
TORSDOF 6
ENDMDL
MODEL 2
REMARK VINA RESULT:      -7.2      1.571      1.851
REMARK  Name = 
REMARK  6 active torsions:
REMARK  status: ('A' for Active; 'I' for Inactive)
REMARK    1  A    between atoms: C_2  and  C_3
REMARK    2  A    between atoms: C_3  and  O_4
REMARK    3  A    between atoms: O_4  and  C_5
REMARK    4  A    between atoms: C_5  and  C_7
REMARK    5  A    between atoms: C_8  and  C_9
REMARK    6  A    between atoms: N_14  and  C_15
REMARK                            x       y       z     vdW  Elec       q    Type
REMARK                         _______ _______ _______ _____ _____    ______ ____
ROOT
ATOM      1  O   UNL     1       5.191   4.813  16.080  0.00  0.00    +0.000 OA
ATOM      2  C   UNL     1       5.779   5.501  16.912  0.00  0.00    +0.000 C 
ATOM      3  N   UNL     1       5.476   5.617  18.255  0.00  0.00    +0.000 N 
ATOM      4  H   UNL     1       6.062   6.218  18.824  0.00  0.00    +0.000 HD
ENDROOT
BRANCH   3   5
ATOM      5  C   UNL     1       4.405   4.974  18.902  0.00  0.00    +0.000 A 
ATOM      6  N   UNL     1       4.589   3.748  19.427  0.00  0.00    +0.000 NA
ATOM      7  C   UNL     1       3.544   3.144  20.040  0.00  0.00    +0.000 A 
ATOM      8  C   UNL     1       2.293   3.721  20.160  0.00  0.00    +0.000 A 
ATOM      9 CL   UNL     1       1.013   2.892  20.945  0.00  0.00    +0.000 Cl
ATOM     10  C   UNL     1       2.100   4.990  19.629  0.00  0.00    +0.000 A 
ATOM     11  C   UNL     1       3.166   5.627  18.992  0.00  0.00    +0.000 A 
ATOM     12 CL   UNL     1       2.918   7.209  18.343  0.00  0.00    +0.000 Cl
ENDBRANCH   3   5
BRANCH   2  13
ATOM     13  C   UNL     1       7.046   6.260  16.515  0.00  0.00    +0.000 C 
BRANCH  13  14
ATOM     14  O   UNL     1       7.076   7.626  16.927  0.00  0.00    +0.000 OA
BRANCH  14  15
ATOM     15  C   UNL     1       7.922   7.865  17.961  0.00  0.00    +0.000 C 
ATOM     16  O   UNL     1       8.307   7.055  18.785  0.00  0.00    +0.000 OA
BRANCH  15  17
ATOM     17  C   UNL     1       8.307   9.285  17.927  0.00  0.00    +0.000 C 
ATOM     18  C   UNL     1       9.050   9.783  18.926  0.00  0.00    +0.000 C 
BRANCH  18  19
ATOM     19  C   UNL     1       9.434  11.149  18.932  0.00  0.00    +0.000 A 
ATOM     20  C   UNL     1       9.701  11.970  20.021  0.00  0.00    +0.000 A 
ATOM     21  C   UNL     1      10.042  13.253  19.528  0.00  0.00    +0.000 A 
ATOM     22  C   UNL     1       9.969  13.159  18.163  0.00  0.00    +0.000 A 
ATOM     23  O   UNL     1       9.607  11.907  17.793  0.00  0.00    +0.000 OA
ENDBRANCH  18  19
ENDBRANCH  15  17
ENDBRANCH  14  15
ENDBRANCH  13  14
ENDBRANCH   2  13
TORSDOF 6
ENDMDL
MODEL 3
REMARK VINA RESULT:      -7.1      1.314      1.425
REMARK  Name = 
REMARK  6 active torsions:
REMARK  status: ('A' for Active; 'I' for Inactive)
REMARK    1  A    between atoms: C_2  and  C_3
REMARK    2  A    between atoms: C_3  and  O_4
REMARK    3  A    between atoms: O_4  and  C_5
REMARK    4  A    between atoms: C_5  and  C_7
REMARK    5  A    between atoms: C_8  and  C_9
REMARK    6  A    between atoms: N_14  and  C_15
REMARK                            x       y       z     vdW  Elec       q    Type
REMARK                         _______ _______ _______ _____ _____    ______ ____
ROOT
ATOM      1  O   UNL     1       5.551   6.245  19.205  0.00  0.00    +0.000 OA
ATOM      2  C   UNL     1       6.303   5.319  18.910  0.00  0.00    +0.000 C 
ATOM      3  N   UNL     1       5.941   4.016  18.622  0.00  0.00    +0.000 N 
ATOM      4  H   UNL     1       6.676   3.360  18.383  0.00  0.00    +0.000 HD
ENDROOT
BRANCH   3   5
ATOM      5  C   UNL     1       4.625   3.518  18.647  0.00  0.00    +0.000 A 
ATOM      6  N   UNL     1       4.129   3.019  19.796  0.00  0.00    +0.000 NA
ATOM      7  C   UNL     1       2.863   2.538  19.797  0.00  0.00    +0.000 A 
ATOM      8  C   UNL     1       2.048   2.534  18.680  0.00  0.00    +0.000 A 
ATOM      9 CL   UNL     1       0.455   1.901  18.756  0.00  0.00    +0.000 Cl
ATOM     10  C   UNL     1       2.551   3.055  17.495  0.00  0.00    +0.000 A 
ATOM     11  C   UNL     1       3.855   3.554  17.475  0.00  0.00    +0.000 A 
ATOM     12 CL   UNL     1       4.469   4.209  15.999  0.00  0.00    +0.000 Cl
ENDBRANCH   3   5
BRANCH   2  13
ATOM     13  C   UNL     1       7.799   5.579  18.727  0.00  0.00    +0.000 C 
BRANCH  13  14
ATOM     14  O   UNL     1       8.178   6.953  18.803  0.00  0.00    +0.000 OA
BRANCH  14  15
ATOM     15  C   UNL     1       7.913   7.655  17.673  0.00  0.00    +0.000 C 
ATOM     16  O   UNL     1       7.494   7.204  16.621  0.00  0.00    +0.000 OA
BRANCH  15  17
ATOM     17  C   UNL     1       8.218   9.072  17.923  0.00  0.00    +0.000 C 
ATOM     18  C   UNL     1       8.965   9.400  18.987  0.00  0.00    +0.000 C 
BRANCH  18  19
ATOM     19  C   UNL     1       9.273  10.757  19.266  0.00  0.00    +0.000 A 
ATOM     20  C   UNL     1       9.800  11.306  20.429  0.00  0.00    +0.000 A 
ATOM     21  C   UNL     1       9.929  12.702  20.233  0.00  0.00    +0.000 A 
ATOM     22  C   UNL     1       9.476  12.945  18.963  0.00  0.00    +0.000 A 
ATOM     23  O   UNL     1       9.082  11.790  18.373  0.00  0.00    +0.000 OA
ENDBRANCH  18  19
ENDBRANCH  15  17
ENDBRANCH  14  15
ENDBRANCH  13  14
ENDBRANCH   2  13
TORSDOF 6
ENDMDL
MODEL 4
REMARK VINA RESULT:      -7.1      4.058      6.655
REMARK  Name = 
REMARK  6 active torsions:
REMARK  status: ('A' for Active; 'I' for Inactive)
REMARK    1  A    between atoms: C_2  and  C_3
REMARK    2  A    between atoms: C_3  and  O_4
REMARK    3  A    between atoms: O_4  and  C_5
REMARK    4  A    between atoms: C_5  and  C_7
REMARK    5  A    between atoms: C_8  and  C_9
REMARK    6  A    between atoms: N_14  and  C_15
REMARK                            x       y       z     vdW  Elec       q    Type
REMARK                         _______ _______ _______ _____ _____    ______ ____
ROOT
ATOM      1  O   UNL     1       6.283   5.888  19.232  0.00  0.00    +0.000 OA
ATOM      2  C   UNL     1       6.639   4.837  18.704  0.00  0.00    +0.000 C 
ATOM      3  N   UNL     1       5.943   3.644  18.677  0.00  0.00    +0.000 N 
ATOM      4  H   UNL     1       6.362   2.859  18.189  0.00  0.00    +0.000 HD
ENDROOT
BRANCH   3   5
ATOM      5  C   UNL     1       4.695   3.421  19.288  0.00  0.00    +0.000 A 
ATOM      6  N   UNL     1       4.628   2.659  20.396  0.00  0.00    +0.000 NA
ATOM      7  C   UNL     1       3.417   2.452  20.965  0.00  0.00    +0.000 A 
ATOM      8  C   UNL     1       2.241   2.984  20.470  0.00  0.00    +0.000 A 
ATOM      9 CL   UNL     1       0.740   2.671  21.241  0.00  0.00    +0.000 Cl
ATOM     10  C   UNL     1       2.305   3.777  19.332  0.00  0.00    +0.000 A 
ATOM     11  C   UNL     1       3.545   4.001  18.731  0.00  0.00    +0.000 A 
ATOM     12 CL   UNL     1       3.616   4.998  17.322  0.00  0.00    +0.000 Cl
ENDBRANCH   3   5
BRANCH   2  13
ATOM     13  C   UNL     1       7.933   4.794  17.888  0.00  0.00    +0.000 C 
BRANCH  13  14
ATOM     14  O   UNL     1       7.766   4.394  16.529  0.00  0.00    +0.000 OA
BRANCH  14  15
ATOM     15  C   UNL     1       6.941   5.204  15.819  0.00  0.00    +0.000 C 
ATOM     16  O   UNL     1       6.820   6.410  15.950  0.00  0.00    +0.000 OA
BRANCH  15  17
ATOM     17  C   UNL     1       6.200   4.381  14.850  0.00  0.00    +0.000 C 
ATOM     18  C   UNL     1       6.653   4.291  13.591  0.00  0.00    +0.000 C 
BRANCH  18  19
ATOM     19  C   UNL     1       5.961   3.513  12.627  0.00  0.00    +0.000 A 
ATOM     20  C   UNL     1       4.691   3.716  12.099  0.00  0.00    +0.000 A 
ATOM     21  C   UNL     1       4.433   2.678  11.172  0.00  0.00    +0.000 A 
ATOM     22  C   UNL     1       5.553   1.889  11.173  0.00  0.00    +0.000 A 
ATOM     23  O   UNL     1       6.475   2.377  12.038  0.00  0.00    +0.000 OA
ENDBRANCH  18  19
ENDBRANCH  15  17
ENDBRANCH  14  15
ENDBRANCH  13  14
ENDBRANCH   2  13
TORSDOF 6
ENDMDL
MODEL 5
REMARK VINA RESULT:      -7.1      4.249      6.700
REMARK  Name = 
REMARK  6 active torsions:
REMARK  status: ('A' for Active; 'I' for Inactive)
REMARK    1  A    between atoms: C_2  and  C_3
REMARK    2  A    between atoms: C_3  and  O_4
REMARK    3  A    between atoms: O_4  and  C_5
REMARK    4  A    between atoms: C_5  and  C_7
REMARK    5  A    between atoms: C_8  and  C_9
REMARK    6  A    between atoms: N_14  and  C_15
REMARK                            x       y       z     vdW  Elec       q    Type
REMARK                         _______ _______ _______ _____ _____    ______ ____
ROOT
ATOM      1  O   UNL     1       6.986   5.252  19.434  0.00  0.00    +0.000 OA
ATOM      2  C   UNL     1       6.735   4.615  18.414  0.00  0.00    +0.000 C 
ATOM      3  N   UNL     1       5.627   3.822  18.182  0.00  0.00    +0.000 N 
ATOM      4  H   UNL     1       5.551   3.364  17.280  0.00  0.00    +0.000 HD
ENDROOT
BRANCH   3   5
ATOM      5  C   UNL     1       4.593   3.585  19.106  0.00  0.00    +0.000 A 
ATOM      6  N   UNL     1       4.645   2.491  19.890  0.00  0.00    +0.000 NA
ATOM      7  C   UNL     1       3.638   2.278  20.768  0.00  0.00    +0.000 A 
ATOM      8  C   UNL     1       2.555   3.127  20.908  0.00  0.00    +0.000 A 
ATOM      9 CL   UNL     1       1.310   2.788  22.039  0.00  0.00    +0.000 Cl
ATOM     10  C   UNL     1       2.500   4.261  20.108  0.00  0.00    +0.000 A 
ATOM     11  C   UNL     1       3.530   4.496  19.196  0.00  0.00    +0.000 A 
ATOM     12 CL   UNL     1       3.458   5.915  18.213  0.00  0.00    +0.000 Cl
ENDBRANCH   3   5
BRANCH   2  13
ATOM     13  C   UNL     1       7.649   4.740  17.193  0.00  0.00    +0.000 C 
BRANCH  13  14
ATOM     14  O   UNL     1       7.263   5.750  16.262  0.00  0.00    +0.000 OA
BRANCH  14  15
ATOM     15  C   UNL     1       6.159   5.432  15.539  0.00  0.00    +0.000 C 
ATOM     16  O   UNL     1       5.055   5.936  15.641  0.00  0.00    +0.000 OA
BRANCH  15  17
ATOM     17  C   UNL     1       6.515   4.360  14.595  0.00  0.00    +0.000 C 
ATOM     18  C   UNL     1       5.914   4.320  13.398  0.00  0.00    +0.000 C 
BRANCH  18  19
ATOM     19  C   UNL     1       6.225   3.296  12.465  0.00  0.00    +0.000 A 
ATOM     20  C   UNL     1       7.424   3.062  11.803  0.00  0.00    +0.000 A 
ATOM     21  C   UNL     1       7.251   1.928  10.973  0.00  0.00    +0.000 A 
ATOM     22  C   UNL     1       5.957   1.519  11.166  0.00  0.00    +0.000 A 
ATOM     23  O   UNL     1       5.333   2.328  12.056  0.00  0.00    +0.000 OA
ENDBRANCH  18  19
ENDBRANCH  15  17
ENDBRANCH  14  15
ENDBRANCH  13  14
ENDBRANCH   2  13
TORSDOF 6
ENDMDL
MODEL 6
REMARK VINA RESULT:      -6.9      1.613      1.862
REMARK  Name = 
REMARK  6 active torsions:
REMARK  status: ('A' for Active; 'I' for Inactive)
REMARK    1  A    between atoms: C_2  and  C_3
REMARK    2  A    between atoms: C_3  and  O_4
REMARK    3  A    between atoms: O_4  and  C_5
REMARK    4  A    between atoms: C_5  and  C_7
REMARK    5  A    between atoms: C_8  and  C_9
REMARK    6  A    between atoms: N_14  and  C_15
REMARK                            x       y       z     vdW  Elec       q    Type
REMARK                         _______ _______ _______ _____ _____    ______ ____
ROOT
ATOM      1  O   UNL     1       5.751   5.606  19.729  0.00  0.00    +0.000 OA
ATOM      2  C   UNL     1       6.289   4.856  18.918  0.00  0.00    +0.000 C 
ATOM      3  N   UNL     1       5.695   3.819  18.224  0.00  0.00    +0.000 N 
ATOM      4  H   UNL     1       6.267   3.291  17.575  0.00  0.00    +0.000 HD
ENDROOT
BRANCH   3   5
ATOM      5  C   UNL     1       4.351   3.423  18.355  0.00  0.00    +0.000 A 
ATOM      6  N   UNL     1       3.435   3.895  17.487  0.00  0.00    +0.000 NA
ATOM      7  C   UNL     1       2.147   3.507  17.634  0.00  0.00    +0.000 A 
ATOM      8  C   UNL     1       1.717   2.647  18.628  0.00  0.00    +0.000 A 
ATOM      9 CL   UNL     1       0.065   2.204  18.756  0.00  0.00    +0.000 Cl
ATOM     10  C   UNL     1       2.659   2.150  19.520  0.00  0.00    +0.000 A 
ATOM     11  C   UNL     1       3.992   2.541  19.385  0.00  0.00    +0.000 A 
ATOM     12 CL   UNL     1       5.157   1.909  20.493  0.00  0.00    +0.000 Cl
ENDBRANCH   3   5
BRANCH   2  13
ATOM     13  C   UNL     1       7.744   5.094  18.508  0.00  0.00    +0.000 C 
BRANCH  13  14
ATOM     14  O   UNL     1       7.908   5.752  17.252  0.00  0.00    +0.000 OA
BRANCH  14  15
ATOM     15  C   UNL     1       7.294   6.960  17.186  0.00  0.00    +0.000 C 
ATOM     16  O   UNL     1       6.286   7.227  16.555  0.00  0.00    +0.000 OA
BRANCH  15  17
ATOM     17  C   UNL     1       8.052   7.913  18.011  0.00  0.00    +0.000 C 
ATOM     18  C   UNL     1       8.077   9.206  17.656  0.00  0.00    +0.000 C 
BRANCH  18  19
ATOM     19  C   UNL     1       8.805  10.153  18.423  0.00  0.00    +0.000 A 
ATOM     20  C   UNL     1       9.194  11.440  18.069  0.00  0.00    +0.000 A 
ATOM     21  C   UNL     1       9.900  11.998  19.161  0.00  0.00    +0.000 A 
ATOM     22  C   UNL     1       9.911  11.031  20.132  0.00  0.00    +0.000 A 
ATOM     23  O   UNL     1       9.259   9.924  19.704  0.00  0.00    +0.000 OA
ENDBRANCH  18  19
ENDBRANCH  15  17
ENDBRANCH  14  15
ENDBRANCH  13  14
ENDBRANCH   2  13
TORSDOF 6
ENDMDL
MODEL 7
REMARK VINA RESULT:      -6.9      1.277      1.585
REMARK  Name = 
REMARK  6 active torsions:
REMARK  status: ('A' for Active; 'I' for Inactive)
REMARK    1  A    between atoms: C_2  and  C_3
REMARK    2  A    between atoms: C_3  and  O_4
REMARK    3  A    between atoms: O_4  and  C_5
REMARK    4  A    between atoms: C_5  and  C_7
REMARK    5  A    between atoms: C_8  and  C_9
REMARK    6  A    between atoms: N_14  and  C_15
REMARK                            x       y       z     vdW  Elec       q    Type
REMARK                         _______ _______ _______ _____ _____    ______ ____
ROOT
ATOM      1  O   UNL     1       6.297   5.606  18.975  0.00  0.00    +0.000 OA
ATOM      2  C   UNL     1       6.206   5.732  17.756  0.00  0.00    +0.000 C 
ATOM      3  N   UNL     1       5.172   5.292  16.951  0.00  0.00    +0.000 N 
ATOM      4  H   UNL     1       5.230   5.480  15.956  0.00  0.00    +0.000 HD
ENDROOT
BRANCH   3   5
ATOM      5  C   UNL     1       4.041   4.586  17.400  0.00  0.00    +0.000 A 
ATOM      6  N   UNL     1       4.025   3.241  17.318  0.00  0.00    +0.000 NA
ATOM      7  C   UNL     1       2.925   2.582  17.749  0.00  0.00    +0.000 A 
ATOM      8  C   UNL     1       1.813   3.213  18.275  0.00  0.00    +0.000 A 
ATOM      9 CL   UNL     1       0.451   2.310  18.795  0.00  0.00    +0.000 Cl
ATOM     10  C   UNL     1       1.827   4.599  18.370  0.00  0.00    +0.000 A 
ATOM     11  C   UNL     1       2.953   5.296  17.929  0.00  0.00    +0.000 A 
ATOM     12 CL   UNL     1       2.965   7.019  18.061  0.00  0.00    +0.000 Cl
ENDBRANCH   3   5
BRANCH   2  13
ATOM     13  C   UNL     1       7.260   6.535  16.991  0.00  0.00    +0.000 C 
BRANCH  13  14
ATOM     14  O   UNL     1       7.196   7.946  17.194  0.00  0.00    +0.000 OA
BRANCH  14  15
ATOM     15  C   UNL     1       8.091   8.407  18.103  0.00  0.00    +0.000 C 
ATOM     16  O   UNL     1       8.692   7.744  18.931  0.00  0.00    +0.000 OA
BRANCH  15  17
ATOM     17  C   UNL     1       8.224   9.862  17.929  0.00  0.00    +0.000 C 
ATOM     18  C   UNL     1       9.410  10.441  18.164  0.00  0.00    +0.000 C 
BRANCH  18  19
ATOM     19  C   UNL     1       9.574  11.843  18.014  0.00  0.00    +0.000 A 
ATOM     20  C   UNL     1       8.612  12.843  18.099  0.00  0.00    +0.000 A 
ATOM     21  C   UNL     1       9.252  14.085  17.877  0.00  0.00    +0.000 A 
ATOM     22  C   UNL     1      10.574  13.792  17.667  0.00  0.00    +0.000 A 
ATOM     23  O   UNL     1      10.780  12.455  17.747  0.00  0.00    +0.000 OA
ENDBRANCH  18  19
ENDBRANCH  15  17
ENDBRANCH  14  15
ENDBRANCH  13  14
ENDBRANCH   2  13
TORSDOF 6
ENDMDL
MODEL 8
REMARK VINA RESULT:      -6.9      1.364      1.691
REMARK  Name = 
REMARK  6 active torsions:
REMARK  status: ('A' for Active; 'I' for Inactive)
REMARK    1  A    between atoms: C_2  and  C_3
REMARK    2  A    between atoms: C_3  and  O_4
REMARK    3  A    between atoms: O_4  and  C_5
REMARK    4  A    between atoms: C_5  and  C_7
REMARK    5  A    between atoms: C_8  and  C_9
REMARK    6  A    between atoms: N_14  and  C_15
REMARK                            x       y       z     vdW  Elec       q    Type
REMARK                         _______ _______ _______ _____ _____    ______ ____
ROOT
ATOM      1  O   UNL     1       4.963   6.071  15.918  0.00  0.00    +0.000 OA
ATOM      2  C   UNL     1       5.700   5.804  16.864  0.00  0.00    +0.000 C 
ATOM      3  N   UNL     1       5.419   4.958  17.921  0.00  0.00    +0.000 N 
ATOM      4  H   UNL     1       6.135   4.825  18.627  0.00  0.00    +0.000 HD
ENDROOT
BRANCH   3   5
ATOM      5  C   UNL     1       4.206   4.271  18.108  0.00  0.00    +0.000 A 
ATOM      6  N   UNL     1       4.124   2.970  17.767  0.00  0.00    +0.000 NA
ATOM      7  C   UNL     1       2.946   2.329  17.949  0.00  0.00    +0.000 A 
ATOM      8  C   UNL     1       1.818   2.937  18.470  0.00  0.00    +0.000 A 
ATOM      9 CL   UNL     1       0.356   2.061  18.665  0.00  0.00    +0.000 Cl
ATOM     10  C   UNL     1       1.900   4.275  18.831  0.00  0.00    +0.000 A 
ATOM     11  C   UNL     1       3.107   4.953  18.650  0.00  0.00    +0.000 A 
ATOM     12 CL   UNL     1       3.201   6.615  19.112  0.00  0.00    +0.000 Cl
ENDBRANCH   3   5
BRANCH   2  13
ATOM     13  C   UNL     1       7.129   6.347  16.895  0.00  0.00    +0.000 C 
BRANCH  13  14
ATOM     14  O   UNL     1       7.224   7.769  16.979  0.00  0.00    +0.000 OA
BRANCH  14  15
ATOM     15  C   UNL     1       8.052   8.202  17.963  0.00  0.00    +0.000 C 
ATOM     16  O   UNL     1       8.509   7.533  18.874  0.00  0.00    +0.000 OA
BRANCH  15  17
ATOM     17  C   UNL     1       8.314   9.635  17.753  0.00  0.00    +0.000 C 
ATOM     18  C   UNL     1       9.285  10.230  18.460  0.00  0.00    +0.000 C 
BRANCH  18  19
ATOM     19  C   UNL     1       9.560  11.612  18.290  0.00  0.00    +0.000 A 
ATOM     20  C   UNL     1      10.636  12.209  17.642  0.00  0.00    +0.000 A 
ATOM     21  C   UNL     1      10.478  13.612  17.735  0.00  0.00    +0.000 A 
ATOM     22  C   UNL     1       9.315  13.811  18.434  0.00  0.00    +0.000 A 
ATOM     23  O   UNL     1       8.757  12.624  18.771  0.00  0.00    +0.000 OA
ENDBRANCH  18  19
ENDBRANCH  15  17
ENDBRANCH  14  15
ENDBRANCH  13  14
ENDBRANCH   2  13
TORSDOF 6
ENDMDL
MODEL 9
REMARK VINA RESULT:      -6.9      4.437      7.111
REMARK  Name = 
REMARK  6 active torsions:
REMARK  status: ('A' for Active; 'I' for Inactive)
REMARK    1  A    between atoms: C_2  and  C_3
REMARK    2  A    between atoms: C_3  and  O_4
REMARK    3  A    between atoms: O_4  and  C_5
REMARK    4  A    between atoms: C_5  and  C_7
REMARK    5  A    between atoms: C_8  and  C_9
REMARK    6  A    between atoms: N_14  and  C_15
REMARK                            x       y       z     vdW  Elec       q    Type
REMARK                         _______ _______ _______ _____ _____    ______ ____
ROOT
ATOM      1  O   UNL     1       5.688   5.886  18.506  0.00  0.00    +0.000 OA
ATOM      2  C   UNL     1       4.852   5.962  17.609  0.00  0.00    +0.000 C 
ATOM      3  N   UNL     1       3.563   5.466  17.631  0.00  0.00    +0.000 N 
ATOM      4  H   UNL     1       2.981   5.617  16.815  0.00  0.00    +0.000 HD
ENDROOT
BRANCH   3   5
ATOM      5  C   UNL     1       2.989   4.750  18.698  0.00  0.00    +0.000 A 
ATOM      6  N   UNL     1       2.360   5.420  19.682  0.00  0.00    +0.000 NA
ATOM      7  C   UNL     1       1.821   4.713  20.703  0.00  0.00    +0.000 A 
ATOM      8  C   UNL     1       1.878   3.334  20.789  0.00  0.00    +0.000 A 
ATOM      9 CL   UNL     1       1.177   2.505  22.118  0.00  0.00    +0.000 Cl
ATOM     10  C   UNL     1       2.517   2.636  19.772  0.00  0.00    +0.000 A 
ATOM     11  C   UNL     1       3.081   3.350  18.713  0.00  0.00    +0.000 A 
ATOM     12 CL   UNL     1       3.865   2.472  17.448  0.00  0.00    +0.000 Cl
ENDBRANCH   3   5
BRANCH   2  13
ATOM     13  C   UNL     1       5.164   6.761  16.342  0.00  0.00    +0.000 C 
BRANCH  13  14
ATOM     14  O   UNL     1       5.395   5.967  15.179  0.00  0.00    +0.000 OA
BRANCH  14  15
ATOM     15  C   UNL     1       6.605   5.354  15.170  0.00  0.00    +0.000 C 
ATOM     16  O   UNL     1       7.614   5.731  15.740  0.00  0.00    +0.000 OA
BRANCH  15  17
ATOM     17  C   UNL     1       6.504   4.138  14.346  0.00  0.00    +0.000 C 
ATOM     18  C   UNL     1       6.522   4.253  13.010  0.00  0.00    +0.000 C 
BRANCH  18  19
ATOM     19  C   UNL     1       6.418   3.103  12.184  0.00  0.00    +0.000 A 
ATOM     20  C   UNL     1       7.427   2.428  11.507  0.00  0.00    +0.000 A 
ATOM     21  C   UNL     1       6.837   1.345  10.813  0.00  0.00    +0.000 A 
ATOM     22  C   UNL     1       5.498   1.404  11.097  0.00  0.00    +0.000 A 
ATOM     23  O   UNL     1       5.234   2.450  11.916  0.00  0.00    +0.000 OA
ENDBRANCH  18  19
ENDBRANCH  15  17
ENDBRANCH  14  15
ENDBRANCH  13  14
ENDBRANCH   2  13
TORSDOF 6
ENDMDL
