MODEL 1
REMARK VINA RESULT:      -6.2      0.000      0.000
REMARK  Name = 
REMARK  7 active torsions:
REMARK  status: ('A' for Active; 'I' for Inactive)
REMARK    1  A    between atoms: C_1  and  C_2
REMARK    2  A    between atoms: C_2  and  O_3
REMARK    3  A    between atoms: O_3  and  C_4
REMARK    4  A    between atoms: N_9  and  C_10
REMARK    5  A    between atoms: C_14  and  C_15
REMARK    6  A    between atoms: C_19  and  C_20
REMARK    7  A    between atoms: C_24  and  C_25
REMARK                            x       y       z     vdW  Elec       q    Type
REMARK                         _______ _______ _______ _____ _____    ______ ____
ROOT
ATOM      1  C   UNL     1       8.420  14.606  21.904  0.00  0.00    +0.000 C 
ATOM      2  O   UNL     1       8.329  13.592  20.927  0.00  0.00    +0.000 OA
ATOM      3  C   UNL     1       9.073  13.768  19.738  0.00  0.00    +0.000 C 
ATOM      4  O   UNL     1       8.820  12.620  18.921  0.00  0.00    +0.000 OA
ATOM      5  C   UNL     1       9.789  11.600  19.175  0.00  0.00    +0.000 C 
ATOM      6  C   UNL     1       9.091  10.246  19.069  0.00  0.00    +0.000 C 
ATOM      7  C   UNL     1      10.920  11.709  18.134  0.00  0.00    +0.000 C 
ATOM      8  C   UNL     1      11.127  13.140  17.620  0.00  0.00    +0.000 C 
ATOM      9  C   UNL     1      11.402  14.215  18.701  0.00  0.00    +0.000 C 
ATOM     10  C   UNL     1      11.219  15.642  18.124  0.00  0.00    +0.000 C 
ATOM     11  C   UNL     1      12.167  15.909  16.949  0.00  0.00    +0.000 C 
ATOM     12  C   UNL     1      11.450  16.709  19.201  0.00  0.00    +0.000 C 
ATOM     13  C   UNL     1      10.545  16.508  20.408  0.00  0.00    +0.000 C 
ATOM     14  C   UNL     1      10.778  15.130  21.038  0.00  0.00    +0.000 C 
ATOM     15  C   UNL     1       9.899  14.861  22.292  0.00  0.00    +0.000 C 
ATOM     16  C   UNL     1      10.039  15.945  23.366  0.00  0.00    +0.000 C 
ATOM     17  C   UNL     1      10.586  13.987  20.008  0.00  0.00    +0.000 C 
ATOM     18  O   UNL     1      11.208  12.818  20.605  0.00  0.00    +0.000 OA
ATOM     19  O   UNL     1      10.299  11.679  20.512  0.00  0.00    +0.000 OA
ENDROOT
BRANCH   1  25
ATOM     20  C   UNL     1       3.524  15.644  22.715  0.00  0.00    +0.000 C 
ATOM     21  O   UNL     1       3.139  16.723  23.158  0.00  0.00    +0.000 OA
ATOM     22  N   UNL     1       4.838  15.283  22.596  0.00  0.00    +0.000 N 
ATOM     23  C   UNL     1       5.888  16.212  23.003  0.00  0.00    +0.000 C 
ATOM     24  C   UNL     1       7.040  15.479  23.728  0.00  0.00    +0.000 C 
ATOM     25  N   UNL     1       7.568  14.263  23.058  0.00  0.00    +0.000 NA
ATOM     26  C   UNL     1       6.418  13.389  22.719  0.00  0.00    +0.000 C 
ATOM     27  C   UNL     1       5.283  14.061  21.927  0.00  0.00    +0.000 C 
BRANCH  20  28
ATOM     28  O   UNL     1       2.678  14.646  22.343  0.00  0.00    +0.000 OA
BRANCH  28  30
ATOM     29  C   UNL     1       1.856  14.044  20.148  0.00  0.00    +0.000 C 
ATOM     30  C   UNL     1       1.721  14.986  21.332  0.00  0.00    +0.000 C 
ENDBRANCH  28  30
ENDBRANCH  20  28
ENDBRANCH   1  25
TORSDOF 3
ENDMDL
MODEL 2
REMARK VINA RESULT:      -6.2      2.030      2.664
REMARK  Name = 
REMARK  7 active torsions:
REMARK  status: ('A' for Active; 'I' for Inactive)
REMARK    1  A    between atoms: C_1  and  C_2
REMARK    2  A    between atoms: C_2  and  O_3
REMARK    3  A    between atoms: O_3  and  C_4
REMARK    4  A    between atoms: N_9  and  C_10
REMARK    5  A    between atoms: C_14  and  C_15
REMARK    6  A    between atoms: C_19  and  C_20
REMARK    7  A    between atoms: C_24  and  C_25
REMARK                            x       y       z     vdW  Elec       q    Type
REMARK                         _______ _______ _______ _____ _____    ______ ____
ROOT
ATOM      1  C   UNL     1       7.749  16.290  19.831  0.00  0.00    +0.000 C 
ATOM      2  O   UNL     1       7.818  14.923  20.168  0.00  0.00    +0.000 OA
ATOM      3  C   UNL     1       8.764  14.131  19.477  0.00  0.00    +0.000 C 
ATOM      4  O   UNL     1       8.643  12.801  19.995  0.00  0.00    +0.000 OA
ATOM      5  C   UNL     1       9.537  12.608  21.093  0.00  0.00    +0.000 C 
ATOM      6  C   UNL     1       8.850  11.698  22.109  0.00  0.00    +0.000 C 
ATOM      7  C   UNL     1      10.836  11.959  20.578  0.00  0.00    +0.000 C 
ATOM      8  C   UNL     1      11.152  12.323  19.120  0.00  0.00    +0.000 C 
ATOM      9  C   UNL     1      11.246  13.837  18.805  0.00  0.00    +0.000 C 
ATOM     10  C   UNL     1      11.189  14.090  17.277  0.00  0.00    +0.000 C 
ATOM     11  C   UNL     1      12.333  13.388  16.538  0.00  0.00    +0.000 C 
ATOM     12  C   UNL     1      11.240  15.590  16.962  0.00  0.00    +0.000 C 
ATOM     13  C   UNL     1      10.132  16.360  17.666  0.00  0.00    +0.000 C 
ATOM     14  C   UNL     1      10.230  16.184  19.186  0.00  0.00    +0.000 C 
ATOM     15  C   UNL     1       9.139  16.961  19.976  0.00  0.00    +0.000 C 
ATOM     16  C   UNL     1       9.101  18.454  19.634  0.00  0.00    +0.000 C 
ATOM     17  C   UNL     1      10.208  14.688  19.594  0.00  0.00    +0.000 C 
ATOM     18  O   UNL     1      10.697  14.652  20.962  0.00  0.00    +0.000 OA
ATOM     19  O   UNL     1       9.803  13.838  21.779  0.00  0.00    +0.000 OA
ENDROOT
BRANCH   1  25
ATOM     20  C   UNL     1       2.752  15.438  19.925  0.00  0.00    +0.000 C 
ATOM     21  O   UNL     1       1.980  15.924  19.102  0.00  0.00    +0.000 OA
ATOM     22  N   UNL     1       4.083  15.739  20.005  0.00  0.00    +0.000 N 
ATOM     23  C   UNL     1       4.673  16.690  19.069  0.00  0.00    +0.000 C 
ATOM     24  C   UNL     1       5.692  17.617  19.772  0.00  0.00    +0.000 C 
ATOM     25  N   UNL     1       6.701  16.948  20.633  0.00  0.00    +0.000 NA
ATOM     26  C   UNL     1       5.984  16.033  21.555  0.00  0.00    +0.000 C 
ATOM     27  C   UNL     1       5.019  15.039  20.887  0.00  0.00    +0.000 C 
BRANCH  20  28
ATOM     28  O   UNL     1       2.356  14.578  20.902  0.00  0.00    +0.000 OA
BRANCH  28  30
ATOM     29  C   UNL     1       1.590  12.534  19.858  0.00  0.00    +0.000 C 
ATOM     30  C   UNL     1       1.193  13.794  20.607  0.00  0.00    +0.000 C 
ENDBRANCH  28  30
ENDBRANCH  20  28
ENDBRANCH   1  25
TORSDOF 3
ENDMDL
MODEL 3
REMARK VINA RESULT:      -6.2      7.304      9.714
REMARK  Name = 
REMARK  7 active torsions:
REMARK  status: ('A' for Active; 'I' for Inactive)
REMARK    1  A    between atoms: C_1  and  C_2
REMARK    2  A    between atoms: C_2  and  O_3
REMARK    3  A    between atoms: O_3  and  C_4
REMARK    4  A    between atoms: N_9  and  C_10
REMARK    5  A    between atoms: C_14  and  C_15
REMARK    6  A    between atoms: C_19  and  C_20
REMARK    7  A    between atoms: C_24  and  C_25
REMARK                            x       y       z     vdW  Elec       q    Type
REMARK                         _______ _______ _______ _____ _____    ______ ____
ROOT
ATOM      1  C   UNL     1      -1.477  14.607  21.829  0.00  0.00    +0.000 C 
ATOM      2  O   UNL     1      -1.321  13.576  20.879  0.00  0.00    +0.000 OA
ATOM      3  C   UNL     1      -0.376  13.781  19.848  0.00  0.00    +0.000 C 
ATOM      4  O   UNL     1      -0.401  12.608  19.027  0.00  0.00    +0.000 OA
ATOM      5  C   UNL     1       0.560  11.655  19.486  0.00  0.00    +0.000 C 
ATOM      6  C   UNL     1      -0.025  10.258  19.285  0.00  0.00    +0.000 C 
ATOM      7  C   UNL     1       1.859  11.819  18.675  0.00  0.00    +0.000 C 
ATOM      8  C   UNL     1       2.076  13.253  18.172  0.00  0.00    +0.000 C 
ATOM      9  C   UNL     1       2.077  14.358  19.258  0.00  0.00    +0.000 C 
ATOM     10  C   UNL     1       1.924  15.762  18.620  0.00  0.00    +0.000 C 
ATOM     11  C   UNL     1       3.060  16.071  17.639  0.00  0.00    +0.000 C 
ATOM     12  C   UNL     1       1.883  16.857  19.693  0.00  0.00    +0.000 C 
ATOM     13  C   UNL     1       0.778  16.617  20.712  0.00  0.00    +0.000 C 
ATOM     14  C   UNL     1       0.968  15.265  21.410  0.00  0.00    +0.000 C 
ATOM     15  C   UNL     1      -0.116  14.959  22.482  0.00  0.00    +0.000 C 
ATOM     16  C   UNL     1      -0.247  16.065  23.535  0.00  0.00    +0.000 C 
ATOM     17  C   UNL     1       1.043  14.098  20.392  0.00  0.00    +0.000 C 
ATOM     18  O   UNL     1       1.608  12.978  21.126  0.00  0.00    +0.000 OA
ATOM     19  O   UNL     1       0.801  11.784  20.893  0.00  0.00    +0.000 OA
ENDROOT
BRANCH   1  25
ATOM     20  C   UNL     1      -6.213  12.975  21.048  0.00  0.00    +0.000 C 
ATOM     21  O   UNL     1      -7.151  13.739  20.832  0.00  0.00    +0.000 OA
ATOM     22  N   UNL     1      -4.950  13.380  21.381  0.00  0.00    +0.000 N 
ATOM     23  C   UNL     1      -4.647  14.803  21.493  0.00  0.00    +0.000 C 
ATOM     24  C   UNL     1      -3.715  15.089  22.694  0.00  0.00    +0.000 C 
ATOM     25  N   UNL     1      -2.511  14.228  22.809  0.00  0.00    +0.000 NA
ATOM     26  C   UNL     1      -2.946  12.813  22.709  0.00  0.00    +0.000 C 
ATOM     27  C   UNL     1      -3.810  12.468  21.484  0.00  0.00    +0.000 C 
BRANCH  20  28
ATOM     28  O   UNL     1      -6.337  11.621  21.040  0.00  0.00    +0.000 OA
BRANCH  28  30
ATOM     29  C   UNL     1      -6.785  10.790  18.812  0.00  0.00    +0.000 C 
ATOM     30  C   UNL     1      -7.359  11.095  20.184  0.00  0.00    +0.000 C 
ENDBRANCH  28  30
ENDBRANCH  20  28
ENDBRANCH   1  25
TORSDOF 3
ENDMDL
MODEL 4
REMARK VINA RESULT:      -6.1      3.704      9.572
REMARK  Name = 
REMARK  7 active torsions:
REMARK  status: ('A' for Active; 'I' for Inactive)
REMARK    1  A    between atoms: C_1  and  C_2
REMARK    2  A    between atoms: C_2  and  O_3
REMARK    3  A    between atoms: O_3  and  C_4
REMARK    4  A    between atoms: N_9  and  C_10
REMARK    5  A    between atoms: C_14  and  C_15
REMARK    6  A    between atoms: C_19  and  C_20
REMARK    7  A    between atoms: C_24  and  C_25
REMARK                            x       y       z     vdW  Elec       q    Type
REMARK                         _______ _______ _______ _____ _____    ______ ____
ROOT
ATOM      1  C   UNL     1       1.342  15.268  19.497  0.00  0.00    +0.000 C 
ATOM      2  O   UNL     1       1.681  13.900  19.454  0.00  0.00    +0.000 OA
ATOM      3  C   UNL     1       0.965  13.027  20.305  0.00  0.00    +0.000 C 
ATOM      4  O   UNL     1       1.484  11.712  20.076  0.00  0.00    +0.000 OA
ATOM      5  C   UNL     1       0.738  11.050  19.052  0.00  0.00    +0.000 C 
ATOM      6  C   UNL     1       1.706  10.191  18.241  0.00  0.00    +0.000 C 
ATOM      7  C   UNL     1      -0.347  10.174  19.705  0.00  0.00    +0.000 C 
ATOM      8  C   UNL     1      -0.826  10.719  21.058  0.00  0.00    +0.000 C 
ATOM      9  C   UNL     1      -1.362  12.173  21.050  0.00  0.00    +0.000 C 
ATOM     10  C   UNL     1      -1.455  12.736  22.490  0.00  0.00    +0.000 C 
ATOM     11  C   UNL     1      -2.389  11.900  23.372  0.00  0.00    +0.000 C 
ATOM     12  C   UNL     1      -1.946  14.189  22.486  0.00  0.00    +0.000 C 
ATOM     13  C   UNL     1      -1.069  15.086  21.624  0.00  0.00    +0.000 C 
ATOM     14  C   UNL     1      -1.036  14.584  20.176  0.00  0.00    +0.000 C 
ATOM     15  C   UNL     1      -0.172  15.466  19.230  0.00  0.00    +0.000 C 
ATOM     16  C   UNL     1      -0.577  16.943  19.251  0.00  0.00    +0.000 C 
ATOM     17  C   UNL     1      -0.570  13.108  20.090  0.00  0.00    +0.000 C 
ATOM     18  O   UNL     1      -0.960  12.655  18.765  0.00  0.00    +0.000 OA
ATOM     19  O   UNL     1       0.169  11.985  18.126  0.00  0.00    +0.000 OA
ENDROOT
BRANCH   1  25
ATOM     20  C   UNL     1       6.389  15.234  19.013  0.00  0.00    +0.000 C 
ATOM     21  O   UNL     1       7.129  15.902  19.730  0.00  0.00    +0.000 OA
ATOM     22  N   UNL     1       5.023  15.308  19.032  0.00  0.00    +0.000 N 
ATOM     23  C   UNL     1       4.356  16.220  19.955  0.00  0.00    +0.000 C 
ATOM     24  C   UNL     1       3.144  16.912  19.287  0.00  0.00    +0.000 C 
ATOM     25  N   UNL     1       2.199  16.023  18.564  0.00  0.00    +0.000 NA
ATOM     26  C   UNL     1       2.986  15.166  17.643  0.00  0.00    +0.000 C 
ATOM     27  C   UNL     1       4.154  14.398  18.284  0.00  0.00    +0.000 C 
BRANCH  20  28
ATOM     28  O   UNL     1       6.848  14.377  18.062  0.00  0.00    +0.000 OA
BRANCH  28  30
ATOM     29  C   UNL     1       8.503  12.668  17.619  0.00  0.00    +0.000 C 
ATOM     30  C   UNL     1       8.248  14.081  18.115  0.00  0.00    +0.000 C 
ENDBRANCH  28  30
ENDBRANCH  20  28
ENDBRANCH   1  25
TORSDOF 3
ENDMDL
MODEL 5
REMARK VINA RESULT:      -6.0      5.496     10.976
REMARK  Name = 
REMARK  7 active torsions:
REMARK  status: ('A' for Active; 'I' for Inactive)
REMARK    1  A    between atoms: C_1  and  C_2
REMARK    2  A    between atoms: C_2  and  O_3
REMARK    3  A    between atoms: O_3  and  C_4
REMARK    4  A    between atoms: N_9  and  C_10
REMARK    5  A    between atoms: C_14  and  C_15
REMARK    6  A    between atoms: C_19  and  C_20
REMARK    7  A    between atoms: C_24  and  C_25
REMARK                            x       y       z     vdW  Elec       q    Type
REMARK                         _______ _______ _______ _____ _____    ______ ____
ROOT
ATOM      1  C   UNL     1       0.578  13.008  20.037  0.00  0.00    +0.000 C 
ATOM      2  O   UNL     1       0.022  13.833  21.037  0.00  0.00    +0.000 OA
ATOM      3  C   UNL     1      -1.388  13.903  21.110  0.00  0.00    +0.000 C 
ATOM      4  O   UNL     1      -1.700  14.788  22.192  0.00  0.00    +0.000 OA
ATOM      5  C   UNL     1      -1.844  14.056  23.412  0.00  0.00    +0.000 C 
ATOM      6  C   UNL     1      -1.294  14.917  24.547  0.00  0.00    +0.000 C 
ATOM      7  C   UNL     1      -3.335  13.746  23.641  0.00  0.00    +0.000 C 
ATOM      8  C   UNL     1      -4.131  13.622  22.334  0.00  0.00    +0.000 C 
ATOM      9  C   UNL     1      -3.603  12.580  21.317  0.00  0.00    +0.000 C 
ATOM     10  C   UNL     1      -4.232  12.802  19.919  0.00  0.00    +0.000 C 
ATOM     11  C   UNL     1      -5.760  12.686  19.954  0.00  0.00    +0.000 C 
ATOM     12  C   UNL     1      -3.682  11.798  18.898  0.00  0.00    +0.000 C 
ATOM     13  C   UNL     1      -2.164  11.850  18.807  0.00  0.00    +0.000 C 
ATOM     14  C   UNL     1      -1.528  11.548  20.170  0.00  0.00    +0.000 C 
ATOM     15  C   UNL     1       0.026  11.564  20.149  0.00  0.00    +0.000 C 
ATOM     16  C   UNL     1       0.622  10.631  19.089  0.00  0.00    +0.000 C 
ATOM     17  C   UNL     1      -2.048  12.507  21.271  0.00  0.00    +0.000 C 
ATOM     18  O   UNL     1      -1.693  11.878  22.532  0.00  0.00    +0.000 OA
ATOM     19  O   UNL     1      -1.055  12.859  23.405  0.00  0.00    +0.000 OA
ENDROOT
BRANCH   1  25
ATOM     20  C   UNL     1       3.678  16.877  18.976  0.00  0.00    +0.000 C 
ATOM     21  O   UNL     1       4.033  17.149  17.832  0.00  0.00    +0.000 OA
ATOM     22  N   UNL     1       2.943  15.775  19.315  0.00  0.00    +0.000 N 
ATOM     23  C   UNL     1       2.524  14.833  18.281  0.00  0.00    +0.000 C 
ATOM     24  C   UNL     1       2.641  13.370  18.770  0.00  0.00    +0.000 C 
ATOM     25  N   UNL     1       2.050  13.074  20.099  0.00  0.00    +0.000 NA
ATOM     26  C   UNL     1       2.567  14.074  21.066  0.00  0.00    +0.000 C 
ATOM     27  C   UNL     1       2.399  15.546  20.654  0.00  0.00    +0.000 C 
BRANCH  20  28
ATOM     28  O   UNL     1       4.029  17.618  20.061  0.00  0.00    +0.000 OA
BRANCH  28  30
ATOM     29  C   UNL     1       5.844  16.827  21.452  0.00  0.00    +0.000 C 
ATOM     30  C   UNL     1       5.436  17.735  20.305  0.00  0.00    +0.000 C 
ENDBRANCH  28  30
ENDBRANCH  20  28
ENDBRANCH   1  25
TORSDOF 3
ENDMDL
MODEL 6
REMARK VINA RESULT:      -6.0      5.671     10.924
REMARK  Name = 
REMARK  7 active torsions:
REMARK  status: ('A' for Active; 'I' for Inactive)
REMARK    1  A    between atoms: C_1  and  C_2
REMARK    2  A    between atoms: C_2  and  O_3
REMARK    3  A    between atoms: O_3  and  C_4
REMARK    4  A    between atoms: N_9  and  C_10
REMARK    5  A    between atoms: C_14  and  C_15
REMARK    6  A    between atoms: C_19  and  C_20
REMARK    7  A    between atoms: C_24  and  C_25
REMARK                            x       y       z     vdW  Elec       q    Type
REMARK                         _______ _______ _______ _____ _____    ______ ____
ROOT
ATOM      1  C   UNL     1       0.799  12.388  19.073  0.00  0.00    +0.000 C 
ATOM      2  O   UNL     1       0.004  13.348  19.734  0.00  0.00    +0.000 OA
ATOM      3  C   UNL     1      -1.393  13.289  19.523  0.00  0.00    +0.000 C 
ATOM      4  O   UNL     1      -1.969  14.349  20.294  0.00  0.00    +0.000 OA
ATOM      5  C   UNL     1      -2.319  13.886  21.601  0.00  0.00    +0.000 C 
ATOM      6  C   UNL     1      -2.063  15.020  22.590  0.00  0.00    +0.000 C 
ATOM      7  C   UNL     1      -3.806  13.483  21.612  0.00  0.00    +0.000 C 
ATOM      8  C   UNL     1      -4.308  13.002  20.243  0.00  0.00    +0.000 C 
ATOM      9  C   UNL     1      -3.525  11.824  19.611  0.00  0.00    +0.000 C 
ATOM     10  C   UNL     1      -3.865  11.677  18.106  0.00  0.00    +0.000 C 
ATOM     11  C   UNL     1      -5.359  11.418  17.881  0.00  0.00    +0.000 C 
ATOM     12  C   UNL     1      -3.062  10.539  17.465  0.00  0.00    +0.000 C 
ATOM     13  C   UNL     1      -1.562  10.723  17.651  0.00  0.00    +0.000 C 
ATOM     14  C   UNL     1      -1.204  10.786  19.141  0.00  0.00    +0.000 C 
ATOM     15  C   UNL     1       0.318  10.953  19.409  0.00  0.00    +0.000 C 
ATOM     16  C   UNL     1       1.170   9.880  18.722  0.00  0.00    +0.000 C 
ATOM     17  C   UNL     1      -1.992  11.901  19.875  0.00  0.00    +0.000 C 
ATOM     18  O   UNL     1      -1.869  11.596  21.290  0.00  0.00    +0.000 OA
ATOM     19  O   UNL     1      -1.479  12.801  22.017  0.00  0.00    +0.000 OA
ENDROOT
BRANCH   1  25
ATOM     20  C   UNL     1       3.455  16.707  19.074  0.00  0.00    +0.000 C 
ATOM     21  O   UNL     1       3.938  17.189  18.052  0.00  0.00    +0.000 OA
ATOM     22  N   UNL     1       2.838  15.488  19.134  0.00  0.00    +0.000 N 
ATOM     23  C   UNL     1       2.716  14.673  17.930  0.00  0.00    +0.000 C 
ATOM     24  C   UNL     1       2.960  13.176  18.234  0.00  0.00    +0.000 C 
ATOM     25  N   UNL     1       2.221  12.614  19.393  0.00  0.00    +0.000 NA
ATOM     26  C   UNL     1       2.441  13.508  20.556  0.00  0.00    +0.000 C 
ATOM     27  C   UNL     1       2.134  14.996  20.319  0.00  0.00    +0.000 C 
BRANCH  20  28
ATOM     28  O   UNL     1       3.531  17.310  20.290  0.00  0.00    +0.000 OA
BRANCH  28  30
ATOM     29  C   UNL     1       5.391  16.558  21.643  0.00  0.00    +0.000 C 
ATOM     30  C   UNL     1       4.849  17.649  20.735  0.00  0.00    +0.000 C 
ENDBRANCH  28  30
ENDBRANCH  20  28
ENDBRANCH   1  25
TORSDOF 3
ENDMDL
MODEL 7
REMARK VINA RESULT:      -6.0     11.017     13.985
REMARK  Name = 
REMARK  7 active torsions:
REMARK  status: ('A' for Active; 'I' for Inactive)
REMARK    1  A    between atoms: C_1  and  C_2
REMARK    2  A    between atoms: C_2  and  O_3
REMARK    3  A    between atoms: O_3  and  C_4
REMARK    4  A    between atoms: N_9  and  C_10
REMARK    5  A    between atoms: C_14  and  C_15
REMARK    6  A    between atoms: C_19  and  C_20
REMARK    7  A    between atoms: C_24  and  C_25
REMARK                            x       y       z     vdW  Elec       q    Type
REMARK                         _______ _______ _______ _____ _____    ______ ____
ROOT
ATOM      1  C   UNL     1      -6.288  14.056  22.089  0.00  0.00    +0.000 C 
ATOM      2  O   UNL     1      -4.946  13.813  21.728  0.00  0.00    +0.000 OA
ATOM      3  C   UNL     1      -3.955  14.617  22.335  0.00  0.00    +0.000 C 
ATOM      4  O   UNL     1      -2.694  14.179  21.815  0.00  0.00    +0.000 OA
ATOM      5  C   UNL     1      -2.135  13.160  22.647  0.00  0.00    +0.000 C 
ATOM      6  C   UNL     1      -1.411  12.160  21.749  0.00  0.00    +0.000 C 
ATOM      7  C   UNL     1      -1.152  13.805  23.642  0.00  0.00    +0.000 C 
ATOM      8  C   UNL     1      -1.516  15.255  23.992  0.00  0.00    +0.000 C 
ATOM      9  C   UNL     1      -2.941  15.477  24.556  0.00  0.00    +0.000 C 
ATOM     10  C   UNL     1      -3.326  16.978  24.515  0.00  0.00    +0.000 C 
ATOM     11  C   UNL     1      -2.360  17.838  25.337  0.00  0.00    +0.000 C 
ATOM     12  C   UNL     1      -4.752  17.199  25.034  0.00  0.00    +0.000 C 
ATOM     13  C   UNL     1      -5.774  16.372  24.267  0.00  0.00    +0.000 C 
ATOM     14  C   UNL     1      -5.449  14.877  24.371  0.00  0.00    +0.000 C 
ATOM     15  C   UNL     1      -6.465  13.965  23.626  0.00  0.00    +0.000 C 
ATOM     16  C   UNL     1      -7.916  14.206  24.058  0.00  0.00    +0.000 C 
ATOM     17  C   UNL     1      -4.011  14.565  23.886  0.00  0.00    +0.000 C 
ATOM     18  O   UNL     1      -3.706  13.240  24.398  0.00  0.00    +0.000 OA
ATOM     19  O   UNL     1      -3.155  12.416  23.327  0.00  0.00    +0.000 OA
ENDROOT
BRANCH   1  25
ATOM     20  C   UNL     1      -6.070  12.578  17.244  0.00  0.00    +0.000 C 
ATOM     21  O   UNL     1      -6.523  13.253  16.323  0.00  0.00    +0.000 OA
ATOM     22  N   UNL     1      -6.216  12.884  18.569  0.00  0.00    +0.000 N 
ATOM     23  C   UNL     1      -6.944  14.085  18.964  0.00  0.00    +0.000 C 
ATOM     24  C   UNL     1      -7.831  13.826  20.203  0.00  0.00    +0.000 C 
ATOM     25  N   UNL     1      -7.176  13.142  21.347  0.00  0.00    +0.000 NA
ATOM     26  C   UNL     1      -6.496  11.929  20.830  0.00  0.00    +0.000 C 
ATOM     27  C   UNL     1      -5.542  12.157  19.645  0.00  0.00    +0.000 C 
BRANCH  20  28
ATOM     28  O   UNL     1      -5.414  11.402  17.053  0.00  0.00    +0.000 OA
BRANCH  28  30
ATOM     29  C   UNL     1      -3.746  10.505  15.548  0.00  0.00    +0.000 C 
ATOM     30  C   UNL     1      -4.046  11.512  16.644  0.00  0.00    +0.000 C 
ENDBRANCH  28  30
ENDBRANCH  20  28
ENDBRANCH   1  25
TORSDOF 3
ENDMDL
MODEL 8
REMARK VINA RESULT:      -5.9      3.732      9.874
REMARK  Name = 
REMARK  7 active torsions:
REMARK  status: ('A' for Active; 'I' for Inactive)
REMARK    1  A    between atoms: C_1  and  C_2
REMARK    2  A    between atoms: C_2  and  O_3
REMARK    3  A    between atoms: O_3  and  C_4
REMARK    4  A    between atoms: N_9  and  C_10
REMARK    5  A    between atoms: C_14  and  C_15
REMARK    6  A    between atoms: C_19  and  C_20
REMARK    7  A    between atoms: C_24  and  C_25
REMARK                            x       y       z     vdW  Elec       q    Type
REMARK                         _______ _______ _______ _____ _____    ______ ____
ROOT
ATOM      1  C   UNL     1       1.154  15.205  19.437  0.00  0.00    +0.000 C 
ATOM      2  O   UNL     1       1.332  13.943  20.041  0.00  0.00    +0.000 OA
ATOM      3  C   UNL     1       0.620  13.690  21.237  0.00  0.00    +0.000 C 
ATOM      4  O   UNL     1       0.962  12.360  21.645  0.00  0.00    +0.000 OA
ATOM      5  C   UNL     1       0.039  11.416  21.096  0.00  0.00    +0.000 C 
ATOM      6  C   UNL     1       0.811  10.142  20.758  0.00  0.00    +0.000 C 
ATOM      7  C   UNL     1      -1.059  11.122  22.135  0.00  0.00    +0.000 C 
ATOM      8  C   UNL     1      -1.324  12.303  23.080  0.00  0.00    +0.000 C 
ATOM      9  C   UNL     1      -1.692  13.645  22.398  0.00  0.00    +0.000 C 
ATOM     10  C   UNL     1      -1.565  14.826  23.394  0.00  0.00    +0.000 C 
ATOM     11  C   UNL     1      -2.485  14.652  24.607  0.00  0.00    +0.000 C 
ATOM     12  C   UNL     1      -1.889  16.161  22.713  0.00  0.00    +0.000 C 
ATOM     13  C   UNL     1      -1.016  16.406  21.491  0.00  0.00    +0.000 C 
ATOM     14  C   UNL     1      -1.197  15.285  20.461  0.00  0.00    +0.000 C 
ATOM     15  C   UNL     1      -0.348  15.478  19.173  0.00  0.00    +0.000 C 
ATOM     16  C   UNL     1      -0.581  16.835  18.499  0.00  0.00    +0.000 C 
ATOM     17  C   UNL     1      -0.911  13.890  21.074  0.00  0.00    +0.000 C 
ATOM     18  O   UNL     1      -1.490  12.933  20.147  0.00  0.00    +0.000 OA
ATOM     19  O   UNL     1      -0.519  11.880  19.861  0.00  0.00    +0.000 OA
ENDROOT
BRANCH   1  25
ATOM     20  C   UNL     1       6.055  16.414  18.961  0.00  0.00    +0.000 C 
ATOM     21  O   UNL     1       6.452  17.576  18.932  0.00  0.00    +0.000 OA
ATOM     22  N   UNL     1       4.737  16.049  18.967  0.00  0.00    +0.000 N 
ATOM     23  C   UNL     1       3.698  17.073  18.946  0.00  0.00    +0.000 C 
ATOM     24  C   UNL     1       2.522  16.665  18.027  0.00  0.00    +0.000 C 
ATOM     25  N   UNL     1       1.983  15.295  18.221  0.00  0.00    +0.000 NA
ATOM     26  C   UNL     1       3.123  14.345  18.197  0.00  0.00    +0.000 C 
ATOM     27  C   UNL     1       4.280  14.671  19.156  0.00  0.00    +0.000 C 
BRANCH  20  28
ATOM     28  O   UNL     1       6.889  15.340  18.929  0.00  0.00    +0.000 OA
BRANCH  28  30
ATOM     29  C   UNL     1       8.898  14.234  18.157  0.00  0.00    +0.000 C 
ATOM     30  C   UNL     1       7.948  15.403  17.966  0.00  0.00    +0.000 C 
ENDBRANCH  28  30
ENDBRANCH  20  28
ENDBRANCH   1  25
TORSDOF 3
ENDMDL
MODEL 9
REMARK VINA RESULT:      -5.8      7.748     10.281
REMARK  Name = 
REMARK  7 active torsions:
REMARK  status: ('A' for Active; 'I' for Inactive)
REMARK    1  A    between atoms: C_1  and  C_2
REMARK    2  A    between atoms: C_2  and  O_3
REMARK    3  A    between atoms: O_3  and  C_4
REMARK    4  A    between atoms: N_9  and  C_10
REMARK    5  A    between atoms: C_14  and  C_15
REMARK    6  A    between atoms: C_19  and  C_20
REMARK    7  A    between atoms: C_24  and  C_25
REMARK                            x       y       z     vdW  Elec       q    Type
REMARK                         _______ _______ _______ _____ _____    ______ ____
ROOT
ATOM      1  C   UNL     1      -2.227  15.157  21.882  0.00  0.00    +0.000 C 
ATOM      2  O   UNL     1      -1.697  14.061  21.169  0.00  0.00    +0.000 OA
ATOM      3  C   UNL     1      -0.745  14.341  20.163  0.00  0.00    +0.000 C 
ATOM      4  O   UNL     1      -0.362  13.082  19.597  0.00  0.00    +0.000 OA
ATOM      5  C   UNL     1       0.773  12.549  20.284  0.00  0.00    +0.000 C 
ATOM      6  C   UNL     1       0.620  11.031  20.344  0.00  0.00    +0.000 C 
ATOM      7  C   UNL     1       2.052  12.933  19.517  0.00  0.00    +0.000 C 
ATOM      8  C   UNL     1       1.916  14.253  18.743  0.00  0.00    +0.000 C 
ATOM      9  C   UNL     1       1.501  15.488  19.581  0.00  0.00    +0.000 C 
ATOM     10  C   UNL     1       1.033  16.647  18.665  0.00  0.00    +0.000 C 
ATOM     11  C   UNL     1       2.133  17.090  17.695  0.00  0.00    +0.000 C 
ATOM     12  C   UNL     1       0.582  17.858  19.490  0.00  0.00    +0.000 C 
ATOM     13  C   UNL     1      -0.512  17.497  20.485  0.00  0.00    +0.000 C 
ATOM     14  C   UNL     1      -0.029  16.409  21.451  0.00  0.00    +0.000 C 
ATOM     15  C   UNL     1      -1.090  16.002  22.512  0.00  0.00    +0.000 C 
ATOM     16  C   UNL     1      -1.627  17.194  23.311  0.00  0.00    +0.000 C 
ATOM     17  C   UNL     1       0.468  15.149  20.696  0.00  0.00    +0.000 C 
ATOM     18  O   UNL     1       1.242  14.395  21.667  0.00  0.00    +0.000 OA
ATOM     19  O   UNL     1       0.824  12.996  21.645  0.00  0.00    +0.000 OA
ENDROOT
BRANCH   1  25
ATOM     20  C   UNL     1      -6.647  12.787  21.142  0.00  0.00    +0.000 C 
ATOM     21  O   UNL     1      -7.685  13.387  20.873  0.00  0.00    +0.000 OA
ATOM     22  N   UNL     1      -5.466  13.396  21.465  0.00  0.00    +0.000 N 
ATOM     23  C   UNL     1      -5.383  14.852  21.501  0.00  0.00    +0.000 C 
ATOM     24  C   UNL     1      -4.529  15.340  22.694  0.00  0.00    +0.000 C 
ATOM     25  N   UNL     1      -3.211  14.679  22.871  0.00  0.00    +0.000 NA
ATOM     26  C   UNL     1      -3.426  13.211  22.845  0.00  0.00    +0.000 C 
ATOM     27  C   UNL     1      -4.204  12.674  21.632  0.00  0.00    +0.000 C 
BRANCH  20  28
ATOM     28  O   UNL     1      -6.566  11.431  21.207  0.00  0.00    +0.000 OA
BRANCH  28  30
ATOM     29  C   UNL     1      -6.758  10.485  18.988  0.00  0.00    +0.000 C 
ATOM     30  C   UNL     1      -7.438  10.712  20.327  0.00  0.00    +0.000 C 
ENDBRANCH  28  30
ENDBRANCH  20  28
ENDBRANCH   1  25
TORSDOF 3
ENDMDL
