MODEL 1
REMARK VINA RESULT:      -8.9      0.000      0.000
REMARK  Name = 
REMARK  8 active torsions:
REMARK  status: ('A' for Active; 'I' for Inactive)
REMARK    1  A    between atoms: C_1  and  O_2
REMARK    2  A    between atoms: O_2  and  C_3
REMARK    3  A    between atoms: C_8  and  C_9
REMARK    4  A    between atoms: C_10  and  C_11
REMARK    5  A    between atoms: C_11  and  C_12
REMARK    6  A    between atoms: C_19  and  O_20
REMARK    7  A    between atoms: C_25  and  O_26
REMARK    8  A    between atoms: O_26  and  C_27
REMARK                            x       y       z     vdW  Elec       q    Type
REMARK                         _______ _______ _______ _____ _____    ______ ____
ROOT
ATOM      1  C   UNL     1       5.951   4.946  15.971  0.00  0.00    +0.000 A 
ATOM      2  C   UNL     1       4.936   3.993  16.086  0.00  0.00    +0.000 A 
ATOM      3  C   UNL     1       3.959   4.088  17.091  0.00  0.00    +0.000 A 
ATOM      4  C   UNL     1       2.955   3.134  17.213  0.00  0.00    +0.000 A 
ATOM      5  N   UNL     1       1.990   3.156  18.153  0.00  0.00    +0.000 NA
ATOM      6  C   UNL     1       1.999   4.173  19.046  0.00  0.00    +0.000 A 
ATOM      7  C   UNL     1       0.911   4.095  20.080  0.00  0.00    +0.000 C 
ATOM      8  C   UNL     1       2.965   5.198  19.024  0.00  0.00    +0.000 A 
ATOM      9  C   UNL     1       3.964   5.161  18.003  0.00  0.00    +0.000 A 
ATOM     10  C   UNL     1       4.972   6.143  17.831  0.00  0.00    +0.000 A 
ATOM     11  C   UNL     1       5.964   6.040  16.841  0.00  0.00    +0.000 A 
ENDROOT
BRANCH   1  13
ATOM     12  C   UNL     1       6.294   4.007  13.822  0.00  0.00    +0.000 C 
ATOM     13  O   UNL     1       6.829   4.701  14.945  0.00  0.00    +0.000 OA
ENDBRANCH   1  13
BRANCH  11  14
ATOM     14  O   UNL     1       6.891   7.027  16.636  0.00  0.00    +0.000 OA
ATOM     15  C   UNL     1       7.702   7.362  17.757  0.00  0.00    +0.000 C 
ENDBRANCH  11  14
BRANCH   8  16
ATOM     16  C   UNL     1       2.930   6.325  20.048  0.00  0.00    +0.000 C 
BRANCH  16  17
ATOM     17  C   UNL     1       2.148   7.558  19.638  0.00  0.00    +0.000 A 
ATOM     18  C   UNL     1       2.108   7.986  18.317  0.00  0.00    +0.000 A 
ATOM     19  C   UNL     1       1.384   9.128  18.004  0.00  0.00    +0.000 A 
ATOM     20  C   UNL     1       0.685   9.812  19.002  0.00  0.00    +0.000 A 
ATOM     21  C   UNL     1      -0.036  10.977  18.689  0.00  0.00    +0.000 A 
ATOM     22  C   UNL     1      -0.760  11.645  19.670  0.00  0.00    +0.000 A 
ATOM     23  C   UNL     1      -0.770  11.150  20.969  0.00  0.00    +0.000 A 
ATOM     24  C   UNL     1      -0.030  10.001  21.278  0.00  0.00    +0.000 A 
ATOM     25  C   UNL     1       0.724   9.303  20.315  0.00  0.00    +0.000 A 
ATOM     26  N   UNL     1       1.453   8.195  20.615  0.00  0.00    +0.000 NA
BRANCH  24  27
ATOM     27  O   UNL     1      -0.047   9.541  22.577  0.00  0.00    +0.000 OA
ATOM     28  H   UNL     1      -0.081   8.572  22.570  0.00  0.00    +0.000 HD
ENDBRANCH  24  27
ENDBRANCH  16  17
ENDBRANCH   8  16
TORSDOF 5
ENDMDL
MODEL 2
REMARK VINA RESULT:      -8.3      1.332      1.822
REMARK  Name = 
REMARK  8 active torsions:
REMARK  status: ('A' for Active; 'I' for Inactive)
REMARK    1  A    between atoms: C_1  and  O_2
REMARK    2  A    between atoms: O_2  and  C_3
REMARK    3  A    between atoms: C_8  and  C_9
REMARK    4  A    between atoms: C_10  and  C_11
REMARK    5  A    between atoms: C_11  and  C_12
REMARK    6  A    between atoms: C_19  and  O_20
REMARK    7  A    between atoms: C_25  and  O_26
REMARK    8  A    between atoms: O_26  and  C_27
REMARK                            x       y       z     vdW  Elec       q    Type
REMARK                         _______ _______ _______ _____ _____    ______ ____
ROOT
ATOM      1  C   UNL     1       5.617   5.475  15.940  0.00  0.00    +0.000 A 
ATOM      2  C   UNL     1       4.584   4.536  15.926  0.00  0.00    +0.000 A 
ATOM      3  C   UNL     1       3.672   4.441  16.991  0.00  0.00    +0.000 A 
ATOM      4  C   UNL     1       2.650   3.499  16.984  0.00  0.00    +0.000 A 
ATOM      5  N   UNL     1       1.744   3.345  17.970  0.00  0.00    +0.000 NA
ATOM      6  C   UNL     1       1.839   4.160  19.048  0.00  0.00    +0.000 A 
ATOM      7  C   UNL     1       0.813   3.891  20.113  0.00  0.00    +0.000 C 
ATOM      8  C   UNL     1       2.831   5.151  19.170  0.00  0.00    +0.000 A 
ATOM      9  C   UNL     1       3.765   5.305  18.099  0.00  0.00    +0.000 A 
ATOM     10  C   UNL     1       4.790   6.285  18.064  0.00  0.00    +0.000 A 
ATOM     11  C   UNL     1       5.716   6.369  17.010  0.00  0.00    +0.000 A 
ENDROOT
BRANCH   1  13
ATOM     12  C   UNL     1       6.392   4.213  14.090  0.00  0.00    +0.000 C 
ATOM     13  O   UNL     1       6.424   5.429  14.831  0.00  0.00    +0.000 OA
ENDBRANCH   1  13
BRANCH  11  14
ATOM     14  O   UNL     1       6.658   7.360  16.949  0.00  0.00    +0.000 OA
ATOM     15  C   UNL     1       7.743   7.247  17.863  0.00  0.00    +0.000 C 
ENDBRANCH  11  14
BRANCH   8  16
ATOM     16  C   UNL     1       2.892   6.046  20.400  0.00  0.00    +0.000 C 
BRANCH  16  17
ATOM     17  C   UNL     1       1.919   7.210  20.412  0.00  0.00    +0.000 A 
ATOM     18  C   UNL     1       1.016   7.390  21.452  0.00  0.00    +0.000 A 
ATOM     19  C   UNL     1       0.142   8.467  21.402  0.00  0.00    +0.000 A 
ATOM     20  C   UNL     1       0.198   9.367  20.335  0.00  0.00    +0.000 A 
ATOM     21  C   UNL     1      -0.696  10.450  20.275  0.00  0.00    +0.000 A 
ATOM     22  C   UNL     1      -0.627  11.368  19.233  0.00  0.00    +0.000 A 
ATOM     23  C   UNL     1       0.340  11.210  18.247  0.00  0.00    +0.000 A 
ATOM     24  C   UNL     1       1.213  10.116  18.301  0.00  0.00    +0.000 A 
ATOM     25  C   UNL     1       1.167   9.159  19.333  0.00  0.00    +0.000 A 
ATOM     26  N   UNL     1       2.005   8.090  19.382  0.00  0.00    +0.000 NA
BRANCH  24  27
ATOM     27  O   UNL     1       2.152   9.977  17.302  0.00  0.00    +0.000 OA
ATOM     28  H   UNL     1       2.883   9.428  17.626  0.00  0.00    +0.000 HD
ENDBRANCH  24  27
ENDBRANCH  16  17
ENDBRANCH   8  16
TORSDOF 5
ENDMDL
MODEL 3
REMARK VINA RESULT:      -7.4      3.197      8.592
REMARK  Name = 
REMARK  8 active torsions:
REMARK  status: ('A' for Active; 'I' for Inactive)
REMARK    1  A    between atoms: C_1  and  O_2
REMARK    2  A    between atoms: O_2  and  C_3
REMARK    3  A    between atoms: C_8  and  C_9
REMARK    4  A    between atoms: C_10  and  C_11
REMARK    5  A    between atoms: C_11  and  C_12
REMARK    6  A    between atoms: C_19  and  O_20
REMARK    7  A    between atoms: C_25  and  O_26
REMARK    8  A    between atoms: O_26  and  C_27
REMARK                            x       y       z     vdW  Elec       q    Type
REMARK                         _______ _______ _______ _____ _____    ______ ____
ROOT
ATOM      1  C   UNL     1      -3.781  10.934  17.583  0.00  0.00    +0.000 A 
ATOM      2  C   UNL     1      -3.472  11.822  18.616  0.00  0.00    +0.000 A 
ATOM      3  C   UNL     1      -2.158  11.952  19.096  0.00  0.00    +0.000 A 
ATOM      4  C   UNL     1      -1.852  12.827  20.131  0.00  0.00    +0.000 A 
ATOM      5  N   UNL     1      -0.620  13.000  20.648  0.00  0.00    +0.000 NA
ATOM      6  C   UNL     1       0.393  12.267  20.127  0.00  0.00    +0.000 A 
ATOM      7  C   UNL     1       1.723  12.497  20.789  0.00  0.00    +0.000 C 
ATOM      8  C   UNL     1       0.206  11.347  19.077  0.00  0.00    +0.000 A 
ATOM      9  C   UNL     1      -1.108  11.200  18.535  0.00  0.00    +0.000 A 
ATOM     10  C   UNL     1      -1.437  10.346  17.453  0.00  0.00    +0.000 A 
ATOM     11  C   UNL     1      -2.754  10.198  16.984  0.00  0.00    +0.000 A 
ENDROOT
BRANCH   1  13
ATOM     12  C   UNL     1      -5.736  12.195  17.133  0.00  0.00    +0.000 C 
ATOM     13  O   UNL     1      -5.109  10.920  17.240  0.00  0.00    +0.000 OA
ENDBRANCH   1  13
BRANCH  11  14
ATOM     14  O   UNL     1      -3.054   9.426  15.893  0.00  0.00    +0.000 OA
ATOM     15  C   UNL     1      -3.044  10.093  14.636  0.00  0.00    +0.000 C 
ENDBRANCH  11  14
BRANCH   8  16
ATOM     16  C   UNL     1       1.379  10.549  18.522  0.00  0.00    +0.000 C 
BRANCH  16  17
ATOM     17  C   UNL     1       1.586   9.178  19.136  0.00  0.00    +0.000 A 
ATOM     18  C   UNL     1       0.975   8.818  20.330  0.00  0.00    +0.000 A 
ATOM     19  C   UNL     1       1.211   7.553  20.849  0.00  0.00    +0.000 A 
ATOM     20  C   UNL     1       2.026   6.652  20.160  0.00  0.00    +0.000 A 
ATOM     21  C   UNL     1       2.278   5.375  20.692  0.00  0.00    +0.000 A 
ATOM     22  C   UNL     1       3.063   4.462  19.997  0.00  0.00    +0.000 A 
ATOM     23  C   UNL     1       3.597   4.819  18.764  0.00  0.00    +0.000 A 
ATOM     24  C   UNL     1       3.360   6.101  18.251  0.00  0.00    +0.000 A 
ATOM     25  C   UNL     1       2.581   7.057  18.929  0.00  0.00    +0.000 A 
ATOM     26  N   UNL     1       2.359   8.306  18.440  0.00  0.00    +0.000 NA
BRANCH  24  27
ATOM     27  O   UNL     1       3.914   6.431  17.033  0.00  0.00    +0.000 OA
ATOM     28  H   UNL     1       4.831   6.117  17.005  0.00  0.00    +0.000 HD
ENDBRANCH  24  27
ENDBRANCH  16  17
ENDBRANCH   8  16
TORSDOF 5
ENDMDL
MODEL 4
REMARK VINA RESULT:      -7.2      3.815      6.835
REMARK  Name = 
REMARK  8 active torsions:
REMARK  status: ('A' for Active; 'I' for Inactive)
REMARK    1  A    between atoms: C_1  and  O_2
REMARK    2  A    between atoms: O_2  and  C_3
REMARK    3  A    between atoms: C_8  and  C_9
REMARK    4  A    between atoms: C_10  and  C_11
REMARK    5  A    between atoms: C_11  and  C_12
REMARK    6  A    between atoms: C_19  and  O_20
REMARK    7  A    between atoms: C_25  and  O_26
REMARK    8  A    between atoms: O_26  and  C_27
REMARK                            x       y       z     vdW  Elec       q    Type
REMARK                         _______ _______ _______ _____ _____    ______ ____
ROOT
ATOM      1  C   UNL     1       1.803   7.755  20.104  0.00  0.00    +0.000 A 
ATOM      2  C   UNL     1       1.375   8.018  21.407  0.00  0.00    +0.000 A 
ATOM      3  C   UNL     1       0.658   9.186  21.716  0.00  0.00    +0.000 A 
ATOM      4  C   UNL     1       0.241   9.454  23.015  0.00  0.00    +0.000 A 
ATOM      5  N   UNL     1      -0.443  10.554  23.388  0.00  0.00    +0.000 NA
ATOM      6  C   UNL     1      -0.741  11.466  22.433  0.00  0.00    +0.000 A 
ATOM      7  C   UNL     1      -1.471  12.677  22.945  0.00  0.00    +0.000 C 
ATOM      8  C   UNL     1      -0.372  11.306  21.083  0.00  0.00    +0.000 A 
ATOM      9  C   UNL     1       0.334  10.120  20.713  0.00  0.00    +0.000 A 
ATOM     10  C   UNL     1       0.733   9.805  19.390  0.00  0.00    +0.000 A 
ATOM     11  C   UNL     1       1.468   8.648  19.081  0.00  0.00    +0.000 A 
ENDROOT
BRANCH   1  13
ATOM     12  C   UNL     1       1.873   5.425  20.526  0.00  0.00    +0.000 C 
ATOM     13  O   UNL     1       2.498   6.580  19.974  0.00  0.00    +0.000 OA
ENDBRANCH   1  13
BRANCH  11  14
ATOM     14  O   UNL     1       1.789   8.314  17.792  0.00  0.00    +0.000 OA
ATOM     15  C   UNL     1       3.178   8.176  17.511  0.00  0.00    +0.000 C 
ENDBRANCH  11  14
BRANCH   8  16
ATOM     16  C   UNL     1      -0.737  12.360  20.045  0.00  0.00    +0.000 C 
BRANCH  16  17
ATOM     17  C   UNL     1      -2.030  12.116  19.291  0.00  0.00    +0.000 A 
ATOM     18  C   UNL     1      -2.032  11.630  17.991  0.00  0.00    +0.000 A 
ATOM     19  C   UNL     1      -3.247  11.437  17.348  0.00  0.00    +0.000 A 
ATOM     20  C   UNL     1      -4.444  11.702  18.017  0.00  0.00    +0.000 A 
ATOM     21  C   UNL     1      -5.675  11.522  17.363  0.00  0.00    +0.000 A 
ATOM     22  C   UNL     1      -6.872  11.753  18.032  0.00  0.00    +0.000 A 
ATOM     23  C   UNL     1      -6.845  12.162  19.360  0.00  0.00    +0.000 A 
ATOM     24  C   UNL     1      -5.614  12.361  19.999  0.00  0.00    +0.000 A 
ATOM     25  C   UNL     1      -4.381  12.149  19.352  0.00  0.00    +0.000 A 
ATOM     26  N   UNL     1      -3.185  12.353  19.965  0.00  0.00    +0.000 NA
BRANCH  24  27
ATOM     27  O   UNL     1      -5.617  12.780  21.311  0.00  0.00    +0.000 OA
ATOM     28  H   UNL     1      -4.708  12.776  21.649  0.00  0.00    +0.000 HD
ENDBRANCH  24  27
ENDBRANCH  16  17
ENDBRANCH   8  16
TORSDOF 5
ENDMDL
MODEL 5
REMARK VINA RESULT:      -6.7      3.713      9.520
REMARK  Name = 
REMARK  8 active torsions:
REMARK  status: ('A' for Active; 'I' for Inactive)
REMARK    1  A    between atoms: C_1  and  O_2
REMARK    2  A    between atoms: O_2  and  C_3
REMARK    3  A    between atoms: C_8  and  C_9
REMARK    4  A    between atoms: C_10  and  C_11
REMARK    5  A    between atoms: C_11  and  C_12
REMARK    6  A    between atoms: C_19  and  O_20
REMARK    7  A    between atoms: C_25  and  O_26
REMARK    8  A    between atoms: O_26  and  C_27
REMARK                            x       y       z     vdW  Elec       q    Type
REMARK                         _______ _______ _______ _____ _____    ______ ____
ROOT
ATOM      1  C   UNL     1      -4.879  11.760  18.678  0.00  0.00    +0.000 A 
ATOM      2  C   UNL     1      -4.836  12.640  19.761  0.00  0.00    +0.000 A 
ATOM      3  C   UNL     1      -3.614  13.053  20.317  0.00  0.00    +0.000 A 
ATOM      4  C   UNL     1      -3.572  13.921  21.402  0.00  0.00    +0.000 A 
ATOM      5  N   UNL     1      -2.440  14.354  21.992  0.00  0.00    +0.000 NA
ATOM      6  C   UNL     1      -1.260  13.910  21.498  0.00  0.00    +0.000 A 
ATOM      7  C   UNL     1      -0.054  14.414  22.240  0.00  0.00    +0.000 C 
ATOM      8  C   UNL     1      -1.175  13.028  20.403  0.00  0.00    +0.000 A 
ATOM      9  C   UNL     1      -2.391  12.602  19.784  0.00  0.00    +0.000 A 
ATOM     10  C   UNL     1      -2.459  11.752  18.652  0.00  0.00    +0.000 A 
ATOM     11  C   UNL     1      -3.680  11.320  18.106  0.00  0.00    +0.000 A 
ENDROOT
BRANCH   1  13
ATOM     12  C   UNL     1      -6.744  12.365  17.348  0.00  0.00    +0.000 C 
ATOM     13  O   UNL     1      -6.149  11.450  18.263  0.00  0.00    +0.000 OA
ENDBRANCH   1  13
BRANCH  11  14
ATOM     14  O   UNL     1      -3.739  10.557  16.971  0.00  0.00    +0.000 OA
ATOM     15  C   UNL     1      -3.372  11.211  15.761  0.00  0.00    +0.000 C 
ENDBRANCH  11  14
BRANCH   8  16
ATOM     16  C   UNL     1       0.177  12.561  19.880  0.00  0.00    +0.000 C 
BRANCH  16  17
ATOM     17  C   UNL     1       0.534  11.118  20.185  0.00  0.00    +0.000 A 
ATOM     18  C   UNL     1       0.223  10.538  21.408  0.00  0.00    +0.000 A 
ATOM     19  C   UNL     1       0.584   9.217  21.634  0.00  0.00    +0.000 A 
ATOM     20  C   UNL     1       1.222   8.482  20.631  0.00  0.00    +0.000 A 
ATOM     21  C   UNL     1       1.601   7.149  20.862  0.00  0.00    +0.000 A 
ATOM     22  C   UNL     1       2.208   6.401  19.859  0.00  0.00    +0.000 A 
ATOM     23  C   UNL     1       2.434   6.982  18.616  0.00  0.00    +0.000 A 
ATOM     24  C   UNL     1       2.073   8.319  18.400  0.00  0.00    +0.000 A 
ATOM     25  C   UNL     1       1.468   9.111  19.393  0.00  0.00    +0.000 A 
ATOM     26  N   UNL     1       1.128  10.412  19.191  0.00  0.00    +0.000 NA
BRANCH  24  27
ATOM     27  O   UNL     1       2.322   8.872  17.162  0.00  0.00    +0.000 OA
ATOM     28  H   UNL     1       2.232   8.185  16.483  0.00  0.00    +0.000 HD
ENDBRANCH  24  27
ENDBRANCH  16  17
ENDBRANCH   8  16
TORSDOF 5
ENDMDL
MODEL 6
REMARK VINA RESULT:      -6.7      4.309     10.267
REMARK  Name = 
REMARK  8 active torsions:
REMARK  status: ('A' for Active; 'I' for Inactive)
REMARK    1  A    between atoms: C_1  and  O_2
REMARK    2  A    between atoms: O_2  and  C_3
REMARK    3  A    between atoms: C_8  and  C_9
REMARK    4  A    between atoms: C_10  and  C_11
REMARK    5  A    between atoms: C_11  and  C_12
REMARK    6  A    between atoms: C_19  and  O_20
REMARK    7  A    between atoms: C_25  and  O_26
REMARK    8  A    between atoms: O_26  and  C_27
REMARK                            x       y       z     vdW  Elec       q    Type
REMARK                         _______ _______ _______ _____ _____    ______ ____
ROOT
ATOM      1  C   UNL     1      -6.018  11.761  19.951  0.00  0.00    +0.000 A 
ATOM      2  C   UNL     1      -5.927  12.503  21.131  0.00  0.00    +0.000 A 
ATOM      3  C   UNL     1      -4.694  13.003  21.583  0.00  0.00    +0.000 A 
ATOM      4  C   UNL     1      -4.601  13.732  22.762  0.00  0.00    +0.000 A 
ATOM      5  N   UNL     1      -3.455  14.237  23.261  0.00  0.00    +0.000 NA
ATOM      6  C   UNL     1      -2.313  14.015  22.569  0.00  0.00    +0.000 A 
ATOM      7  C   UNL     1      -1.080  14.580  23.219  0.00  0.00    +0.000 C 
ATOM      8  C   UNL     1      -2.281  13.290  21.362  0.00  0.00    +0.000 A 
ATOM      9  C   UNL     1      -3.514  12.785  20.846  0.00  0.00    +0.000 A 
ATOM     10  C   UNL     1      -3.642  12.075  19.626  0.00  0.00    +0.000 A 
ATOM     11  C   UNL     1      -4.869  11.555  19.181  0.00  0.00    +0.000 A 
ENDROOT
BRANCH   1  13
ATOM     12  C   UNL     1      -7.653  10.059  20.171  0.00  0.00    +0.000 C 
ATOM     13  O   UNL     1      -7.290  11.338  19.658  0.00  0.00    +0.000 OA
ENDBRANCH   1  13
BRANCH  11  14
ATOM     14  O   UNL     1      -4.998  10.933  17.969  0.00  0.00    +0.000 OA
ATOM     15  C   UNL     1      -5.090  11.790  16.835  0.00  0.00    +0.000 C 
ENDBRANCH  11  14
BRANCH   8  16
ATOM     16  C   UNL     1      -0.970  13.072  20.618  0.00  0.00    +0.000 C 
BRANCH  16  17
ATOM     17  C   UNL     1      -0.339  11.703  20.792  0.00  0.00    +0.000 A 
ATOM     18  C   UNL     1      -0.458  10.995  21.980  0.00  0.00    +0.000 A 
ATOM     19  C   UNL     1       0.149   9.751  22.084  0.00  0.00    +0.000 A 
ATOM     20  C   UNL     1       0.841   9.215  20.995  0.00  0.00    +0.000 A 
ATOM     21  C   UNL     1       1.470   7.963  21.103  0.00  0.00    +0.000 A 
ATOM     22  C   UNL     1       2.133   7.408  20.014  0.00  0.00    +0.000 A 
ATOM     23  C   UNL     1       2.169   8.102  18.810  0.00  0.00    +0.000 A 
ATOM     24  C   UNL     1       1.559   9.360  18.716  0.00  0.00    +0.000 A 
ATOM     25  C   UNL     1       0.888   9.959  19.799  0.00  0.00    +0.000 A 
ATOM     26  N   UNL     1       0.306  11.185  19.715  0.00  0.00    +0.000 NA
BRANCH  24  27
ATOM     27  O   UNL     1       1.622  10.030  17.514  0.00  0.00    +0.000 OA
ATOM     28  H   UNL     1       0.844   9.803  16.982  0.00  0.00    +0.000 HD
ENDBRANCH  24  27
ENDBRANCH  16  17
ENDBRANCH   8  16
TORSDOF 5
ENDMDL
MODEL 7
REMARK VINA RESULT:      -6.6      4.122      8.864
REMARK  Name = 
REMARK  8 active torsions:
REMARK  status: ('A' for Active; 'I' for Inactive)
REMARK    1  A    between atoms: C_1  and  O_2
REMARK    2  A    between atoms: O_2  and  C_3
REMARK    3  A    between atoms: C_8  and  C_9
REMARK    4  A    between atoms: C_10  and  C_11
REMARK    5  A    between atoms: C_11  and  C_12
REMARK    6  A    between atoms: C_19  and  O_20
REMARK    7  A    between atoms: C_25  and  O_26
REMARK    8  A    between atoms: O_26  and  C_27
REMARK                            x       y       z     vdW  Elec       q    Type
REMARK                         _______ _______ _______ _____ _____    ______ ____
ROOT
ATOM      1  C   UNL     1      -4.591  11.455  17.981  0.00  0.00    +0.000 A 
ATOM      2  C   UNL     1      -4.458  12.013  19.254  0.00  0.00    +0.000 A 
ATOM      3  C   UNL     1      -3.198  12.365  19.767  0.00  0.00    +0.000 A 
ATOM      4  C   UNL     1      -3.064  12.910  21.038  0.00  0.00    +0.000 A 
ATOM      5  N   UNL     1      -1.891  13.266  21.599  0.00  0.00    +0.000 NA
ATOM      6  C   UNL     1      -0.762  13.074  20.876  0.00  0.00    +0.000 A 
ATOM      7  C   UNL     1       0.501  13.463  21.593  0.00  0.00    +0.000 C 
ATOM      8  C   UNL     1      -0.771  12.530  19.577  0.00  0.00    +0.000 A 
ATOM      9  C   UNL     1      -2.031  12.182  19.001  0.00  0.00    +0.000 A 
ATOM     10  C   UNL     1      -2.198  11.664  17.692  0.00  0.00    +0.000 A 
ATOM     11  C   UNL     1      -3.454  11.291  17.184  0.00  0.00    +0.000 A 
ENDROOT
BRANCH   1  13
ATOM     12  C   UNL     1      -6.792  10.984  18.722  0.00  0.00    +0.000 C 
ATOM     13  O   UNL     1      -5.885  11.159  17.637  0.00  0.00    +0.000 OA
ENDBRANCH   1  13
BRANCH  11  14
ATOM     14  O   UNL     1      -3.617  10.858  15.895  0.00  0.00    +0.000 OA
ATOM     15  C   UNL     1      -2.682   9.885  15.441  0.00  0.00    +0.000 C 
ENDBRANCH  11  14
BRANCH   8  16
ATOM     16  C   UNL     1       0.527  12.339  18.803  0.00  0.00    +0.000 C 
BRANCH  16  17
ATOM     17  C   UNL     1       1.074  10.924  18.781  0.00  0.00    +0.000 A 
ATOM     18  C   UNL     1       1.819  10.451  17.709  0.00  0.00    +0.000 A 
ATOM     19  C   UNL     1       2.284   9.144  17.740  0.00  0.00    +0.000 A 
ATOM     20  C   UNL     1       2.027   8.334  18.849  0.00  0.00    +0.000 A 
ATOM     21  C   UNL     1       2.484   7.005  18.876  0.00  0.00    +0.000 A 
ATOM     22  C   UNL     1       2.259   6.202  19.989  0.00  0.00    +0.000 A 
ATOM     23  C   UNL     1       1.580   6.726  21.083  0.00  0.00    +0.000 A 
ATOM     24  C   UNL     1       1.108   8.044  21.040  0.00  0.00    +0.000 A 
ATOM     25  C   UNL     1       1.305   8.884  19.928  0.00  0.00    +0.000 A 
ATOM     26  N   UNL     1       0.838  10.160  19.877  0.00  0.00    +0.000 NA
BRANCH  24  27
ATOM     27  O   UNL     1       0.426   8.532  22.134  0.00  0.00    +0.000 OA
ATOM     28  H   UNL     1       0.011   9.377  21.899  0.00  0.00    +0.000 HD
ENDBRANCH  24  27
ENDBRANCH  16  17
ENDBRANCH   8  16
TORSDOF 5
ENDMDL
MODEL 8
REMARK VINA RESULT:      -6.6      3.314      8.258
REMARK  Name = 
REMARK  8 active torsions:
REMARK  status: ('A' for Active; 'I' for Inactive)
REMARK    1  A    between atoms: C_1  and  O_2
REMARK    2  A    between atoms: O_2  and  C_3
REMARK    3  A    between atoms: C_8  and  C_9
REMARK    4  A    between atoms: C_10  and  C_11
REMARK    5  A    between atoms: C_11  and  C_12
REMARK    6  A    between atoms: C_19  and  O_20
REMARK    7  A    between atoms: C_25  and  O_26
REMARK    8  A    between atoms: O_26  and  C_27
REMARK                            x       y       z     vdW  Elec       q    Type
REMARK                         _______ _______ _______ _____ _____    ______ ____
ROOT
ATOM      1  C   UNL     1       1.708  15.001  20.149  0.00  0.00    +0.000 A 
ATOM      2  C   UNL     1       0.688  14.811  19.214  0.00  0.00    +0.000 A 
ATOM      3  C   UNL     1       0.123  13.542  19.001  0.00  0.00    +0.000 A 
ATOM      4  C   UNL     1      -0.884  13.349  18.062  0.00  0.00    +0.000 A 
ATOM      5  N   UNL     1      -1.468  12.164  17.799  0.00  0.00    +0.000 NA
ATOM      6  C   UNL     1      -1.041  11.081  18.492  0.00  0.00    +0.000 A 
ATOM      7  C   UNL     1      -1.720   9.797  18.106  0.00  0.00    +0.000 C 
ATOM      8  C   UNL     1      -0.028  11.151  19.467  0.00  0.00    +0.000 A 
ATOM      9  C   UNL     1       0.559  12.425  19.740  0.00  0.00    +0.000 A 
ATOM     10  C   UNL     1       1.556  12.655  20.721  0.00  0.00    +0.000 A 
ATOM     11  C   UNL     1       2.138  13.918  20.922  0.00  0.00    +0.000 A 
ENDROOT
BRANCH   1  13
ATOM     12  C   UNL     1       1.206  17.255  20.682  0.00  0.00    +0.000 C 
ATOM     13  O   UNL     1       2.155  16.296  20.227  0.00  0.00    +0.000 OA
ENDBRANCH   1  13
BRANCH  11  14
ATOM     14  O   UNL     1       3.050  14.148  21.917  0.00  0.00    +0.000 OA
ATOM     15  C   UNL     1       4.420  14.088  21.535  0.00  0.00    +0.000 C 
ENDBRANCH  11  14
BRANCH   8  16
ATOM     16  C   UNL     1       0.414   9.905  20.224  0.00  0.00    +0.000 C 
BRANCH  16  17
ATOM     17  C   UNL     1       1.349   8.978  19.470  0.00  0.00    +0.000 A 
ATOM     18  C   UNL     1       1.900   9.341  18.248  0.00  0.00    +0.000 A 
ATOM     19  C   UNL     1       2.740   8.448  17.599  0.00  0.00    +0.000 A 
ATOM     20  C   UNL     1       3.045   7.218  18.187  0.00  0.00    +0.000 A 
ATOM     21  C   UNL     1       3.884   6.305  17.525  0.00  0.00    +0.000 A 
ATOM     22  C   UNL     1       4.217   5.092  18.117  0.00  0.00    +0.000 A 
ATOM     23  C   UNL     1       3.717   4.787  19.378  0.00  0.00    +0.000 A 
ATOM     24  C   UNL     1       2.863   5.692  20.023  0.00  0.00    +0.000 A 
ATOM     25  C   UNL     1       2.493   6.924  19.451  0.00  0.00    +0.000 A 
ATOM     26  N   UNL     1       1.656   7.799  20.068  0.00  0.00    +0.000 NA
BRANCH  24  27
ATOM     27  O   UNL     1       2.371   5.357  21.265  0.00  0.00    +0.000 OA
ATOM     28  H   UNL     1       2.598   4.434  21.458  0.00  0.00    +0.000 HD
ENDBRANCH  24  27
ENDBRANCH  16  17
ENDBRANCH   8  16
TORSDOF 5
ENDMDL
MODEL 9
REMARK VINA RESULT:      -6.6      3.667     10.182
REMARK  Name = 
REMARK  8 active torsions:
REMARK  status: ('A' for Active; 'I' for Inactive)
REMARK    1  A    between atoms: C_1  and  O_2
REMARK    2  A    between atoms: O_2  and  C_3
REMARK    3  A    between atoms: C_8  and  C_9
REMARK    4  A    between atoms: C_10  and  C_11
REMARK    5  A    between atoms: C_11  and  C_12
REMARK    6  A    between atoms: C_19  and  O_20
REMARK    7  A    between atoms: C_25  and  O_26
REMARK    8  A    between atoms: O_26  and  C_27
REMARK                            x       y       z     vdW  Elec       q    Type
REMARK                         _______ _______ _______ _____ _____    ______ ____
ROOT
ATOM      1  C   UNL     1      -4.384  13.742  22.856  0.00  0.00    +0.000 A 
ATOM      2  C   UNL     1      -4.989  13.256  21.695  0.00  0.00    +0.000 A 
ATOM      3  C   UNL     1      -4.223  12.739  20.636  0.00  0.00    +0.000 A 
ATOM      4  C   UNL     1      -4.823  12.265  19.476  0.00  0.00    +0.000 A 
ATOM      5  N   UNL     1      -4.155  11.762  18.419  0.00  0.00    +0.000 NA
ATOM      6  C   UNL     1      -2.804  11.720  18.488  0.00  0.00    +0.000 A 
ATOM      7  C   UNL     1      -2.141  11.180  17.251  0.00  0.00    +0.000 C 
ATOM      8  C   UNL     1      -2.083  12.171  19.610  0.00  0.00    +0.000 A 
ATOM      9  C   UNL     1      -2.819  12.680  20.724  0.00  0.00    +0.000 A 
ATOM     10  C   UNL     1      -2.233  13.129  21.934  0.00  0.00    +0.000 A 
ATOM     11  C   UNL     1      -2.994  13.666  22.986  0.00  0.00    +0.000 A 
ENDROOT
BRANCH   1  13
ATOM     12  C   UNL     1      -6.500  13.508  23.896  0.00  0.00    +0.000 C 
ATOM     13  O   UNL     1      -5.272  14.220  23.786  0.00  0.00    +0.000 OA
ENDBRANCH   1  13
BRANCH  11  14
ATOM     14  O   UNL     1      -2.429  14.033  24.178  0.00  0.00    +0.000 OA
ATOM     15  C   UNL     1      -1.735  15.276  24.183  0.00  0.00    +0.000 C 
ENDBRANCH  11  14
BRANCH   8  16
ATOM     16  C   UNL     1      -0.562  12.097  19.641  0.00  0.00    +0.000 C 
BRANCH  16  17
ATOM     17  C   UNL     1       0.021  10.738  19.978  0.00  0.00    +0.000 A 
ATOM     18  C   UNL     1      -0.284  10.093  21.169  0.00  0.00    +0.000 A 
ATOM     19  C   UNL     1       0.288   8.855  21.427  0.00  0.00    +0.000 A 
ATOM     20  C   UNL     1       1.132   8.261  20.485  0.00  0.00    +0.000 A 
ATOM     21  C   UNL     1       1.724   7.015  20.751  0.00  0.00    +0.000 A 
ATOM     22  C   UNL     1       2.540   6.403  19.805  0.00  0.00    +0.000 A 
ATOM     23  C   UNL     1       2.765   7.033  18.587  0.00  0.00    +0.000 A 
ATOM     24  C   UNL     1       2.189   8.286  18.338  0.00  0.00    +0.000 A 
ATOM     25  C   UNL     1       1.367   8.942  19.273  0.00  0.00    +0.000 A 
ATOM     26  N   UNL     1       0.817  10.164  19.040  0.00  0.00    +0.000 NA
BRANCH  24  27
ATOM     27  O   UNL     1       2.441   8.893  17.127  0.00  0.00    +0.000 OA
ATOM     28  H   UNL     1       2.058   9.785  17.132  0.00  0.00    +0.000 HD
ENDBRANCH  24  27
ENDBRANCH  16  17
ENDBRANCH   8  16
TORSDOF 5
ENDMDL
