MODEL 1
REMARK VINA RESULT:      -7.3      0.000      0.000
REMARK  Name = 
REMARK  20 active torsions:
REMARK  status: ('A' for Active; 'I' for Inactive)
REMARK    1  A    between atoms: C_1  and  C_2
REMARK    2  A    between atoms: C_2  and  C_3
REMARK    3  A    between atoms: C_3  and  C_4
REMARK    4  A    between atoms: C_4  and  C_5
REMARK    5  A    between atoms: C_5  and  C_6
REMARK    6  A    between atoms: C_6  and  C_7
REMARK    7  A    between atoms: C_7  and  C_8
REMARK    8  A    between atoms: C_8  and  C_9
REMARK    9  A    between atoms: C_9  and  C_10
REMARK   10  A    between atoms: C_10  and  C_11
REMARK   11  A    between atoms: C_11  and  C_12
REMARK   12  A    between atoms: C_12  and  C_13
REMARK   13  A    between atoms: C_13  and  C_14
REMARK   14  A    between atoms: N_16  and  C_17
REMARK   15  A    between atoms: C_17  and  C_18
REMARK   16  A    between atoms: C_18  and  C_19
REMARK   17  A    between atoms: C_18  and  C_20
REMARK   18  A    between atoms: C_18  and  C_21
REMARK   19  A    between atoms: C_21  and  C_22
REMARK   20  A    between atoms: C_23  and  O_24
REMARK                            x       y       z     vdW  Elec       q    Type
REMARK                         _______ _______ _______ _____ _____    ______ ____
ROOT
ATOM      1  C   UNL     1       4.100   3.276  17.556  0.00  0.00    +0.000 C 
ENDROOT
BRANCH   1   4
ATOM      2  C   UNL     1       6.107   4.420  16.695  0.00  0.00    +0.000 C 
ATOM      3  O   UNL     1       5.713   4.345  15.536  0.00  0.00    +0.000 OA
ATOM      4  N   UNL     1       5.417   3.855  17.739  0.00  0.00    +0.000 N 
ATOM      5  H   UNL     1       5.922   3.679  18.600  0.00  0.00    +0.000 HD
BRANCH   2   6
ATOM      6  C   UNL     1       7.397   5.099  17.115  0.00  0.00    +0.000 C 
BRANCH   6   7
ATOM      7  C   UNL     1       7.520   6.527  16.585  0.00  0.00    +0.000 C 
BRANCH   7   8
ATOM      8  C   UNL     1       7.125   7.588  17.607  0.00  0.00    +0.000 C 
BRANCH   8   9
ATOM      9  C   UNL     1       8.320   8.061  18.416  0.00  0.00    +0.000 C 
BRANCH   9  10
ATOM     10  C   UNL     1       8.506   9.569  18.291  0.00  0.00    +0.000 C 
BRANCH  10  11
ATOM     11  C   UNL     1       9.693  10.012  19.136  0.00  0.00    +0.000 C 
BRANCH  11  12
ATOM     12  C   UNL     1       9.282  11.102  20.114  0.00  0.00    +0.000 C 
BRANCH  12  13
ATOM     13  C   UNL     1      10.512  11.800  20.680  0.00  0.00    +0.000 C 
BRANCH  13  14
ATOM     14  C   UNL     1      11.641  11.803  19.659  0.00  0.00    +0.000 C 
BRANCH  14  15
ATOM     15  C   UNL     1      11.798  13.183  19.029  0.00  0.00    +0.000 C 
BRANCH  15  16
ATOM     16  C   UNL     1      10.973  13.289  17.751  0.00  0.00    +0.000 C 
BRANCH  16  18
ATOM     17  C   UNL     1       8.566  13.951  18.001  0.00  0.00    +0.000 C 
ATOM     18  C   UNL     1       9.989  14.451  17.829  0.00  0.00    +0.000 C 
ENDBRANCH  16  18
ENDBRANCH  15  16
ENDBRANCH  14  15
ENDBRANCH  13  14
ENDBRANCH  12  13
ENDBRANCH  11  12
ENDBRANCH  10  11
ENDBRANCH   9  10
ENDBRANCH   8   9
ENDBRANCH   7   8
ENDBRANCH   6   7
ENDBRANCH   2   6
ENDBRANCH   1   4
BRANCH   1  19
ATOM     19  C   UNL     1       3.075   3.793  18.593  0.00  0.00    +0.000 C 
ATOM     20  C   UNL     1       1.783   4.181  17.844  0.00  0.00    +0.000 C 
ATOM     21  C   UNL     1       2.729   2.638  19.568  0.00  0.00    +0.000 C 
BRANCH  19  22
ATOM     22  C   UNL     1       3.625   5.006  19.421  0.00  0.00    +0.000 C 
BRANCH  22  23
ATOM     23  C   UNL     1       2.883   6.335  19.296  0.00  0.00    +0.000 C 
ATOM     24  C   UNL     1       2.910   7.177  18.247  0.00  0.00    +0.000 C 
ATOM     25  C   UNL     1       2.123   8.460  18.250  0.00  0.00    +0.000 C 
ATOM     26  O   UNL     1       2.012   9.156  17.247  0.00  0.00    +0.000 OA
ATOM     27  C   UNL     1       1.508   8.900  19.512  0.00  0.00    +0.000 A 
ATOM     28  C   UNL     1       0.923  10.174  19.628  0.00  0.00    +0.000 A 
ATOM     29  C   UNL     1       0.369  10.594  20.836  0.00  0.00    +0.000 A 
ATOM     30  C   UNL     1       0.445   9.761  21.954  0.00  0.00    +0.000 A 
ATOM     31  C   UNL     1       1.022   8.509  21.828  0.00  0.00    +0.000 A 
ATOM     32  C   UNL     1       1.500   8.041  20.598  0.00  0.00    +0.000 A 
ATOM     33  C   UNL     1       1.877   6.628  20.349  0.00  0.00    +0.000 C 
ATOM     34  O   UNL     1       1.280   5.702  20.874  0.00  0.00    +0.000 OA
BRANCH  24  35
ATOM     35  O   UNL     1       3.651   6.928  17.100  0.00  0.00    +0.000 OA
ATOM     36  H   UNL     1       4.074   6.061  17.169  0.00  0.00    +0.000 HD
ENDBRANCH  24  35
ENDBRANCH  22  23
ENDBRANCH  19  22
ENDBRANCH   1  19
TORSDOF 17
ENDMDL
MODEL 2
REMARK VINA RESULT:      -6.9      1.131      1.724
REMARK  Name = 
REMARK  20 active torsions:
REMARK  status: ('A' for Active; 'I' for Inactive)
REMARK    1  A    between atoms: C_1  and  C_2
REMARK    2  A    between atoms: C_2  and  C_3
REMARK    3  A    between atoms: C_3  and  C_4
REMARK    4  A    between atoms: C_4  and  C_5
REMARK    5  A    between atoms: C_5  and  C_6
REMARK    6  A    between atoms: C_6  and  C_7
REMARK    7  A    between atoms: C_7  and  C_8
REMARK    8  A    between atoms: C_8  and  C_9
REMARK    9  A    between atoms: C_9  and  C_10
REMARK   10  A    between atoms: C_10  and  C_11
REMARK   11  A    between atoms: C_11  and  C_12
REMARK   12  A    between atoms: C_12  and  C_13
REMARK   13  A    between atoms: C_13  and  C_14
REMARK   14  A    between atoms: N_16  and  C_17
REMARK   15  A    between atoms: C_17  and  C_18
REMARK   16  A    between atoms: C_18  and  C_19
REMARK   17  A    between atoms: C_18  and  C_20
REMARK   18  A    between atoms: C_18  and  C_21
REMARK   19  A    between atoms: C_21  and  C_22
REMARK   20  A    between atoms: C_23  and  O_24
REMARK                            x       y       z     vdW  Elec       q    Type
REMARK                         _______ _______ _______ _____ _____    ______ ____
ROOT
ATOM      1  C   UNL     1       4.098   3.060  18.190  0.00  0.00    +0.000 C 
ENDROOT
BRANCH   1   4
ATOM      2  C   UNL     1       5.912   4.458  17.277  0.00  0.00    +0.000 C 
ATOM      3  O   UNL     1       5.343   4.576  16.196  0.00  0.00    +0.000 OA
ATOM      4  N   UNL     1       5.410   3.671  18.284  0.00  0.00    +0.000 N 
ATOM      5  H   UNL     1       6.049   3.369  19.010  0.00  0.00    +0.000 HD
BRANCH   2   6
ATOM      6  C   UNL     1       7.231   5.123  17.623  0.00  0.00    +0.000 C 
BRANCH   6   7
ATOM      7  C   UNL     1       7.445   6.446  16.889  0.00  0.00    +0.000 C 
BRANCH   7   8
ATOM      8  C   UNL     1       7.109   7.669  17.736  0.00  0.00    +0.000 C 
BRANCH   8   9
ATOM      9  C   UNL     1       8.360   8.335  18.281  0.00  0.00    +0.000 C 
BRANCH   9  10
ATOM     10  C   UNL     1       8.518   9.746  17.725  0.00  0.00    +0.000 C 
BRANCH  10  11
ATOM     11  C   UNL     1       9.288  10.606  18.718  0.00  0.00    +0.000 C 
BRANCH  11  12
ATOM     12  C   UNL     1      10.360  11.419  18.010  0.00  0.00    +0.000 C 
BRANCH  12  13
ATOM     13  C   UNL     1      10.681  12.681  18.801  0.00  0.00    +0.000 C 
BRANCH  13  14
ATOM     14  C   UNL     1       9.477  13.113  19.628  0.00  0.00    +0.000 C 
BRANCH  14  15
ATOM     15  C   UNL     1       9.882  14.147  20.673  0.00  0.00    +0.000 C 
BRANCH  15  16
ATOM     16  C   UNL     1       9.478  13.687  22.070  0.00  0.00    +0.000 C 
BRANCH  16  18
ATOM     17  C   UNL     1       8.184  11.663  22.795  0.00  0.00    +0.000 C 
ATOM     18  C   UNL     1       8.126  12.982  22.045  0.00  0.00    +0.000 C 
ENDBRANCH  16  18
ENDBRANCH  15  16
ENDBRANCH  14  15
ENDBRANCH  13  14
ENDBRANCH  12  13
ENDBRANCH  11  12
ENDBRANCH  10  11
ENDBRANCH   9  10
ENDBRANCH   8   9
ENDBRANCH   7   8
ENDBRANCH   6   7
ENDBRANCH   2   6
ENDBRANCH   1   4
BRANCH   1  19
ATOM     19  C   UNL     1       3.021   3.846  18.975  0.00  0.00    +0.000 C 
ATOM     20  C   UNL     1       1.892   4.230  17.995  0.00  0.00    +0.000 C 
ATOM     21  C   UNL     1       2.413   2.913  20.055  0.00  0.00    +0.000 C 
BRANCH  19  22
ATOM     22  C   UNL     1       3.605   5.119  19.678  0.00  0.00    +0.000 C 
BRANCH  22  23
ATOM     23  C   UNL     1       2.848   6.433  19.494  0.00  0.00    +0.000 C 
ATOM     24  C   UNL     1       2.920   7.264  18.437  0.00  0.00    +0.000 C 
ATOM     25  C   UNL     1       2.112   8.532  18.379  0.00  0.00    +0.000 C 
ATOM     26  O   UNL     1       2.046   9.213  17.363  0.00  0.00    +0.000 OA
ATOM     27  C   UNL     1       1.418   8.975  19.598  0.00  0.00    +0.000 A 
ATOM     28  C   UNL     1       0.804  10.238  19.665  0.00  0.00    +0.000 A 
ATOM     29  C   UNL     1       0.174  10.662  20.834  0.00  0.00    +0.000 A 
ATOM     30  C   UNL     1       0.200   9.843  21.964  0.00  0.00    +0.000 A 
ATOM     31  C   UNL     1       0.806   8.601  21.888  0.00  0.00    +0.000 A 
ATOM     32  C   UNL     1       1.363   8.128  20.693  0.00  0.00    +0.000 A 
ATOM     33  C   UNL     1       1.779   6.720  20.484  0.00  0.00    +0.000 C 
ATOM     34  O   UNL     1       1.169   5.789  20.986  0.00  0.00    +0.000 OA
BRANCH  24  35
ATOM     35  O   UNL     1       3.730   7.014  17.338  0.00  0.00    +0.000 OA
ATOM     36  H   UNL     1       4.615   6.764  17.637  0.00  0.00    +0.000 HD
ENDBRANCH  24  35
ENDBRANCH  22  23
ENDBRANCH  19  22
ENDBRANCH   1  19
TORSDOF 17
ENDMDL
MODEL 3
REMARK VINA RESULT:      -6.6      3.674      6.873
REMARK  Name = 
REMARK  20 active torsions:
REMARK  status: ('A' for Active; 'I' for Inactive)
REMARK    1  A    between atoms: C_1  and  C_2
REMARK    2  A    between atoms: C_2  and  C_3
REMARK    3  A    between atoms: C_3  and  C_4
REMARK    4  A    between atoms: C_4  and  C_5
REMARK    5  A    between atoms: C_5  and  C_6
REMARK    6  A    between atoms: C_6  and  C_7
REMARK    7  A    between atoms: C_7  and  C_8
REMARK    8  A    between atoms: C_8  and  C_9
REMARK    9  A    between atoms: C_9  and  C_10
REMARK   10  A    between atoms: C_10  and  C_11
REMARK   11  A    between atoms: C_11  and  C_12
REMARK   12  A    between atoms: C_12  and  C_13
REMARK   13  A    between atoms: C_13  and  C_14
REMARK   14  A    between atoms: N_16  and  C_17
REMARK   15  A    between atoms: C_17  and  C_18
REMARK   16  A    between atoms: C_18  and  C_19
REMARK   17  A    between atoms: C_18  and  C_20
REMARK   18  A    between atoms: C_18  and  C_21
REMARK   19  A    between atoms: C_21  and  C_22
REMARK   20  A    between atoms: C_23  and  O_24
REMARK                            x       y       z     vdW  Elec       q    Type
REMARK                         _______ _______ _______ _____ _____    ______ ____
ROOT
ATOM      1  C   UNL     1       1.587   8.416  20.549  0.00  0.00    +0.000 C 
ENDROOT
BRANCH   1   4
ATOM      2  C   UNL     1       2.450   6.131  20.218  0.00  0.00    +0.000 C 
ATOM      3  O   UNL     1       3.221   6.497  19.337  0.00  0.00    +0.000 OA
ATOM      4  N   UNL     1       1.559   6.991  20.812  0.00  0.00    +0.000 N 
ATOM      5  H   UNL     1       0.761   6.588  21.290  0.00  0.00    +0.000 HD
BRANCH   2   6
ATOM      6  C   UNL     1       2.355   4.705  20.730  0.00  0.00    +0.000 C 
BRANCH   6   7
ATOM      7  C   UNL     1       2.472   3.662  19.621  0.00  0.00    +0.000 C 
BRANCH   7   8
ATOM      8  C   UNL     1       3.782   2.881  19.659  0.00  0.00    +0.000 C 
BRANCH   8   9
ATOM      9  C   UNL     1       4.794   3.433  18.670  0.00  0.00    +0.000 C 
BRANCH   9  10
ATOM     10  C   UNL     1       4.105   3.978  17.425  0.00  0.00    +0.000 C 
BRANCH  10  11
ATOM     11  C   UNL     1       4.975   3.720  16.202  0.00  0.00    +0.000 C 
BRANCH  11  12
ATOM     12  C   UNL     1       5.773   4.962  15.836  0.00  0.00    +0.000 C 
BRANCH  12  13
ATOM     13  C   UNL     1       4.959   6.219  16.114  0.00  0.00    +0.000 C 
BRANCH  13  14
ATOM     14  C   UNL     1       5.743   7.178  16.998  0.00  0.00    +0.000 C 
BRANCH  14  15
ATOM     15  C   UNL     1       7.235   6.870  16.941  0.00  0.00    +0.000 C 
BRANCH  15  16
ATOM     16  C   UNL     1       7.833   6.841  18.343  0.00  0.00    +0.000 C 
BRANCH  16  18
ATOM     17  C   UNL     1       8.297   5.412  20.353  0.00  0.00    +0.000 C 
ATOM     18  C   UNL     1       7.852   5.422  18.901  0.00  0.00    +0.000 C 
ENDBRANCH  16  18
ENDBRANCH  15  16
ENDBRANCH  14  15
ENDBRANCH  13  14
ENDBRANCH  12  13
ENDBRANCH  11  12
ENDBRANCH  10  11
ENDBRANCH   9  10
ENDBRANCH   8   9
ENDBRANCH   7   8
ENDBRANCH   6   7
ENDBRANCH   2   6
ENDBRANCH   1   4
BRANCH   1  19
ATOM     19  C   UNL     1       0.766   9.226  21.582  0.00  0.00    +0.000 C 
ATOM     20  C   UNL     1      -0.617   8.559  21.729  0.00  0.00    +0.000 C 
ATOM     21  C   UNL     1       1.480   9.146  22.956  0.00  0.00    +0.000 C 
BRANCH  19  22
ATOM     22  C   UNL     1       0.618  10.732  21.175  0.00  0.00    +0.000 C 
BRANCH  22  23
ATOM     23  C   UNL     1      -0.595  11.114  20.329  0.00  0.00    +0.000 C 
ATOM     24  C   UNL     1      -1.651  11.850  20.720  0.00  0.00    +0.000 C 
ATOM     25  C   UNL     1      -2.784  12.161  19.780  0.00  0.00    +0.000 C 
ATOM     26  O   UNL     1      -3.669  12.956  20.070  0.00  0.00    +0.000 OA
ATOM     27  C   UNL     1      -2.839  11.450  18.493  0.00  0.00    +0.000 A 
ATOM     28  C   UNL     1      -3.963  11.553  17.654  0.00  0.00    +0.000 A 
ATOM     29  C   UNL     1      -4.019  10.852  16.451  0.00  0.00    +0.000 A 
ATOM     30  C   UNL     1      -2.969  10.000  16.102  0.00  0.00    +0.000 A 
ATOM     31  C   UNL     1      -1.867   9.907  16.934  0.00  0.00    +0.000 A 
ATOM     32  C   UNL     1      -1.760  10.674  18.100  0.00  0.00    +0.000 A 
ATOM     33  C   UNL     1      -0.504  10.815  18.877  0.00  0.00    +0.000 C 
ATOM     34  O   UNL     1       0.588  10.841  18.332  0.00  0.00    +0.000 OA
BRANCH  24  35
ATOM     35  O   UNL     1      -1.771  12.374  22.001  0.00  0.00    +0.000 OA
ATOM     36  H   UNL     1      -1.141  13.099  22.115  0.00  0.00    +0.000 HD
ENDBRANCH  24  35
ENDBRANCH  22  23
ENDBRANCH  19  22
ENDBRANCH   1  19
TORSDOF 17
ENDMDL
MODEL 4
REMARK VINA RESULT:      -6.6      0.919      1.124
REMARK  Name = 
REMARK  20 active torsions:
REMARK  status: ('A' for Active; 'I' for Inactive)
REMARK    1  A    between atoms: C_1  and  C_2
REMARK    2  A    between atoms: C_2  and  C_3
REMARK    3  A    between atoms: C_3  and  C_4
REMARK    4  A    between atoms: C_4  and  C_5
REMARK    5  A    between atoms: C_5  and  C_6
REMARK    6  A    between atoms: C_6  and  C_7
REMARK    7  A    between atoms: C_7  and  C_8
REMARK    8  A    between atoms: C_8  and  C_9
REMARK    9  A    between atoms: C_9  and  C_10
REMARK   10  A    between atoms: C_10  and  C_11
REMARK   11  A    between atoms: C_11  and  C_12
REMARK   12  A    between atoms: C_12  and  C_13
REMARK   13  A    between atoms: C_13  and  C_14
REMARK   14  A    between atoms: N_16  and  C_17
REMARK   15  A    between atoms: C_17  and  C_18
REMARK   16  A    between atoms: C_18  and  C_19
REMARK   17  A    between atoms: C_18  and  C_20
REMARK   18  A    between atoms: C_18  and  C_21
REMARK   19  A    between atoms: C_21  and  C_22
REMARK   20  A    between atoms: C_23  and  O_24
REMARK                            x       y       z     vdW  Elec       q    Type
REMARK                         _______ _______ _______ _____ _____    ______ ____
ROOT
ATOM      1  C   UNL     1       3.974   3.544  17.999  0.00  0.00    +0.000 C 
ENDROOT
BRANCH   1   4
ATOM      2  C   UNL     1       5.468   4.182  16.145  0.00  0.00    +0.000 C 
ATOM      3  O   UNL     1       5.653   3.011  15.827  0.00  0.00    +0.000 OA
ATOM      4  N   UNL     1       4.720   4.530  17.243  0.00  0.00    +0.000 N 
ATOM      5  H   UNL     1       4.852   5.458  17.628  0.00  0.00    +0.000 HD
BRANCH   2   6
ATOM      6  C   UNL     1       6.054   5.369  15.404  0.00  0.00    +0.000 C 
BRANCH   6   7
ATOM      7  C   UNL     1       6.290   6.579  16.306  0.00  0.00    +0.000 C 
BRANCH   7   8
ATOM      8  C   UNL     1       7.645   6.557  17.007  0.00  0.00    +0.000 C 
BRANCH   8   9
ATOM      9  C   UNL     1       7.665   7.469  18.220  0.00  0.00    +0.000 C 
BRANCH   9  10
ATOM     10  C   UNL     1       7.990   8.904  17.823  0.00  0.00    +0.000 C 
BRANCH  10  11
ATOM     11  C   UNL     1       9.025   9.480  18.780  0.00  0.00    +0.000 C 
BRANCH  11  12
ATOM     12  C   UNL     1       9.455  10.870  18.338  0.00  0.00    +0.000 C 
BRANCH  12  13
ATOM     13  C   UNL     1       9.380  11.847  19.504  0.00  0.00    +0.000 C 
BRANCH  13  14
ATOM     14  C   UNL     1      10.645  11.769  20.348  0.00  0.00    +0.000 C 
BRANCH  14  15
ATOM     15  C   UNL     1      11.648  12.834  19.918  0.00  0.00    +0.000 C 
BRANCH  15  16
ATOM     16  C   UNL     1      10.952  13.953  19.151  0.00  0.00    +0.000 C 
BRANCH  16  18
ATOM     17  C   UNL     1      11.130  15.530  17.208  0.00  0.00    +0.000 C 
ATOM     18  C   UNL     1      11.711  14.295  17.873  0.00  0.00    +0.000 C 
ENDBRANCH  16  18
ENDBRANCH  15  16
ENDBRANCH  14  15
ENDBRANCH  13  14
ENDBRANCH  12  13
ENDBRANCH  11  12
ENDBRANCH  10  11
ENDBRANCH   9  10
ENDBRANCH   8   9
ENDBRANCH   7   8
ENDBRANCH   6   7
ENDBRANCH   2   6
ENDBRANCH   1   4
BRANCH   1  19
ATOM     19  C   UNL     1       2.918   4.186  18.931  0.00  0.00    +0.000 C 
ATOM     20  C   UNL     1       1.676   4.536  18.085  0.00  0.00    +0.000 C 
ATOM     21  C   UNL     1       2.490   3.140  19.992  0.00  0.00    +0.000 C 
BRANCH  19  22
ATOM     22  C   UNL     1       3.466   5.457  19.666  0.00  0.00    +0.000 C 
BRANCH  22  23
ATOM     23  C   UNL     1       2.666   6.750  19.524  0.00  0.00    +0.000 C 
ATOM     24  C   UNL     1       2.646   7.573  18.459  0.00  0.00    +0.000 C 
ATOM     25  C   UNL     1       1.805   8.820  18.446  0.00  0.00    +0.000 C 
ATOM     26  O   UNL     1       1.654   9.491  17.431  0.00  0.00    +0.000 OA
ATOM     27  C   UNL     1       1.184   9.258  19.706  0.00  0.00    +0.000 A 
ATOM     28  C   UNL     1       0.545  10.507  19.805  0.00  0.00    +0.000 A 
ATOM     29  C   UNL     1      -0.015  10.926  21.010  0.00  0.00    +0.000 A 
ATOM     30  C   UNL     1       0.108  10.118  22.143  0.00  0.00    +0.000 A 
ATOM     31  C   UNL     1       0.738   8.890  22.034  0.00  0.00    +0.000 A 
ATOM     32  C   UNL     1       1.224   8.420  20.808  0.00  0.00    +0.000 A 
ATOM     33  C   UNL     1       1.659   7.020  20.582  0.00  0.00    +0.000 C 
ATOM     34  O   UNL     1       1.108   6.079  21.131  0.00  0.00    +0.000 OA
BRANCH  24  35
ATOM     35  O   UNL     1       3.387   7.333  17.309  0.00  0.00    +0.000 OA
ATOM     36  H   UNL     1       4.108   7.975  17.248  0.00  0.00    +0.000 HD
ENDBRANCH  24  35
ENDBRANCH  22  23
ENDBRANCH  19  22
ENDBRANCH   1  19
TORSDOF 17
ENDMDL
MODEL 5
REMARK VINA RESULT:      -6.5      5.000      7.984
REMARK  Name = 
REMARK  20 active torsions:
REMARK  status: ('A' for Active; 'I' for Inactive)
REMARK    1  A    between atoms: C_1  and  C_2
REMARK    2  A    between atoms: C_2  and  C_3
REMARK    3  A    between atoms: C_3  and  C_4
REMARK    4  A    between atoms: C_4  and  C_5
REMARK    5  A    between atoms: C_5  and  C_6
REMARK    6  A    between atoms: C_6  and  C_7
REMARK    7  A    between atoms: C_7  and  C_8
REMARK    8  A    between atoms: C_8  and  C_9
REMARK    9  A    between atoms: C_9  and  C_10
REMARK   10  A    between atoms: C_10  and  C_11
REMARK   11  A    between atoms: C_11  and  C_12
REMARK   12  A    between atoms: C_12  and  C_13
REMARK   13  A    between atoms: C_13  and  C_14
REMARK   14  A    between atoms: N_16  and  C_17
REMARK   15  A    between atoms: C_17  and  C_18
REMARK   16  A    between atoms: C_18  and  C_19
REMARK   17  A    between atoms: C_18  and  C_20
REMARK   18  A    between atoms: C_18  and  C_21
REMARK   19  A    between atoms: C_21  and  C_22
REMARK   20  A    between atoms: C_23  and  O_24
REMARK                            x       y       z     vdW  Elec       q    Type
REMARK                         _______ _______ _______ _____ _____    ______ ____
ROOT
ATOM      1  C   UNL     1       0.668   8.132  20.716  0.00  0.00    +0.000 C 
ENDROOT
BRANCH   1   4
ATOM      2  C   UNL     1       1.752   5.927  20.515  0.00  0.00    +0.000 C 
ATOM      3  O   UNL     1       0.672   5.343  20.500  0.00  0.00    +0.000 OA
ATOM      4  N   UNL     1       1.844   7.285  20.695  0.00  0.00    +0.000 N 
ATOM      5  H   UNL     1       2.734   7.661  21.002  0.00  0.00    +0.000 HD
BRANCH   2   6
ATOM      6  C   UNL     1       3.096   5.237  20.376  0.00  0.00    +0.000 C 
BRANCH   6   7
ATOM      7  C   UNL     1       3.880   5.698  19.148  0.00  0.00    +0.000 C 
BRANCH   7   8
ATOM      8  C   UNL     1       5.367   5.365  19.219  0.00  0.00    +0.000 C 
BRANCH   8   9
ATOM      9  C   UNL     1       5.912   4.939  17.868  0.00  0.00    +0.000 C 
BRANCH   9  10
ATOM     10  C   UNL     1       4.941   5.293  16.747  0.00  0.00    +0.000 C 
BRANCH  10  11
ATOM     11  C   UNL     1       4.949   4.193  15.694  0.00  0.00    +0.000 C 
BRANCH  11  12
ATOM     12  C   UNL     1       6.339   4.024  15.101  0.00  0.00    +0.000 C 
BRANCH  12  13
ATOM     13  C   UNL     1       6.412   4.672  13.724  0.00  0.00    +0.000 C 
BRANCH  13  14
ATOM     14  C   UNL     1       6.639   3.619  12.649  0.00  0.00    +0.000 C 
BRANCH  14  15
ATOM     15  C   UNL     1       5.317   2.990  12.221  0.00  0.00    +0.000 C 
BRANCH  15  16
ATOM     16  C   UNL     1       4.494   3.974  11.397  0.00  0.00    +0.000 C 
BRANCH  16  18
ATOM     17  C   UNL     1       2.896   4.126   9.468  0.00  0.00    +0.000 C 
ATOM     18  C   UNL     1       3.421   3.249  10.591  0.00  0.00    +0.000 C 
ENDBRANCH  16  18
ENDBRANCH  15  16
ENDBRANCH  14  15
ENDBRANCH  13  14
ENDBRANCH  12  13
ENDBRANCH  11  12
ENDBRANCH  10  11
ENDBRANCH   9  10
ENDBRANCH   8   9
ENDBRANCH   7   8
ENDBRANCH   6   7
ENDBRANCH   2   6
ENDBRANCH   1   4
BRANCH   1  19
ATOM     19  C   UNL     1       0.770   9.263  21.767  0.00  0.00    +0.000 C 
ATOM     20  C   UNL     1      -0.410   9.118  22.751  0.00  0.00    +0.000 C 
ATOM     21  C   UNL     1       2.083   9.077  22.571  0.00  0.00    +0.000 C 
BRANCH  19  22
ATOM     22  C   UNL     1       0.777  10.687  21.112  0.00  0.00    +0.000 C 
BRANCH  22  23
ATOM     23  C   UNL     1      -0.453  11.092  20.301  0.00  0.00    +0.000 C 
ATOM     24  C   UNL     1      -1.464  11.880  20.710  0.00  0.00    +0.000 C 
ATOM     25  C   UNL     1      -2.620  12.207  19.805  0.00  0.00    +0.000 C 
ATOM     26  O   UNL     1      -3.463  13.045  20.104  0.00  0.00    +0.000 OA
ATOM     27  C   UNL     1      -2.753  11.462  18.543  0.00  0.00    +0.000 A 
ATOM     28  C   UNL     1      -3.904  11.585  17.745  0.00  0.00    +0.000 A 
ATOM     29  C   UNL     1      -4.034  10.853  16.566  0.00  0.00    +0.000 A 
ATOM     30  C   UNL     1      -3.032   9.950  16.203  0.00  0.00    +0.000 A 
ATOM     31  C   UNL     1      -1.902   9.838  16.995  0.00  0.00    +0.000 A 
ATOM     32  C   UNL     1      -1.721  10.634  18.133  0.00  0.00    +0.000 A 
ATOM     33  C   UNL     1      -0.431  10.747  18.857  0.00  0.00    +0.000 C 
ATOM     34  O   UNL     1       0.639  10.715  18.270  0.00  0.00    +0.000 OA
BRANCH  24  35
ATOM     35  O   UNL     1      -1.513  12.445  21.978  0.00  0.00    +0.000 OA
ATOM     36  H   UNL     1      -1.773  11.772  22.622  0.00  0.00    +0.000 HD
ENDBRANCH  24  35
ENDBRANCH  22  23
ENDBRANCH  19  22
ENDBRANCH   1  19
TORSDOF 17
ENDMDL
MODEL 6
REMARK VINA RESULT:      -6.4      4.689      9.389
REMARK  Name = 
REMARK  20 active torsions:
REMARK  status: ('A' for Active; 'I' for Inactive)
REMARK    1  A    between atoms: C_1  and  C_2
REMARK    2  A    between atoms: C_2  and  C_3
REMARK    3  A    between atoms: C_3  and  C_4
REMARK    4  A    between atoms: C_4  and  C_5
REMARK    5  A    between atoms: C_5  and  C_6
REMARK    6  A    between atoms: C_6  and  C_7
REMARK    7  A    between atoms: C_7  and  C_8
REMARK    8  A    between atoms: C_8  and  C_9
REMARK    9  A    between atoms: C_9  and  C_10
REMARK   10  A    between atoms: C_10  and  C_11
REMARK   11  A    between atoms: C_11  and  C_12
REMARK   12  A    between atoms: C_12  and  C_13
REMARK   13  A    between atoms: C_13  and  C_14
REMARK   14  A    between atoms: N_16  and  C_17
REMARK   15  A    between atoms: C_17  and  C_18
REMARK   16  A    between atoms: C_18  and  C_19
REMARK   17  A    between atoms: C_18  and  C_20
REMARK   18  A    between atoms: C_18  and  C_21
REMARK   19  A    between atoms: C_21  and  C_22
REMARK   20  A    between atoms: C_23  and  O_24
REMARK                            x       y       z     vdW  Elec       q    Type
REMARK                         _______ _______ _______ _____ _____    ______ ____
ROOT
ATOM      1  C   UNL     1       3.021   6.760  19.295  0.00  0.00    +0.000 C 
ENDROOT
BRANCH   1   4
ATOM      2  C   UNL     1       1.491   8.693  19.294  0.00  0.00    +0.000 C 
ATOM      3  O   UNL     1       1.466   8.737  20.520  0.00  0.00    +0.000 OA
ATOM      4  N   UNL     1       2.165   7.710  18.612  0.00  0.00    +0.000 N 
ATOM      5  H   UNL     1       1.905   7.542  17.647  0.00  0.00    +0.000 HD
BRANCH   2   6
ATOM      6  C   UNL     1       0.767   9.675  18.391  0.00  0.00    +0.000 C 
BRANCH   6   7
ATOM      7  C   UNL     1       0.171  10.858  19.151  0.00  0.00    +0.000 C 
BRANCH   7   8
ATOM      8  C   UNL     1      -0.978  11.537  18.411  0.00  0.00    +0.000 C 
BRANCH   8   9
ATOM      9  C   UNL     1      -2.179  10.619  18.277  0.00  0.00    +0.000 C 
BRANCH   9  10
ATOM     10  C   UNL     1      -3.338  11.328  17.586  0.00  0.00    +0.000 C 
BRANCH  10  11
ATOM     11  C   UNL     1      -4.592  11.220  18.444  0.00  0.00    +0.000 C 
BRANCH  11  12
ATOM     12  C   UNL     1      -4.874  12.534  19.155  0.00  0.00    +0.000 C 
BRANCH  12  13
ATOM     13  C   UNL     1      -4.632  12.391  20.653  0.00  0.00    +0.000 C 
BRANCH  13  14
ATOM     14  C   UNL     1      -3.335  13.079  21.052  0.00  0.00    +0.000 C 
BRANCH  14  15
ATOM     15  C   UNL     1      -3.259  13.254  22.565  0.00  0.00    +0.000 C 
BRANCH  15  16
ATOM     16  C   UNL     1      -2.571  12.057  23.212  0.00  0.00    +0.000 C 
BRANCH  16  18
ATOM     17  C   UNL     1      -0.791  10.336  22.805  0.00  0.00    +0.000 C 
ATOM     18  C   UNL     1      -1.235  11.763  22.538  0.00  0.00    +0.000 C 
ENDBRANCH  16  18
ENDBRANCH  15  16
ENDBRANCH  14  15
ENDBRANCH  13  14
ENDBRANCH  12  13
ENDBRANCH  11  12
ENDBRANCH  10  11
ENDBRANCH   9  10
ENDBRANCH   8   9
ENDBRANCH   7   8
ENDBRANCH   6   7
ENDBRANCH   2   6
ENDBRANCH   1   4
BRANCH   1  19
ATOM     19  C   UNL     1       2.414   5.337  19.333  0.00  0.00    +0.000 C 
ATOM     20  C   UNL     1       1.473   5.245  20.552  0.00  0.00    +0.000 C 
ATOM     21  C   UNL     1       1.560   5.127  18.057  0.00  0.00    +0.000 C 
BRANCH  19  22
ATOM     22  C   UNL     1       3.515   4.222  19.394  0.00  0.00    +0.000 C 
BRANCH  22  23
ATOM     23  C   UNL     1       4.672   4.324  18.403  0.00  0.00    +0.000 C 
ATOM     24  C   UNL     1       5.906   4.800  18.651  0.00  0.00    +0.000 C 
ATOM     25  C   UNL     1       6.962   4.840  17.580  0.00  0.00    +0.000 C 
ATOM     26  O   UNL     1       8.129   5.119  17.828  0.00  0.00    +0.000 OA
ATOM     27  C   UNL     1       6.559   4.570  16.190  0.00  0.00    +0.000 A 
ATOM     28  C   UNL     1       7.452   4.774  15.123  0.00  0.00    +0.000 A 
ATOM     29  C   UNL     1       7.053   4.544  13.808  0.00  0.00    +0.000 A 
ATOM     30  C   UNL     1       5.737   4.160  13.546  0.00  0.00    +0.000 A 
ATOM     31  C   UNL     1       4.865   3.961  14.604  0.00  0.00    +0.000 A 
ATOM     32  C   UNL     1       5.282   4.101  15.934  0.00  0.00    +0.000 A 
ATOM     33  C   UNL     1       4.479   3.646  17.095  0.00  0.00    +0.000 C 
ATOM     34  O   UNL     1       3.785   2.643  17.043  0.00  0.00    +0.000 OA
BRANCH  24  35
ATOM     35  O   UNL     1       6.292   5.279  19.895  0.00  0.00    +0.000 OA
ATOM     36  H   UNL     1       7.256   5.346  19.932  0.00  0.00    +0.000 HD
ENDBRANCH  24  35
ENDBRANCH  22  23
ENDBRANCH  19  22
ENDBRANCH   1  19
TORSDOF 17
ENDMDL
MODEL 7
REMARK VINA RESULT:      -6.4      3.806      8.767
REMARK  Name = 
REMARK  20 active torsions:
REMARK  status: ('A' for Active; 'I' for Inactive)
REMARK    1  A    between atoms: C_1  and  C_2
REMARK    2  A    between atoms: C_2  and  C_3
REMARK    3  A    between atoms: C_3  and  C_4
REMARK    4  A    between atoms: C_4  and  C_5
REMARK    5  A    between atoms: C_5  and  C_6
REMARK    6  A    between atoms: C_6  and  C_7
REMARK    7  A    between atoms: C_7  and  C_8
REMARK    8  A    between atoms: C_8  and  C_9
REMARK    9  A    between atoms: C_9  and  C_10
REMARK   10  A    between atoms: C_10  and  C_11
REMARK   11  A    between atoms: C_11  and  C_12
REMARK   12  A    between atoms: C_12  and  C_13
REMARK   13  A    between atoms: C_13  and  C_14
REMARK   14  A    between atoms: N_16  and  C_17
REMARK   15  A    between atoms: C_17  and  C_18
REMARK   16  A    between atoms: C_18  and  C_19
REMARK   17  A    between atoms: C_18  and  C_20
REMARK   18  A    between atoms: C_18  and  C_21
REMARK   19  A    between atoms: C_21  and  C_22
REMARK   20  A    between atoms: C_23  and  O_24
REMARK                            x       y       z     vdW  Elec       q    Type
REMARK                         _______ _______ _______ _____ _____    ______ ____
ROOT
ATOM      1  C   UNL     1       0.791  10.755  20.015  0.00  0.00    +0.000 C 
ENDROOT
BRANCH   1   4
ATOM      2  C   UNL     1       1.688   8.616  19.180  0.00  0.00    +0.000 C 
ATOM      3  O   UNL     1       1.715   8.131  20.306  0.00  0.00    +0.000 OA
ATOM      4  N   UNL     1       1.322   9.920  18.955  0.00  0.00    +0.000 N 
ATOM      5  H   UNL     1       1.607  10.347  18.081  0.00  0.00    +0.000 HD
BRANCH   2   6
ATOM      6  C   UNL     1       2.081   7.867  17.920  0.00  0.00    +0.000 C 
BRANCH   6   7
ATOM      7  C   UNL     1       3.575   7.558  17.849  0.00  0.00    +0.000 C 
BRANCH   7   8
ATOM      8  C   UNL     1       3.977   6.320  18.645  0.00  0.00    +0.000 C 
BRANCH   8   9
ATOM      9  C   UNL     1       5.067   5.531  17.943  0.00  0.00    +0.000 C 
BRANCH   9  10
ATOM     10  C   UNL     1       4.600   5.042  16.577  0.00  0.00    +0.000 C 
BRANCH  10  11
ATOM     11  C   UNL     1       4.137   3.596  16.680  0.00  0.00    +0.000 C 
BRANCH  11  12
ATOM     12  C   UNL     1       2.743   3.517  17.283  0.00  0.00    +0.000 C 
BRANCH  12  13
ATOM     13  C   UNL     1       2.497   2.135  17.875  0.00  0.00    +0.000 C 
BRANCH  13  14
ATOM     14  C   UNL     1       3.673   1.709  18.743  0.00  0.00    +0.000 C 
BRANCH  14  15
ATOM     15  C   UNL     1       3.810   2.622  19.956  0.00  0.00    +0.000 C 
BRANCH  15  16
ATOM     16  C   UNL     1       2.542   2.588  20.802  0.00  0.00    +0.000 C 
BRANCH  16  18
ATOM     17  C   UNL     1       1.059   4.573  20.407  0.00  0.00    +0.000 C 
ATOM     18  C   UNL     1       2.160   3.987  21.273  0.00  0.00    +0.000 C 
ENDBRANCH  16  18
ENDBRANCH  15  16
ENDBRANCH  14  15
ENDBRANCH  13  14
ENDBRANCH  12  13
ENDBRANCH  11  12
ENDBRANCH  10  11
ENDBRANCH   9  10
ENDBRANCH   8   9
ENDBRANCH   7   8
ENDBRANCH   6   7
ENDBRANCH   2   6
ENDBRANCH   1   4
BRANCH   1  19
ATOM     19  C   UNL     1      -0.383  11.643  19.538  0.00  0.00    +0.000 C 
ATOM     20  C   UNL     1      -1.091  10.923  18.371  0.00  0.00    +0.000 C 
ATOM     21  C   UNL     1      -1.403  11.783  20.697  0.00  0.00    +0.000 C 
BRANCH  19  22
ATOM     22  C   UNL     1       0.090  13.073  19.105  0.00  0.00    +0.000 C 
BRANCH  22  23
ATOM     23  C   UNL     1       1.431  13.563  19.648  0.00  0.00    +0.000 C 
ATOM     24  C   UNL     1       1.712  13.897  20.921  0.00  0.00    +0.000 C 
ATOM     25  C   UNL     1       3.084  14.363  21.327  0.00  0.00    +0.000 C 
ATOM     26  O   UNL     1       3.396  14.517  22.501  0.00  0.00    +0.000 OA
ATOM     27  C   UNL     1       4.057  14.676  20.268  0.00  0.00    +0.000 A 
ATOM     28  C   UNL     1       5.285  15.291  20.571  0.00  0.00    +0.000 A 
ATOM     29  C   UNL     1       6.188  15.612  19.559  0.00  0.00    +0.000 A 
ATOM     30  C   UNL     1       5.844  15.367  18.228  0.00  0.00    +0.000 A 
ATOM     31  C   UNL     1       4.633  14.761  17.941  0.00  0.00    +0.000 A 
ATOM     32  C   UNL     1       3.758  14.353  18.955  0.00  0.00    +0.000 A 
ATOM     33  C   UNL     1       2.589  13.470  18.722  0.00  0.00    +0.000 C 
ATOM     34  O   UNL     1       2.616  12.575  17.893  0.00  0.00    +0.000 OA
BRANCH  24  35
ATOM     35  O   UNL     1       0.771  13.834  21.941  0.00  0.00    +0.000 OA
ATOM     36  H   UNL     1       0.959  13.074  22.508  0.00  0.00    +0.000 HD
ENDBRANCH  24  35
ENDBRANCH  22  23
ENDBRANCH  19  22
ENDBRANCH   1  19
TORSDOF 17
ENDMDL
MODEL 8
REMARK VINA RESULT:      -6.3      3.879      7.900
REMARK  Name = 
REMARK  20 active torsions:
REMARK  status: ('A' for Active; 'I' for Inactive)
REMARK    1  A    between atoms: C_1  and  C_2
REMARK    2  A    between atoms: C_2  and  C_3
REMARK    3  A    between atoms: C_3  and  C_4
REMARK    4  A    between atoms: C_4  and  C_5
REMARK    5  A    between atoms: C_5  and  C_6
REMARK    6  A    between atoms: C_6  and  C_7
REMARK    7  A    between atoms: C_7  and  C_8
REMARK    8  A    between atoms: C_8  and  C_9
REMARK    9  A    between atoms: C_9  and  C_10
REMARK   10  A    between atoms: C_10  and  C_11
REMARK   11  A    between atoms: C_11  and  C_12
REMARK   12  A    between atoms: C_12  and  C_13
REMARK   13  A    between atoms: C_13  and  C_14
REMARK   14  A    between atoms: N_16  and  C_17
REMARK   15  A    between atoms: C_17  and  C_18
REMARK   16  A    between atoms: C_18  and  C_19
REMARK   17  A    between atoms: C_18  and  C_20
REMARK   18  A    between atoms: C_18  and  C_21
REMARK   19  A    between atoms: C_21  and  C_22
REMARK   20  A    between atoms: C_23  and  O_24
REMARK                            x       y       z     vdW  Elec       q    Type
REMARK                         _______ _______ _______ _____ _____    ______ ____
ROOT
ATOM      1  C   UNL     1       0.195  10.525  20.209  0.00  0.00    +0.000 C 
ENDROOT
BRANCH   1   4
ATOM      2  C   UNL     1       1.407   8.429  20.675  0.00  0.00    +0.000 C 
ATOM      3  O   UNL     1       1.396   8.635  21.884  0.00  0.00    +0.000 OA
ATOM      4  N   UNL     1       0.908   9.340  19.775  0.00  0.00    +0.000 N 
ATOM      5  H   UNL     1       1.213   9.266  18.812  0.00  0.00    +0.000 HD
BRANCH   2   6
ATOM      6  C   UNL     1       1.989   7.188  20.026  0.00  0.00    +0.000 C 
BRANCH   6   7
ATOM      7  C   UNL     1       1.899   5.950  20.917  0.00  0.00    +0.000 C 
BRANCH   7   8
ATOM      8  C   UNL     1       1.283   4.743  20.215  0.00  0.00    +0.000 C 
BRANCH   8   9
ATOM      9  C   UNL     1       1.662   4.694  18.746  0.00  0.00    +0.000 C 
BRANCH   9  10
ATOM     10  C   UNL     1       2.149   3.305  18.350  0.00  0.00    +0.000 C 
BRANCH  10  11
ATOM     11  C   UNL     1       2.849   3.372  16.999  0.00  0.00    +0.000 C 
BRANCH  11  12
ATOM     12  C   UNL     1       4.359   3.338  17.171  0.00  0.00    +0.000 C 
BRANCH  12  13
ATOM     13  C   UNL     1       5.004   4.509  16.440  0.00  0.00    +0.000 C 
BRANCH  13  14
ATOM     14  C   UNL     1       4.775   5.806  17.203  0.00  0.00    +0.000 C 
BRANCH  14  15
ATOM     15  C   UNL     1       5.631   5.851  18.464  0.00  0.00    +0.000 C 
BRANCH  15  16
ATOM     16  C   UNL     1       7.111   5.941  18.108  0.00  0.00    +0.000 C 
BRANCH  16  18
ATOM     17  C   UNL     1       8.102   8.245  18.026  0.00  0.00    +0.000 C 
ATOM     18  C   UNL     1       7.391   7.160  17.236  0.00  0.00    +0.000 C 
ENDBRANCH  16  18
ENDBRANCH  15  16
ENDBRANCH  14  15
ENDBRANCH  13  14
ENDBRANCH  12  13
ENDBRANCH  11  12
ENDBRANCH  10  11
ENDBRANCH   9  10
ENDBRANCH   8   9
ENDBRANCH   7   8
ENDBRANCH   6   7
ENDBRANCH   2   6
ENDBRANCH   1   4
BRANCH   1  19
ATOM     19  C   UNL     1       0.752  11.819  19.569  0.00  0.00    +0.000 C 
ATOM     20  C   UNL     1       1.553  12.583  20.644  0.00  0.00    +0.000 C 
ATOM     21  C   UNL     1       1.734  11.430  18.434  0.00  0.00    +0.000 C 
BRANCH  19  22
ATOM     22  C   UNL     1      -0.379  12.723  18.970  0.00  0.00    +0.000 C 
BRANCH  22  23
ATOM     23  C   UNL     1      -1.748  12.082  18.753  0.00  0.00    +0.000 C 
ATOM     24  C   UNL     1      -2.052  11.110  17.873  0.00  0.00    +0.000 C 
ATOM     25  C   UNL     1      -3.448  10.560  17.762  0.00  0.00    +0.000 C 
ATOM     26  O   UNL     1      -3.705   9.572  17.084  0.00  0.00    +0.000 OA
ATOM     27  C   UNL     1      -4.534  11.262  18.463  0.00  0.00    +0.000 A 
ATOM     28  C   UNL     1      -5.880  10.913  18.251  0.00  0.00    +0.000 A 
ATOM     29  C   UNL     1      -6.904  11.604  18.897  0.00  0.00    +0.000 A 
ATOM     30  C   UNL     1      -6.590  12.686  19.721  0.00  0.00    +0.000 A 
ATOM     31  C   UNL     1      -5.262  13.021  19.924  0.00  0.00    +0.000 A 
ATOM     32  C   UNL     1      -4.222  12.277  19.352  0.00  0.00    +0.000 A 
ATOM     33  C   UNL     1      -2.799  12.422  19.746  0.00  0.00    +0.000 C 
ATOM     34  O   UNL     1      -2.473  12.665  20.897  0.00  0.00    +0.000 OA
BRANCH  24  35
ATOM     35  O   UNL     1      -1.114  10.549  17.018  0.00  0.00    +0.000 OA
ATOM     36  H   UNL     1      -0.474  10.035  17.530  0.00  0.00    +0.000 HD
ENDBRANCH  24  35
ENDBRANCH  22  23
ENDBRANCH  19  22
ENDBRANCH   1  19
TORSDOF 17
ENDMDL
MODEL 9
REMARK VINA RESULT:      -6.3      4.595      9.996
REMARK  Name = 
REMARK  20 active torsions:
REMARK  status: ('A' for Active; 'I' for Inactive)
REMARK    1  A    between atoms: C_1  and  C_2
REMARK    2  A    between atoms: C_2  and  C_3
REMARK    3  A    between atoms: C_3  and  C_4
REMARK    4  A    between atoms: C_4  and  C_5
REMARK    5  A    between atoms: C_5  and  C_6
REMARK    6  A    between atoms: C_6  and  C_7
REMARK    7  A    between atoms: C_7  and  C_8
REMARK    8  A    between atoms: C_8  and  C_9
REMARK    9  A    between atoms: C_9  and  C_10
REMARK   10  A    between atoms: C_10  and  C_11
REMARK   11  A    between atoms: C_11  and  C_12
REMARK   12  A    between atoms: C_12  and  C_13
REMARK   13  A    between atoms: C_13  and  C_14
REMARK   14  A    between atoms: N_16  and  C_17
REMARK   15  A    between atoms: C_17  and  C_18
REMARK   16  A    between atoms: C_18  and  C_19
REMARK   17  A    between atoms: C_18  and  C_20
REMARK   18  A    between atoms: C_18  and  C_21
REMARK   19  A    between atoms: C_21  and  C_22
REMARK   20  A    between atoms: C_23  and  O_24
REMARK                            x       y       z     vdW  Elec       q    Type
REMARK                         _______ _______ _______ _____ _____    ______ ____
ROOT
ATOM      1  C   UNL     1       2.591   6.260  18.625  0.00  0.00    +0.000 C 
ENDROOT
BRANCH   1   4
ATOM      2  C   UNL     1       1.637   8.492  19.053  0.00  0.00    +0.000 C 
ATOM      3  O   UNL     1       1.489   8.712  17.855  0.00  0.00    +0.000 OA
ATOM      4  N   UNL     1       2.239   7.348  19.516  0.00  0.00    +0.000 N 
ATOM      5  H   UNL     1       2.606   7.357  20.460  0.00  0.00    +0.000 HD
BRANCH   2   6
ATOM      6  C   UNL     1       1.216   9.448  20.153  0.00  0.00    +0.000 C 
BRANCH   6   7
ATOM      7  C   UNL     1       0.689  10.779  19.619  0.00  0.00    +0.000 C 
BRANCH   7   8
ATOM      8  C   UNL     1      -0.831  10.895  19.675  0.00  0.00    +0.000 C 
BRANCH   8   9
ATOM      9  C   UNL     1      -1.461  10.673  18.311  0.00  0.00    +0.000 C 
BRANCH   9  10
ATOM     10  C   UNL     1      -2.968  10.894  18.359  0.00  0.00    +0.000 C 
BRANCH  10  11
ATOM     11  C   UNL     1      -3.518  10.994  16.942  0.00  0.00    +0.000 C 
BRANCH  11  12
ATOM     12  C   UNL     1      -2.398  10.883  15.920  0.00  0.00    +0.000 C 
BRANCH  12  13
ATOM     13  C   UNL     1      -2.807   9.959  14.780  0.00  0.00    +0.000 C 
BRANCH  13  14
ATOM     14  C   UNL     1      -4.138  10.400  14.187  0.00  0.00    +0.000 C 
BRANCH  14  15
ATOM     15  C   UNL     1      -4.662   9.360  13.202  0.00  0.00    +0.000 C 
BRANCH  15  16
ATOM     16  C   UNL     1      -4.665   9.917  11.782  0.00  0.00    +0.000 C 
BRANCH  16  18
ATOM     17  C   UNL     1      -7.112  10.149  11.277  0.00  0.00    +0.000 C 
ATOM     18  C   UNL     1      -5.843   9.370  10.982  0.00  0.00    +0.000 C 
ENDBRANCH  16  18
ENDBRANCH  15  16
ENDBRANCH  14  15
ENDBRANCH  13  14
ENDBRANCH  12  13
ENDBRANCH  11  12
ENDBRANCH  10  11
ENDBRANCH   9  10
ENDBRANCH   8   9
ENDBRANCH   7   8
ENDBRANCH   6   7
ENDBRANCH   2   6
ENDBRANCH   1   4
BRANCH   1  19
ATOM     19  C   UNL     1       2.303   4.871  19.244  0.00  0.00    +0.000 C 
ATOM     20  C   UNL     1       1.567   5.082  20.584  0.00  0.00    +0.000 C 
ATOM     21  C   UNL     1       1.351   4.093  18.299  0.00  0.00    +0.000 C 
BRANCH  19  22
ATOM     22  C   UNL     1       3.608   4.029  19.452  0.00  0.00    +0.000 C 
BRANCH  22  23
ATOM     23  C   UNL     1       4.737   4.223  18.442  0.00  0.00    +0.000 C 
ATOM     24  C   UNL     1       5.936   4.788  18.671  0.00  0.00    +0.000 C 
ATOM     25  C   UNL     1       6.967   4.914  17.582  0.00  0.00    +0.000 C 
ATOM     26  O   UNL     1       8.114   5.279  17.812  0.00  0.00    +0.000 OA
ATOM     27  C   UNL     1       6.560   4.623  16.198  0.00  0.00    +0.000 A 
ATOM     28  C   UNL     1       7.416   4.900  15.117  0.00  0.00    +0.000 A 
ATOM     29  C   UNL     1       7.011   4.649  13.807  0.00  0.00    +0.000 A 
ATOM     30  C   UNL     1       5.723   4.168  13.566  0.00  0.00    +0.000 A 
ATOM     31  C   UNL     1       4.888   3.899  14.637  0.00  0.00    +0.000 A 
ATOM     32  C   UNL     1       5.317   4.061  15.960  0.00  0.00    +0.000 A 
ATOM     33  C   UNL     1       4.572   3.540  17.133  0.00  0.00    +0.000 C 
ATOM     34  O   UNL     1       3.953   2.489  17.085  0.00  0.00    +0.000 OA
BRANCH  24  35
ATOM     35  O   UNL     1       6.308   5.288  19.912  0.00  0.00    +0.000 OA
ATOM     36  H   UNL     1       6.369   6.252  19.869  0.00  0.00    +0.000 HD
ENDBRANCH  24  35
ENDBRANCH  22  23
ENDBRANCH  19  22
ENDBRANCH   1  19
TORSDOF 17
ENDMDL
