MODEL 1
REMARK VINA RESULT:      -7.6      0.000      0.000
REMARK  Name = 
REMARK  8 active torsions:
REMARK  status: ('A' for Active; 'I' for Inactive)
REMARK    1  A    between atoms: C_1  and  C_2
REMARK    2  A    between atoms: C_2  and  O_3
REMARK    3  A    between atoms: O_3  and  C_4
REMARK    4  A    between atoms: C_4  and  C_6
REMARK    5  A    between atoms: C_7  and  C_8
REMARK    6  A    between atoms: C_8  and  N_9
REMARK    7  A    between atoms: N_12  and  C_13
REMARK    8  A    between atoms: C_26  and  C_27
REMARK                            x       y       z     vdW  Elec       q    Type
REMARK                         _______ _______ _______ _____ _____    ______ ____
ROOT
ATOM      1  C   UNL     1       5.986   5.723  17.387  0.00  0.00    +0.000 C 
ATOM      2  C   UNL     1       4.689   6.074  17.553  0.00  0.00    +0.000 C 
ATOM      3  N   UNL     1       3.715   5.130  17.227  0.00  0.00    +0.000 N 
ATOM      4  C   UNL     1       3.937   3.787  17.134  0.00  0.00    +0.000 C 
ATOM      5  O   UNL     1       3.034   2.969  17.071  0.00  0.00    +0.000 OA
ATOM      6  N   UNL     1       5.245   3.417  17.166  0.00  0.00    +0.000 N 
ATOM      7  C   UNL     1       6.293   4.357  16.787  0.00  0.00    +0.000 C 
ATOM      8  H   UNL     1       2.746   5.392  17.394  0.00  0.00    +0.000 HD
ATOM      9  H   UNL     1       5.396   2.434  16.995  0.00  0.00    +0.000 HD
ENDROOT
BRANCH   7  10
ATOM     10  C   UNL     1       6.406   4.276  15.274  0.00  0.00    +0.000 A 
ATOM     11  C   UNL     1       5.670   3.517  14.376  0.00  0.00    +0.000 A 
ATOM     12  C   UNL     1       6.071   3.714  13.025  0.00  0.00    +0.000 A 
ATOM     13  C   UNL     1       7.133   4.580  12.931  0.00  0.00    +0.000 A 
ATOM     14  S   UNL     1       7.648   5.139  14.462  0.00  0.00    +0.000 S 
ENDBRANCH   7  10
BRANCH   1  15
ATOM     15  C   UNL     1       7.182   6.497  17.830  0.00  0.00    +0.000 C 
ATOM     16  O   UNL     1       7.812   6.216  18.838  0.00  0.00    +0.000 OA
BRANCH  15  17
ATOM     17  O   UNL     1       7.458   7.568  17.046  0.00  0.00    +0.000 OA
BRANCH  17  19
ATOM     18  C   UNL     1       8.613   9.351  18.264  0.00  0.00    +0.000 C 
ATOM     19  C   UNL     1       7.318   8.892  17.606  0.00  0.00    +0.000 C 
ENDBRANCH  17  19
ENDBRANCH  15  17
ENDBRANCH   1  15
BRANCH   2  20
ATOM     20  C   UNL     1       4.094   7.312  18.214  0.00  0.00    +0.000 C 
BRANCH  20  21
ATOM     21  N   UNL     1       2.631   7.200  18.330  0.00  0.00    +0.000 NA
ATOM     22  C   UNL     1       2.149   6.786  19.664  0.00  0.00    +0.000 C 
ATOM     23  C   UNL     1       1.700   7.850  20.674  0.00  0.00    +0.000 C 
ATOM     24  N   UNL     1       0.902   8.913  20.056  0.00  0.00    +0.000 N 
ATOM     25  C   UNL     1       1.488   9.480  18.826  0.00  0.00    +0.000 C 
ATOM     26  C   UNL     1       1.913   8.378  17.820  0.00  0.00    +0.000 C 
BRANCH  24  27
ATOM     27  C   UNL     1       0.145   9.738  20.897  0.00  0.00    +0.000 A 
ATOM     28  C   UNL     1      -0.361  10.990  20.487  0.00  0.00    +0.000 A 
ATOM     29  C   UNL     1      -0.994  11.868  21.376  0.00  0.00    +0.000 A 
ATOM     30  C   UNL     1      -1.135  11.505  22.704  0.00  0.00    +0.000 A 
ATOM     31  F   UNL     1      -1.706  12.355  23.568  0.00  0.00    +0.000 F 
ATOM     32  C   UNL     1      -0.676  10.276  23.147  0.00  0.00    +0.000 A 
ATOM     33  C   UNL     1      -0.051   9.401  22.247  0.00  0.00    +0.000 A 
ENDBRANCH  24  27
ENDBRANCH  20  21
ENDBRANCH   2  20
TORSDOF 7
ENDMDL
MODEL 2
REMARK VINA RESULT:      -7.6      5.615     10.214
REMARK  Name = 
REMARK  8 active torsions:
REMARK  status: ('A' for Active; 'I' for Inactive)
REMARK    1  A    between atoms: C_1  and  C_2
REMARK    2  A    between atoms: C_2  and  O_3
REMARK    3  A    between atoms: O_3  and  C_4
REMARK    4  A    between atoms: C_4  and  C_6
REMARK    5  A    between atoms: C_7  and  C_8
REMARK    6  A    between atoms: C_8  and  N_9
REMARK    7  A    between atoms: N_12  and  C_13
REMARK    8  A    between atoms: C_26  and  C_27
REMARK                            x       y       z     vdW  Elec       q    Type
REMARK                         _______ _______ _______ _____ _____    ______ ____
ROOT
ATOM      1  C   UNL     1      -1.766  12.070  19.743  0.00  0.00    +0.000 C 
ATOM      2  C   UNL     1      -0.867  11.300  20.401  0.00  0.00    +0.000 C 
ATOM      3  N   UNL     1      -0.321  11.805  21.581  0.00  0.00    +0.000 N 
ATOM      4  C   UNL     1      -0.881  12.799  22.331  0.00  0.00    +0.000 C 
ATOM      5  O   UNL     1      -0.509  13.063  23.462  0.00  0.00    +0.000 OA
ATOM      6  N   UNL     1      -1.921  13.447  21.742  0.00  0.00    +0.000 N 
ATOM      7  C   UNL     1      -2.064  13.459  20.291  0.00  0.00    +0.000 C 
ATOM      8  H   UNL     1       0.322  11.199  22.086  0.00  0.00    +0.000 HD
ATOM      9  H   UNL     1      -2.255  14.242  22.265  0.00  0.00    +0.000 HD
ENDROOT
BRANCH   7  10
ATOM     10  C   UNL     1      -1.194  14.602  19.792  0.00  0.00    +0.000 A 
ATOM     11  C   UNL     1      -0.146  14.578  18.883  0.00  0.00    +0.000 A 
ATOM     12  C   UNL     1       0.427  15.862  18.664  0.00  0.00    +0.000 A 
ATOM     13  C   UNL     1      -0.164  16.823  19.448  0.00  0.00    +0.000 A 
ATOM     14  S   UNL     1      -1.392  16.176  20.445  0.00  0.00    +0.000 S 
ENDBRANCH   7  10
BRANCH   1  15
ATOM     15  C   UNL     1      -2.597  11.666  18.571  0.00  0.00    +0.000 C 
ATOM     16  O   UNL     1      -3.813  11.578  18.626  0.00  0.00    +0.000 OA
BRANCH  15  17
ATOM     17  O   UNL     1      -1.869  11.352  17.471  0.00  0.00    +0.000 OA
BRANCH  17  19
ATOM     18  C   UNL     1      -2.808  10.386  15.426  0.00  0.00    +0.000 C 
ATOM     19  C   UNL     1      -2.159  10.119  16.778  0.00  0.00    +0.000 C 
ENDBRANCH  17  19
ENDBRANCH  15  17
ENDBRANCH   1  15
BRANCH   2  20
ATOM     20  C   UNL     1      -0.457   9.854  20.147  0.00  0.00    +0.000 C 
BRANCH  20  21
ATOM     21  N   UNL     1       1.008   9.719  20.096  0.00  0.00    +0.000 NA
ATOM     22  C   UNL     1       1.538   8.502  20.744  0.00  0.00    +0.000 C 
ATOM     23  C   UNL     1       1.841   7.260  19.895  0.00  0.00    +0.000 C 
ATOM     24  N   UNL     1       2.494   7.591  18.625  0.00  0.00    +0.000 N 
ATOM     25  C   UNL     1       1.841   8.676  17.868  0.00  0.00    +0.000 C 
ATOM     26  C   UNL     1       1.566   9.922  18.751  0.00  0.00    +0.000 C 
BRANCH  24  27
ATOM     27  C   UNL     1       3.134   6.558  17.929  0.00  0.00    +0.000 A 
ATOM     28  C   UNL     1       2.731   5.209  18.022  0.00  0.00    +0.000 A 
ATOM     29  C   UNL     1       3.462   4.168  17.436  0.00  0.00    +0.000 A 
ATOM     30  C   UNL     1       4.620   4.462  16.736  0.00  0.00    +0.000 A 
ATOM     31  F   UNL     1       5.344   3.469  16.203  0.00  0.00    +0.000 F 
ATOM     32  C   UNL     1       5.040   5.774  16.596  0.00  0.00    +0.000 A 
ATOM     33  C   UNL     1       4.297   6.809  17.180  0.00  0.00    +0.000 A 
ENDBRANCH  24  27
ENDBRANCH  20  21
ENDBRANCH   2  20
TORSDOF 7
ENDMDL
MODEL 3
REMARK VINA RESULT:      -7.6      0.871      1.022
REMARK  Name = 
REMARK  8 active torsions:
REMARK  status: ('A' for Active; 'I' for Inactive)
REMARK    1  A    between atoms: C_1  and  C_2
REMARK    2  A    between atoms: C_2  and  O_3
REMARK    3  A    between atoms: O_3  and  C_4
REMARK    4  A    between atoms: C_4  and  C_6
REMARK    5  A    between atoms: C_7  and  C_8
REMARK    6  A    between atoms: C_8  and  N_9
REMARK    7  A    between atoms: N_12  and  C_13
REMARK    8  A    between atoms: C_26  and  C_27
REMARK                            x       y       z     vdW  Elec       q    Type
REMARK                         _______ _______ _______ _____ _____    ______ ____
ROOT
ATOM      1  C   UNL     1       5.719   5.243  18.046  0.00  0.00    +0.000 C 
ATOM      2  C   UNL     1       4.470   5.764  18.109  0.00  0.00    +0.000 C 
ATOM      3  N   UNL     1       3.445   5.070  17.467  0.00  0.00    +0.000 N 
ATOM      4  C   UNL     1       3.498   3.750  17.125  0.00  0.00    +0.000 C 
ATOM      5  O   UNL     1       2.516   3.118  16.774  0.00  0.00    +0.000 OA
ATOM      6  N   UNL     1       4.722   3.173  17.251  0.00  0.00    +0.000 N 
ATOM      7  C   UNL     1       5.933   3.983  17.218  0.00  0.00    +0.000 C 
ATOM      8  H   UNL     1       2.505   5.451  17.557  0.00  0.00    +0.000 HD
ATOM      9  H   UNL     1       4.766   2.228  16.898  0.00  0.00    +0.000 HD
ENDROOT
BRANCH   7  10
ATOM     10  C   UNL     1       6.278   4.170  15.750  0.00  0.00    +0.000 A 
ATOM     11  C   UNL     1       7.193   5.030  15.162  0.00  0.00    +0.000 A 
ATOM     12  C   UNL     1       7.236   4.912  13.745  0.00  0.00    +0.000 A 
ATOM     13  C   UNL     1       6.318   3.999  13.284  0.00  0.00    +0.000 A 
ATOM     14  S   UNL     1       5.407   3.303  14.551  0.00  0.00    +0.000 S 
ENDBRANCH   7  10
BRANCH   1  15
ATOM     15  C   UNL     1       6.920   5.716  18.794  0.00  0.00    +0.000 C 
ATOM     16  O   UNL     1       7.095   5.472  19.978  0.00  0.00    +0.000 OA
BRANCH  15  17
ATOM     17  O   UNL     1       7.755   6.485  18.053  0.00  0.00    +0.000 OA
BRANCH  17  19
ATOM     18  C   UNL     1       8.224   8.885  17.919  0.00  0.00    +0.000 C 
ATOM     19  C   UNL     1       7.272   7.752  17.556  0.00  0.00    +0.000 C 
ENDBRANCH  17  19
ENDBRANCH  15  17
ENDBRANCH   1  15
BRANCH   2  20
ATOM     20  C   UNL     1       3.947   6.937  18.931  0.00  0.00    +0.000 C 
BRANCH  20  21
ATOM     21  N   UNL     1       2.477   6.997  18.893  0.00  0.00    +0.000 NA
ATOM     22  C   UNL     1       1.814   6.694  20.178  0.00  0.00    +0.000 C 
ATOM     23  C   UNL     1       1.392   7.842  21.104  0.00  0.00    +0.000 C 
ATOM     24  N   UNL     1       0.793   8.964  20.376  0.00  0.00    +0.000 N 
ATOM     25  C   UNL     1       1.565   9.411  19.201  0.00  0.00    +0.000 C 
ATOM     26  C   UNL     1       1.960   8.228  18.276  0.00  0.00    +0.000 C 
BRANCH  24  27
ATOM     27  C   UNL     1       0.056   9.902  21.108  0.00  0.00    +0.000 A 
ATOM     28  C   UNL     1      -0.144  11.229  20.670  0.00  0.00    +0.000 A 
ATOM     29  C   UNL     1      -0.760  12.197  21.473  0.00  0.00    +0.000 A 
ATOM     30  C   UNL     1      -1.194  11.851  22.741  0.00  0.00    +0.000 A 
ATOM     31  F   UNL     1      -1.752  12.781  23.528  0.00  0.00    +0.000 F 
ATOM     32  C   UNL     1      -1.043  10.555  23.204  0.00  0.00    +0.000 A 
ATOM     33  C   UNL     1      -0.432   9.592  22.389  0.00  0.00    +0.000 A 
ENDBRANCH  24  27
ENDBRANCH  20  21
ENDBRANCH   2  20
TORSDOF 7
ENDMDL
MODEL 4
REMARK VINA RESULT:      -7.5      0.809      1.250
REMARK  Name = 
REMARK  8 active torsions:
REMARK  status: ('A' for Active; 'I' for Inactive)
REMARK    1  A    between atoms: C_1  and  C_2
REMARK    2  A    between atoms: C_2  and  O_3
REMARK    3  A    between atoms: O_3  and  C_4
REMARK    4  A    between atoms: C_4  and  C_6
REMARK    5  A    between atoms: C_7  and  C_8
REMARK    6  A    between atoms: C_8  and  N_9
REMARK    7  A    between atoms: N_12  and  C_13
REMARK    8  A    between atoms: C_26  and  C_27
REMARK                            x       y       z     vdW  Elec       q    Type
REMARK                         _______ _______ _______ _____ _____    ______ ____
ROOT
ATOM      1  C   UNL     1       5.551   5.062  18.062  0.00  0.00    +0.000 C 
ATOM      2  C   UNL     1       4.318   5.612  18.165  0.00  0.00    +0.000 C 
ATOM      3  N   UNL     1       3.260   4.957  17.533  0.00  0.00    +0.000 N 
ATOM      4  C   UNL     1       3.273   3.643  17.164  0.00  0.00    +0.000 C 
ATOM      5  O   UNL     1       2.267   3.042  16.824  0.00  0.00    +0.000 OA
ATOM      6  N   UNL     1       4.485   3.033  17.250  0.00  0.00    +0.000 N 
ATOM      7  C   UNL     1       5.715   3.814  17.206  0.00  0.00    +0.000 C 
ATOM      8  H   UNL     1       2.333   5.359  17.652  0.00  0.00    +0.000 HD
ATOM      9  H   UNL     1       4.497   2.095  16.879  0.00  0.00    +0.000 HD
ENDROOT
BRANCH   7  10
ATOM     10  C   UNL     1       6.030   4.021  15.733  0.00  0.00    +0.000 A 
ATOM     11  C   UNL     1       5.470   3.414  14.619  0.00  0.00    +0.000 A 
ATOM     12  C   UNL     1       6.030   3.876  13.395  0.00  0.00    +0.000 A 
ATOM     13  C   UNL     1       7.036   4.786  13.609  0.00  0.00    +0.000 A 
ATOM     14  S   UNL     1       7.308   5.070  15.272  0.00  0.00    +0.000 S 
ENDBRANCH   7  10
BRANCH   1  15
ATOM     15  C   UNL     1       6.780   5.490  18.791  0.00  0.00    +0.000 C 
ATOM     16  O   UNL     1       6.925   5.320  19.992  0.00  0.00    +0.000 OA
BRANCH  15  17
ATOM     17  O   UNL     1       7.681   6.133  18.009  0.00  0.00    +0.000 OA
BRANCH  17  19
ATOM     18  C   UNL     1       7.674   8.545  17.586  0.00  0.00    +0.000 C 
ATOM     19  C   UNL     1       8.199   7.406  18.451  0.00  0.00    +0.000 C 
ENDBRANCH  17  19
ENDBRANCH  15  17
ENDBRANCH   1  15
BRANCH   2  20
ATOM     20  C   UNL     1       3.843   6.781  19.021  0.00  0.00    +0.000 C 
BRANCH  20  21
ATOM     21  N   UNL     1       2.378   6.913  18.973  0.00  0.00    +0.000 NA
ATOM     22  C   UNL     1       1.694   6.665  20.258  0.00  0.00    +0.000 C 
ATOM     23  C   UNL     1       1.324   7.849  21.162  0.00  0.00    +0.000 C 
ATOM     24  N   UNL     1       0.785   8.986  20.411  0.00  0.00    +0.000 N 
ATOM     25  C   UNL     1       1.584   9.373  19.234  0.00  0.00    +0.000 C 
ATOM     26  C   UNL     1       1.925   8.157  18.332  0.00  0.00    +0.000 C 
BRANCH  24  27
ATOM     27  C   UNL     1       0.091   9.972  21.123  0.00  0.00    +0.000 A 
ATOM     28  C   UNL     1      -0.279   9.820  22.477  0.00  0.00    +0.000 A 
ATOM     29  C   UNL     1      -1.093  10.748  23.138  0.00  0.00    +0.000 A 
ATOM     30  C   UNL     1      -1.553  11.858  22.451  0.00  0.00    +0.000 A 
ATOM     31  F   UNL     1      -2.361  12.732  23.066  0.00  0.00    +0.000 F 
ATOM     32  C   UNL     1      -1.195  12.063  21.129  0.00  0.00    +0.000 A 
ATOM     33  C   UNL     1      -0.373  11.131  20.479  0.00  0.00    +0.000 A 
ENDBRANCH  24  27
ENDBRANCH  20  21
ENDBRANCH   2  20
TORSDOF 7
ENDMDL
MODEL 5
REMARK VINA RESULT:      -7.1      5.429      9.965
REMARK  Name = 
REMARK  8 active torsions:
REMARK  status: ('A' for Active; 'I' for Inactive)
REMARK    1  A    between atoms: C_1  and  C_2
REMARK    2  A    between atoms: C_2  and  O_3
REMARK    3  A    between atoms: O_3  and  C_4
REMARK    4  A    between atoms: C_4  and  C_6
REMARK    5  A    between atoms: C_7  and  C_8
REMARK    6  A    between atoms: C_8  and  N_9
REMARK    7  A    between atoms: N_12  and  C_13
REMARK    8  A    between atoms: C_26  and  C_27
REMARK                            x       y       z     vdW  Elec       q    Type
REMARK                         _______ _______ _______ _____ _____    ______ ____
ROOT
ATOM      1  C   UNL     1      -0.935  11.759  20.522  0.00  0.00    +0.000 C 
ATOM      2  C   UNL     1      -1.056  10.579  19.868  0.00  0.00    +0.000 C 
ATOM      3  N   UNL     1      -1.735  10.580  18.649  0.00  0.00    +0.000 N 
ATOM      4  C   UNL     1      -1.942  11.687  17.878  0.00  0.00    +0.000 C 
ATOM      5  O   UNL     1      -2.334  11.625  16.724  0.00  0.00    +0.000 OA
ATOM      6  N   UNL     1      -1.631  12.868  18.473  0.00  0.00    +0.000 N 
ATOM      7  C   UNL     1      -1.610  12.986  19.926  0.00  0.00    +0.000 C 
ATOM      8  H   UNL     1      -1.783   9.694  18.149  0.00  0.00    +0.000 HD
ATOM      9  H   UNL     1      -1.884  13.679  17.929  0.00  0.00    +0.000 HD
ENDROOT
BRANCH   7  10
ATOM     10  C   UNL     1      -3.044  13.261  20.348  0.00  0.00    +0.000 A 
ATOM     11  C   UNL     1      -4.204  12.573  20.023  0.00  0.00    +0.000 A 
ATOM     12  C   UNL     1      -5.367  13.136  20.619  0.00  0.00    +0.000 A 
ATOM     13  C   UNL     1      -5.072  14.266  21.342  0.00  0.00    +0.000 A 
ATOM     14  S   UNL     1      -3.407  14.648  21.290  0.00  0.00    +0.000 S 
ENDBRANCH   7  10
BRANCH   1  15
ATOM     15  C   UNL     1      -0.110  12.023  21.737  0.00  0.00    +0.000 C 
ATOM     16  O   UNL     1      -0.281  11.427  22.789  0.00  0.00    +0.000 OA
BRANCH  15  17
ATOM     17  O   UNL     1       0.793  13.020  21.576  0.00  0.00    +0.000 OA
BRANCH  17  19
ATOM     18  C   UNL     1       2.984  13.848  20.860  0.00  0.00    +0.000 C 
ATOM     19  C   UNL     1       1.871  12.833  20.633  0.00  0.00    +0.000 C 
ENDBRANCH  17  19
ENDBRANCH  15  17
ENDBRANCH   1  15
BRANCH   2  20
ATOM     20  C   UNL     1      -0.411   9.231  20.168  0.00  0.00    +0.000 C 
BRANCH  20  21
ATOM     21  N   UNL     1       1.056   9.310  20.071  0.00  0.00    +0.000 NA
ATOM     22  C   UNL     1       1.777   8.194  20.715  0.00  0.00    +0.000 C 
ATOM     23  C   UNL     1       2.234   6.997  19.870  0.00  0.00    +0.000 C 
ATOM     24  N   UNL     1       2.793   7.400  18.577  0.00  0.00    +0.000 N 
ATOM     25  C   UNL     1       1.966   8.366  17.829  0.00  0.00    +0.000 C 
ATOM     26  C   UNL     1       1.537   9.572  18.707  0.00  0.00    +0.000 C 
BRANCH  24  27
ATOM     27  C   UNL     1       3.556   6.461  17.872  0.00  0.00    +0.000 A 
ATOM     28  C   UNL     1       4.606   6.827  17.002  0.00  0.00    +0.000 A 
ATOM     29  C   UNL     1       5.268   5.893  16.196  0.00  0.00    +0.000 A 
ATOM     30  C   UNL     1       4.891   4.562  16.247  0.00  0.00    +0.000 A 
ATOM     31  F   UNL     1       5.495   3.669  15.453  0.00  0.00    +0.000 F 
ATOM     32  C   UNL     1       3.883   4.153  17.104  0.00  0.00    +0.000 A 
ATOM     33  C   UNL     1       3.231   5.094  17.913  0.00  0.00    +0.000 A 
ENDBRANCH  24  27
ENDBRANCH  20  21
ENDBRANCH   2  20
TORSDOF 7
ENDMDL
MODEL 6
REMARK VINA RESULT:      -7.1      5.655     10.423
REMARK  Name = 
REMARK  8 active torsions:
REMARK  status: ('A' for Active; 'I' for Inactive)
REMARK    1  A    between atoms: C_1  and  C_2
REMARK    2  A    between atoms: C_2  and  O_3
REMARK    3  A    between atoms: O_3  and  C_4
REMARK    4  A    between atoms: C_4  and  C_6
REMARK    5  A    between atoms: C_7  and  C_8
REMARK    6  A    between atoms: C_8  and  N_9
REMARK    7  A    between atoms: N_12  and  C_13
REMARK    8  A    between atoms: C_26  and  C_27
REMARK                            x       y       z     vdW  Elec       q    Type
REMARK                         _______ _______ _______ _____ _____    ______ ____
ROOT
ATOM      1  C   UNL     1      -1.808  11.896  19.577  0.00  0.00    +0.000 C 
ATOM      2  C   UNL     1      -0.951  11.110  20.271  0.00  0.00    +0.000 C 
ATOM      3  N   UNL     1      -0.565  11.537  21.542  0.00  0.00    +0.000 N 
ATOM      4  C   UNL     1      -1.252  12.443  22.297  0.00  0.00    +0.000 C 
ATOM      5  O   UNL     1      -1.022  12.627  23.481  0.00  0.00    +0.000 OA
ATOM      6  N   UNL     1      -2.251  13.095  21.645  0.00  0.00    +0.000 N 
ATOM      7  C   UNL     1      -2.232  13.222  20.193  0.00  0.00    +0.000 C 
ATOM      8  H   UNL     1       0.047  10.918  22.070  0.00  0.00    +0.000 HD
ATOM      9  H   UNL     1      -2.680  13.830  22.186  0.00  0.00    +0.000 HD
ENDROOT
BRANCH   7  10
ATOM     10  C   UNL     1      -1.369  14.435  19.887  0.00  0.00    +0.000 A 
ATOM     11  C   UNL     1      -0.275  14.547  19.042  0.00  0.00    +0.000 A 
ATOM     12  C   UNL     1       0.274  15.859  19.015  0.00  0.00    +0.000 A 
ATOM     13  C   UNL     1      -0.385  16.703  19.876  0.00  0.00    +0.000 A 
ATOM     14  S   UNL     1      -1.645  15.912  20.717  0.00  0.00    +0.000 S 
ENDBRANCH   7  10
BRANCH   1  15
ATOM     15  C   UNL     1      -2.481  11.557  18.289  0.00  0.00    +0.000 C 
ATOM     16  O   UNL     1      -1.868  11.157  17.311  0.00  0.00    +0.000 OA
BRANCH  15  17
ATOM     17  O   UNL     1      -3.816  11.794  18.294  0.00  0.00    +0.000 OA
BRANCH  17  19
ATOM     18  C   UNL     1      -6.145  11.037  18.304  0.00  0.00    +0.000 C 
ATOM     19  C   UNL     1      -4.710  10.734  17.892  0.00  0.00    +0.000 C 
ENDBRANCH  17  19
ENDBRANCH  15  17
ENDBRANCH   1  15
BRANCH   2  20
ATOM     20  C   UNL     1      -0.444   9.708  19.956  0.00  0.00    +0.000 C 
BRANCH  20  21
ATOM     21  N   UNL     1       1.027   9.665  19.944  0.00  0.00    +0.000 NA
ATOM     22  C   UNL     1       1.616   8.517  20.665  0.00  0.00    +0.000 C 
ATOM     23  C   UNL     1       2.018   7.257  19.887  0.00  0.00    +0.000 C 
ATOM     24  N   UNL     1       2.682   7.567  18.617  0.00  0.00    +0.000 N 
ATOM     25  C   UNL     1       1.982   8.569  17.791  0.00  0.00    +0.000 C 
ATOM     26  C   UNL     1       1.606   9.837  18.603  0.00  0.00    +0.000 C 
BRANCH  24  27
ATOM     27  C   UNL     1       3.403   6.544  17.988  0.00  0.00    +0.000 A 
ATOM     28  C   UNL     1       4.524   6.793  17.168  0.00  0.00    +0.000 A 
ATOM     29  C   UNL     1       5.151   5.779  16.432  0.00  0.00    +0.000 A 
ATOM     30  C   UNL     1       4.665   4.485  16.508  0.00  0.00    +0.000 A 
ATOM     31  F   UNL     1       5.237   3.517  15.780  0.00  0.00    +0.000 F 
ATOM     32  C   UNL     1       3.583   4.189  17.320  0.00  0.00    +0.000 A 
ATOM     33  C   UNL     1       2.968   5.210  18.058  0.00  0.00    +0.000 A 
ENDBRANCH  24  27
ENDBRANCH  20  21
ENDBRANCH   2  20
TORSDOF 7
ENDMDL
MODEL 7
REMARK VINA RESULT:      -7.1      1.258      1.446
REMARK  Name = 
REMARK  8 active torsions:
REMARK  status: ('A' for Active; 'I' for Inactive)
REMARK    1  A    between atoms: C_1  and  C_2
REMARK    2  A    between atoms: C_2  and  O_3
REMARK    3  A    between atoms: O_3  and  C_4
REMARK    4  A    between atoms: C_4  and  C_6
REMARK    5  A    between atoms: C_7  and  C_8
REMARK    6  A    between atoms: C_8  and  N_9
REMARK    7  A    between atoms: N_12  and  C_13
REMARK    8  A    between atoms: C_26  and  C_27
REMARK                            x       y       z     vdW  Elec       q    Type
REMARK                         _______ _______ _______ _____ _____    ______ ____
ROOT
ATOM      1  C   UNL     1       5.708   5.232  18.070  0.00  0.00    +0.000 C 
ATOM      2  C   UNL     1       4.455   5.742  18.134  0.00  0.00    +0.000 C 
ATOM      3  N   UNL     1       3.436   5.043  17.487  0.00  0.00    +0.000 N 
ATOM      4  C   UNL     1       3.500   3.725  17.139  0.00  0.00    +0.000 C 
ATOM      5  O   UNL     1       2.524   3.086  16.784  0.00  0.00    +0.000 OA
ATOM      6  N   UNL     1       4.729   3.157  17.264  0.00  0.00    +0.000 N 
ATOM      7  C   UNL     1       5.934   3.977  17.238  0.00  0.00    +0.000 C 
ATOM      8  H   UNL     1       2.493   5.416  17.578  0.00  0.00    +0.000 HD
ATOM      9  H   UNL     1       4.781   2.214  16.908  0.00  0.00    +0.000 HD
ENDROOT
BRANCH   7  10
ATOM     10  C   UNL     1       6.279   4.173  15.770  0.00  0.00    +0.000 A 
ATOM     11  C   UNL     1       7.238   4.992  15.193  0.00  0.00    +0.000 A 
ATOM     12  C   UNL     1       7.265   4.899  13.774  0.00  0.00    +0.000 A 
ATOM     13  C   UNL     1       6.294   4.049  13.301  0.00  0.00    +0.000 A 
ATOM     14  S   UNL     1       5.353   3.381  14.562  0.00  0.00    +0.000 S 
ENDBRANCH   7  10
BRANCH   1  15
ATOM     15  C   UNL     1       6.904   5.710  18.823  0.00  0.00    +0.000 C 
ATOM     16  O   UNL     1       7.066   5.485  20.012  0.00  0.00    +0.000 OA
BRANCH  15  17
ATOM     17  O   UNL     1       7.751   6.463  18.078  0.00  0.00    +0.000 OA
BRANCH  17  19
ATOM     18  C   UNL     1       8.243   8.860  17.997  0.00  0.00    +0.000 C 
ATOM     19  C   UNL     1       7.293   7.742  17.588  0.00  0.00    +0.000 C 
ENDBRANCH  17  19
ENDBRANCH  15  17
ENDBRANCH   1  15
BRANCH   2  20
ATOM     20  C   UNL     1       3.922   6.907  18.960  0.00  0.00    +0.000 C 
BRANCH  20  21
ATOM     21  N   UNL     1       2.457   7.008  18.851  0.00  0.00    +0.000 NA
ATOM     22  C   UNL     1       1.747   7.088  20.143  0.00  0.00    +0.000 C 
ATOM     23  C   UNL     1       1.351   8.458  20.710  0.00  0.00    +0.000 C 
ATOM     24  N   UNL     1       0.824   9.362  19.683  0.00  0.00    +0.000 N 
ATOM     25  C   UNL     1       1.647   9.446  18.462  0.00  0.00    +0.000 C 
ATOM     26  C   UNL     1       2.013   8.044  17.906  0.00  0.00    +0.000 C 
BRANCH  24  27
ATOM     27  C   UNL     1       0.110  10.490  20.107  0.00  0.00    +0.000 A 
ATOM     28  C   UNL     1      -0.986  11.015  19.390  0.00  0.00    +0.000 A 
ATOM     29  C   UNL     1      -1.602  12.222  19.745  0.00  0.00    +0.000 A 
ATOM     30  C   UNL     1      -1.130  12.930  20.837  0.00  0.00    +0.000 A 
ATOM     31  F   UNL     1      -1.691  14.103  21.161  0.00  0.00    +0.000 F 
ATOM     32  C   UNL     1      -0.073  12.441  21.586  0.00  0.00    +0.000 A 
ATOM     33  C   UNL     1       0.532  11.228  21.226  0.00  0.00    +0.000 A 
ENDBRANCH  24  27
ENDBRANCH  20  21
ENDBRANCH   2  20
TORSDOF 7
ENDMDL
MODEL 8
REMARK VINA RESULT:      -7.0      2.881      5.118
REMARK  Name = 
REMARK  8 active torsions:
REMARK  status: ('A' for Active; 'I' for Inactive)
REMARK    1  A    between atoms: C_1  and  C_2
REMARK    2  A    between atoms: C_2  and  O_3
REMARK    3  A    between atoms: O_3  and  C_4
REMARK    4  A    between atoms: C_4  and  C_6
REMARK    5  A    between atoms: C_7  and  C_8
REMARK    6  A    between atoms: C_8  and  N_9
REMARK    7  A    between atoms: N_12  and  C_13
REMARK    8  A    between atoms: C_26  and  C_27
REMARK                            x       y       z     vdW  Elec       q    Type
REMARK                         _______ _______ _______ _____ _____    ______ ____
ROOT
ATOM      1  C   UNL     1       2.194   6.221  19.861  0.00  0.00    +0.000 C 
ATOM      2  C   UNL     1       2.059   7.525  20.202  0.00  0.00    +0.000 C 
ATOM      3  N   UNL     1       2.310   8.482  19.219  0.00  0.00    +0.000 N 
ATOM      4  C   UNL     1       2.295   8.237  17.877  0.00  0.00    +0.000 C 
ATOM      5  O   UNL     1       2.293   9.126  17.042  0.00  0.00    +0.000 OA
ATOM      6  N   UNL     1       2.231   6.923  17.533  0.00  0.00    +0.000 N 
ATOM      7  C   UNL     1       2.682   5.890  18.457  0.00  0.00    +0.000 C 
ATOM      8  H   UNL     1       2.165   9.456  19.478  0.00  0.00    +0.000 HD
ATOM      9  H   UNL     1       2.323   6.755  16.543  0.00  0.00    +0.000 HD
ENDROOT
BRANCH   7  10
ATOM     10  C   UNL     1       4.185   5.771  18.257  0.00  0.00    +0.000 A 
ATOM     11  C   UNL     1       5.171   5.433  19.172  0.00  0.00    +0.000 A 
ATOM     12  C   UNL     1       6.475   5.424  18.604  0.00  0.00    +0.000 A 
ATOM     13  C   UNL     1       6.457   5.803  17.283  0.00  0.00    +0.000 A 
ATOM     14  S   UNL     1       4.880   6.178  16.741  0.00  0.00    +0.000 S 
ENDBRANCH   7  10
BRANCH   1  15
ATOM     15  C   UNL     1       1.813   5.040  20.689  0.00  0.00    +0.000 C 
ATOM     16  O   UNL     1       2.473   4.668  21.647  0.00  0.00    +0.000 OA
BRANCH  15  17
ATOM     17  O   UNL     1       0.710   4.393  20.239  0.00  0.00    +0.000 OA
BRANCH  17  19
ATOM     18  C   UNL     1       1.056   2.558  18.655  0.00  0.00    +0.000 C 
ATOM     19  C   UNL     1       0.760   2.957  20.095  0.00  0.00    +0.000 C 
ENDBRANCH  17  19
ENDBRANCH  15  17
ENDBRANCH   1  15
BRANCH   2  20
ATOM     20  C   UNL     1       1.500   8.142  21.479  0.00  0.00    +0.000 C 
BRANCH  20  21
ATOM     21  N   UNL     1       0.106   8.576  21.293  0.00  0.00    +0.000 NA
ATOM     22  C   UNL     1      -0.681   8.676  22.539  0.00  0.00    +0.000 C 
ATOM     23  C   UNL     1      -0.822  10.033  23.242  0.00  0.00    +0.000 C 
ATOM     24  N   UNL     1      -1.055  11.133  22.302  0.00  0.00    +0.000 N 
ATOM     25  C   UNL     1      -0.130  11.160  21.153  0.00  0.00    +0.000 C 
ATOM     26  C   UNL     1      -0.024   9.778  20.455  0.00  0.00    +0.000 C 
BRANCH  24  27
ATOM     27  C   UNL     1      -1.546  12.340  22.815  0.00  0.00    +0.000 A 
ATOM     28  C   UNL     1      -0.760  13.510  22.901  0.00  0.00    +0.000 A 
ATOM     29  C   UNL     1      -1.214  14.669  23.543  0.00  0.00    +0.000 A 
ATOM     30  C   UNL     1      -2.474  14.680  24.114  0.00  0.00    +0.000 A 
ATOM     31  F   UNL     1      -2.901  15.773  24.761  0.00  0.00    +0.000 F 
ATOM     32  C   UNL     1      -3.290  13.564  24.032  0.00  0.00    +0.000 A 
ATOM     33  C   UNL     1      -2.830  12.412  23.380  0.00  0.00    +0.000 A 
ENDBRANCH  24  27
ENDBRANCH  20  21
ENDBRANCH   2  20
TORSDOF 7
ENDMDL
MODEL 9
REMARK VINA RESULT:      -7.0      5.427      9.515
REMARK  Name = 
REMARK  8 active torsions:
REMARK  status: ('A' for Active; 'I' for Inactive)
REMARK    1  A    between atoms: C_1  and  C_2
REMARK    2  A    between atoms: C_2  and  O_3
REMARK    3  A    between atoms: O_3  and  C_4
REMARK    4  A    between atoms: C_4  and  C_6
REMARK    5  A    between atoms: C_7  and  C_8
REMARK    6  A    between atoms: C_8  and  N_9
REMARK    7  A    between atoms: N_12  and  C_13
REMARK    8  A    between atoms: C_26  and  C_27
REMARK                            x       y       z     vdW  Elec       q    Type
REMARK                         _______ _______ _______ _____ _____    ______ ____
ROOT
ATOM      1  C   UNL     1      -0.159  11.822  19.527  0.00  0.00    +0.000 C 
ATOM      2  C   UNL     1      -0.576  10.737  18.833  0.00  0.00    +0.000 C 
ATOM      3  N   UNL     1      -1.929  10.659  18.501  0.00  0.00    +0.000 N 
ATOM      4  C   UNL     1      -2.780  11.726  18.463  0.00  0.00    +0.000 C 
ATOM      5  O   UNL     1      -3.889  11.669  17.957  0.00  0.00    +0.000 OA
ATOM      6  N   UNL     1      -2.283  12.877  18.988  0.00  0.00    +0.000 N 
ATOM      7  C   UNL     1      -1.201  12.842  19.964  0.00  0.00    +0.000 C 
ATOM      8  H   UNL     1      -2.221   9.858  17.944  0.00  0.00    +0.000 HD
ATOM      9  H   UNL     1      -2.958  13.625  19.044  0.00  0.00    +0.000 HD
ENDROOT
BRANCH   7  10
ATOM     10  C   UNL     1      -1.861  12.623  21.317  0.00  0.00    +0.000 A 
ATOM     11  C   UNL     1      -1.547  11.708  22.311  0.00  0.00    +0.000 A 
ATOM     12  C   UNL     1      -2.398  11.810  23.447  0.00  0.00    +0.000 A 
ATOM     13  C   UNL     1      -3.369  12.766  23.270  0.00  0.00    +0.000 A 
ATOM     14  S   UNL     1      -3.259  13.523  21.741  0.00  0.00    +0.000 S 
ENDBRANCH   7  10
BRANCH   1  15
ATOM     15  C   UNL     1       1.252  12.194  19.834  0.00  0.00    +0.000 C 
ATOM     16  O   UNL     1       1.681  12.265  20.976  0.00  0.00    +0.000 OA
BRANCH  15  17
ATOM     17  O   UNL     1       1.985  12.503  18.736  0.00  0.00    +0.000 OA
BRANCH  17  19
ATOM     18  C   UNL     1       2.818  14.782  18.407  0.00  0.00    +0.000 C 
ATOM     19  C   UNL     1       1.739  13.761  18.070  0.00  0.00    +0.000 C 
ENDBRANCH  17  19
ENDBRANCH  15  17
ENDBRANCH   1  15
BRANCH   2  20
ATOM     20  C   UNL     1       0.241   9.624  18.186  0.00  0.00    +0.000 C 
BRANCH  20  21
ATOM     21  N   UNL     1       1.501   9.400  18.913  0.00  0.00    +0.000 NA
ATOM     22  C   UNL     1       1.357   8.661  20.184  0.00  0.00    +0.000 C 
ATOM     23  C   UNL     1       1.592   7.145  20.211  0.00  0.00    +0.000 C 
ATOM     24  N   UNL     1       2.754   6.739  19.415  0.00  0.00    +0.000 N 
ATOM     25  C   UNL     1       2.795   7.316  18.058  0.00  0.00    +0.000 C 
ATOM     26  C   UNL     1       2.572   8.852  18.068  0.00  0.00    +0.000 C 
BRANCH  24  27
ATOM     27  C   UNL     1       3.284   5.462  19.633  0.00  0.00    +0.000 A 
ATOM     28  C   UNL     1       4.534   5.054  19.118  0.00  0.00    +0.000 A 
ATOM     29  C   UNL     1       4.990   3.734  19.221  0.00  0.00    +0.000 A 
ATOM     30  C   UNL     1       4.199   2.789  19.850  0.00  0.00    +0.000 A 
ATOM     31  F   UNL     1       4.612   1.517  19.921  0.00  0.00    +0.000 F 
ATOM     32  C   UNL     1       2.977   3.148  20.394  0.00  0.00    +0.000 A 
ATOM     33  C   UNL     1       2.532   4.474  20.292  0.00  0.00    +0.000 A 
ENDBRANCH  24  27
ENDBRANCH  20  21
ENDBRANCH   2  20
TORSDOF 7
ENDMDL
