MODEL 1
REMARK VINA RESULT:      -6.3      0.000      0.000
REMARK  Name = 
REMARK  7 active torsions:
REMARK  status: ('A' for Active; 'I' for Inactive)
REMARK    1  A    between atoms: C_1  and  C_2
REMARK    2  A    between atoms: C_6  and  C_7
REMARK    3  A    between atoms: C_7  and  N_8
REMARK    4  A    between atoms: C_11  and  N_12
REMARK    5  A    between atoms: C_13  and  C_15
REMARK    6  A    between atoms: C_15  and  C_16
REMARK    7  A    between atoms: C_15  and  C_22
REMARK                            x       y       z     vdW  Elec       q    Type
REMARK                         _______ _______ _______ _____ _____    ______ ____
ROOT
ATOM      1  N   UNL     1      -5.775  13.505  20.549  0.00  0.00    +0.000 N 
ATOM      2  C   UNL     1      -5.663  14.120  21.794  0.00  0.00    +0.000 C 
ATOM      3  O   UNL     1      -6.621  14.106  22.571  0.00  0.00    +0.000 OA
ATOM      4  H   UNL     1      -4.975  13.415  19.937  0.00  0.00    +0.000 HD
ENDROOT
BRANCH   1   8
ATOM      5  N   UNL     1      -4.856  11.582  18.008  0.00  0.00    +0.000 NA
ATOM      6  C   UNL     1      -5.753  10.846  18.908  0.00  0.00    +0.000 C 
ATOM      7  C   UNL     1      -6.969  11.758  19.033  0.00  0.00    +0.000 C 
ATOM      8  C   UNL     1      -7.040  12.912  20.083  0.00  0.00    +0.000 C 
ATOM      9  C   UNL     1      -7.902  13.936  19.316  0.00  0.00    +0.000 C 
ATOM     10  C   UNL     1      -7.316  13.915  17.915  0.00  0.00    +0.000 C 
ATOM     11  C   UNL     1      -7.059  12.437  17.651  0.00  0.00    +0.000 C 
ATOM     12  C   UNL     1      -5.739  12.119  16.954  0.00  0.00    +0.000 C 
BRANCH   5  13
ATOM     13  C   UNL     1      -3.786  10.761  17.395  0.00  0.00    +0.000 C 
BRANCH  13  19
ATOM     14  C   UNL     1       1.036   9.359  17.996  0.00  0.00    +0.000 C 
ATOM     15  C   UNL     1      -0.106  10.270  18.342  0.00  0.00    +0.000 A 
ATOM     16  C   UNL     1       0.056  11.256  19.325  0.00  0.00    +0.000 A 
ATOM     17  C   UNL     1      -0.971  12.154  19.575  0.00  0.00    +0.000 A 
ATOM     18  C   UNL     1      -2.157  12.018  18.851  0.00  0.00    +0.000 A 
ATOM     19  C   UNL     1      -2.416  10.955  17.999  0.00  0.00    +0.000 A 
ATOM     20  C   UNL     1      -1.344  10.106  17.705  0.00  0.00    +0.000 A 
ENDBRANCH  13  19
ENDBRANCH   5  13
ENDBRANCH   1   8
BRANCH   2  21
ATOM     21  C   UNL     1      -4.312  14.864  22.178  0.00  0.00    +0.000 C 
BRANCH  21  22
ATOM     22  C   UNL     1      -4.553  16.427  22.295  0.00  0.00    +0.000 C 
ATOM     23  C   UNL     1      -3.305  17.332  22.176  0.00  0.00    +0.000 C 
ATOM     24  C   UNL     1      -2.609  17.200  20.829  0.00  0.00    +0.000 C 
ATOM     25  C   UNL     1      -3.534  17.711  19.744  0.00  0.00    +0.000 C 
ATOM     26  C   UNL     1      -4.919  17.077  19.862  0.00  0.00    +0.000 C 
ATOM     27  C   UNL     1      -5.508  17.043  21.257  0.00  0.00    +0.000 C 
ENDBRANCH  21  22
BRANCH  21  28
ATOM     28  C   UNL     1      -3.772  14.225  23.562  0.00  0.00    +0.000 C 
ATOM     29  C   UNL     1      -3.800  12.673  23.570  0.00  0.00    +0.000 C 
ATOM     30  C   UNL     1      -2.674  12.066  22.736  0.00  0.00    +0.000 C 
ATOM     31  C   UNL     1      -1.297  12.493  23.233  0.00  0.00    +0.000 C 
ATOM     32  C   UNL     1      -1.192  14.008  23.357  0.00  0.00    +0.000 C 
ATOM     33  C   UNL     1      -2.373  14.574  24.144  0.00  0.00    +0.000 C 
ENDBRANCH  21  28
ENDBRANCH   2  21
TORSDOF 6
ENDMDL
MODEL 2
REMARK VINA RESULT:      -6.3      7.250     13.071
REMARK  Name = 
REMARK  7 active torsions:
REMARK  status: ('A' for Active; 'I' for Inactive)
REMARK    1  A    between atoms: C_1  and  C_2
REMARK    2  A    between atoms: C_6  and  C_7
REMARK    3  A    between atoms: C_7  and  N_8
REMARK    4  A    between atoms: C_11  and  N_12
REMARK    5  A    between atoms: C_13  and  C_15
REMARK    6  A    between atoms: C_15  and  C_16
REMARK    7  A    between atoms: C_15  and  C_22
REMARK                            x       y       z     vdW  Elec       q    Type
REMARK                         _______ _______ _______ _____ _____    ______ ____
ROOT
ATOM      1  N   UNL     1       3.542   3.749  17.520  0.00  0.00    +0.000 N 
ATOM      2  C   UNL     1       4.758   3.509  16.882  0.00  0.00    +0.000 C 
ATOM      3  O   UNL     1       5.133   2.349  16.698  0.00  0.00    +0.000 OA
ATOM      4  H   UNL     1       3.166   4.685  17.593  0.00  0.00    +0.000 HD
ENDROOT
BRANCH   1   8
ATOM      5  N   UNL     1       2.099   5.111  20.177  0.00  0.00    +0.000 NA
ATOM      6  C   UNL     1       1.106   4.392  19.368  0.00  0.00    +0.000 C 
ATOM      7  C   UNL     1       1.709   3.000  19.208  0.00  0.00    +0.000 C 
ATOM      8  C   UNL     1       2.723   2.656  18.072  0.00  0.00    +0.000 C 
ATOM      9  C   UNL     1       3.589   1.595  18.781  0.00  0.00    +0.000 C 
ATOM     10  C   UNL     1       3.820   2.188  20.159  0.00  0.00    +0.000 C 
ATOM     11  C   UNL     1       2.465   2.776  20.534  0.00  0.00    +0.000 C 
ATOM     12  C   UNL     1       2.512   4.142  21.211  0.00  0.00    +0.000 C 
BRANCH   5  13
ATOM     13  C   UNL     1       1.594   6.346  20.820  0.00  0.00    +0.000 C 
BRANCH  13  19
ATOM     14  C   UNL     1       0.434  11.179  19.884  0.00  0.00    +0.000 C 
ATOM     15  C   UNL     1       1.085   9.893  19.463  0.00  0.00    +0.000 A 
ATOM     16  C   UNL     1       1.686   9.791  18.201  0.00  0.00    +0.000 A 
ATOM     17  C   UNL     1       2.366   8.633  17.855  0.00  0.00    +0.000 A 
ATOM     18  C   UNL     1       2.398   7.585  18.777  0.00  0.00    +0.000 A 
ATOM     19  C   UNL     1       1.672   7.584  19.959  0.00  0.00    +0.000 A 
ATOM     20  C   UNL     1       1.057   8.786  20.323  0.00  0.00    +0.000 A 
ENDBRANCH  13  19
ENDBRANCH   5  13
ENDBRANCH   1   8
BRANCH   2  21
ATOM     21  C   UNL     1       5.660   4.740  16.436  0.00  0.00    +0.000 C 
BRANCH  21  22
ATOM     22  C   UNL     1       5.230   5.249  14.997  0.00  0.00    +0.000 C 
ATOM     23  C   UNL     1       6.269   6.092  14.220  0.00  0.00    +0.000 C 
ATOM     24  C   UNL     1       7.553   5.327  13.935  0.00  0.00    +0.000 C 
ATOM     25  C   UNL     1       7.245   4.177  12.999  0.00  0.00    +0.000 C 
ATOM     26  C   UNL     1       6.061   3.358  13.510  0.00  0.00    +0.000 C 
ATOM     27  C   UNL     1       4.861   4.157  13.976  0.00  0.00    +0.000 C 
ENDBRANCH  21  22
BRANCH  21  28
ATOM     28  C   UNL     1       5.514   5.894  17.559  0.00  0.00    +0.000 C 
ATOM     29  C   UNL     1       6.081   5.474  18.942  0.00  0.00    +0.000 C 
ATOM     30  C   UNL     1       7.608   5.496  18.976  0.00  0.00    +0.000 C 
ATOM     31  C   UNL     1       8.169   6.879  18.661  0.00  0.00    +0.000 C 
ATOM     32  C   UNL     1       7.598   7.432  17.362  0.00  0.00    +0.000 C 
ATOM     33  C   UNL     1       6.074   7.329  17.349  0.00  0.00    +0.000 C 
ENDBRANCH  21  28
ENDBRANCH   2  21
TORSDOF 6
ENDMDL
MODEL 3
REMARK VINA RESULT:      -6.2      1.986      5.058
REMARK  Name = 
REMARK  7 active torsions:
REMARK  status: ('A' for Active; 'I' for Inactive)
REMARK    1  A    between atoms: C_1  and  C_2
REMARK    2  A    between atoms: C_6  and  C_7
REMARK    3  A    between atoms: C_7  and  N_8
REMARK    4  A    between atoms: C_11  and  N_12
REMARK    5  A    between atoms: C_13  and  C_15
REMARK    6  A    between atoms: C_15  and  C_16
REMARK    7  A    between atoms: C_15  and  C_22
REMARK                            x       y       z     vdW  Elec       q    Type
REMARK                         _______ _______ _______ _____ _____    ______ ____
ROOT
ATOM      1  N   UNL     1      -1.459  12.693  20.815  0.00  0.00    +0.000 N 
ATOM      2  C   UNL     1      -1.883  14.005  21.010  0.00  0.00    +0.000 C 
ATOM      3  O   UNL     1      -1.285  14.929  20.456  0.00  0.00    +0.000 OA
ATOM      4  H   UNL     1      -1.992  11.912  21.176  0.00  0.00    +0.000 HD
ENDROOT
BRANCH   1   8
ATOM      5  N   UNL     1      -2.636  11.090  18.160  0.00  0.00    +0.000 NA
ATOM      6  C   UNL     1      -1.672  12.121  17.750  0.00  0.00    +0.000 C 
ATOM      7  C   UNL     1      -0.435  11.814  18.589  0.00  0.00    +0.000 C 
ATOM      8  C   UNL     1      -0.251  12.371  20.035  0.00  0.00    +0.000 C 
ATOM      9  C   UNL     1       0.554  11.223  20.678  0.00  0.00    +0.000 C 
ATOM     10  C   UNL     1      -0.157   9.974  20.188  0.00  0.00    +0.000 C 
ATOM     11  C   UNL     1      -0.461  10.277  18.726  0.00  0.00    +0.000 C 
ATOM     12  C   UNL     1      -1.843   9.848  18.244  0.00  0.00    +0.000 C 
BRANCH   5  13
ATOM     13  C   UNL     1      -3.769  10.898  17.226  0.00  0.00    +0.000 C 
BRANCH  13  19
ATOM     14  C   UNL     1      -7.607  10.970  20.519  0.00  0.00    +0.000 C 
ATOM     15  C   UNL     1      -6.969  11.469  19.255  0.00  0.00    +0.000 A 
ATOM     16  C   UNL     1      -7.648  12.387  18.441  0.00  0.00    +0.000 A 
ATOM     17  C   UNL     1      -7.016  12.915  17.325  0.00  0.00    +0.000 A 
ATOM     18  C   UNL     1      -5.721  12.481  17.032  0.00  0.00    +0.000 A 
ATOM     19  C   UNL     1      -5.088  11.452  17.711  0.00  0.00    +0.000 A 
ATOM     20  C   UNL     1      -5.709  10.987  18.875  0.00  0.00    +0.000 A 
ENDBRANCH  13  19
ENDBRANCH   5  13
ENDBRANCH   1   8
BRANCH   2  21
ATOM     21  C   UNL     1      -3.112  14.292  21.978  0.00  0.00    +0.000 C 
BRANCH  21  22
ATOM     22  C   UNL     1      -4.440  13.652  21.392  0.00  0.00    +0.000 C 
ATOM     23  C   UNL     1      -5.688  13.687  22.305  0.00  0.00    +0.000 C 
ATOM     24  C   UNL     1      -6.123  15.104  22.652  0.00  0.00    +0.000 C 
ATOM     25  C   UNL     1      -6.577  15.804  21.388  0.00  0.00    +0.000 C 
ATOM     26  C   UNL     1      -5.535  15.662  20.280  0.00  0.00    +0.000 C 
ATOM     27  C   UNL     1      -4.969  14.271  20.085  0.00  0.00    +0.000 C 
ENDBRANCH  21  22
BRANCH  21  28
ATOM     28  C   UNL     1      -2.742  13.699  23.436  0.00  0.00    +0.000 C 
ATOM     29  C   UNL     1      -1.264  13.949  23.839  0.00  0.00    +0.000 C 
ATOM     30  C   UNL     1      -1.010  15.396  24.254  0.00  0.00    +0.000 C 
ATOM     31  C   UNL     1      -1.875  15.814  25.438  0.00  0.00    +0.000 C 
ATOM     32  C   UNL     1      -3.348  15.520  25.186  0.00  0.00    +0.000 C 
ATOM     33  C   UNL     1      -3.544  14.081  24.712  0.00  0.00    +0.000 C 
ENDBRANCH  21  28
ENDBRANCH   2  21
TORSDOF 6
ENDMDL
MODEL 4
REMARK VINA RESULT:      -6.2      1.081      1.250
REMARK  Name = 
REMARK  7 active torsions:
REMARK  status: ('A' for Active; 'I' for Inactive)
REMARK    1  A    between atoms: C_1  and  C_2
REMARK    2  A    between atoms: C_6  and  C_7
REMARK    3  A    between atoms: C_7  and  N_8
REMARK    4  A    between atoms: C_11  and  N_12
REMARK    5  A    between atoms: C_13  and  C_15
REMARK    6  A    between atoms: C_15  and  C_16
REMARK    7  A    between atoms: C_15  and  C_22
REMARK                            x       y       z     vdW  Elec       q    Type
REMARK                         _______ _______ _______ _____ _____    ______ ____
ROOT
ATOM      1  N   UNL     1      -5.576  12.744  20.626  0.00  0.00    +0.000 N 
ATOM      2  C   UNL     1      -5.521  13.030  21.988  0.00  0.00    +0.000 C 
ATOM      3  O   UNL     1      -6.272  12.438  22.767  0.00  0.00    +0.000 OA
ATOM      4  H   UNL     1      -4.905  13.140  19.981  0.00  0.00    +0.000 HD
ENDROOT
BRANCH   1   8
ATOM      5  N   UNL     1      -4.141  11.629  17.852  0.00  0.00    +0.000 NA
ATOM      6  C   UNL     1      -4.695  10.511  18.626  0.00  0.00    +0.000 C 
ATOM      7  C   UNL     1      -6.146  10.917  18.862  0.00  0.00    +0.000 C 
ATOM      8  C   UNL     1      -6.574  11.818  20.063  0.00  0.00    +0.000 C 
ATOM      9  C   UNL     1      -7.764  12.574  19.436  0.00  0.00    +0.000 C 
ATOM     10  C   UNL     1      -7.258  12.950  18.055  0.00  0.00    +0.000 C 
ATOM     11  C   UNL     1      -6.515  11.705  17.588  0.00  0.00    +0.000 C 
ATOM     12  C   UNL     1      -5.193  11.964  16.872  0.00  0.00    +0.000 C 
BRANCH   5  13
ATOM     13  C   UNL     1      -2.876  11.323  17.144  0.00  0.00    +0.000 C 
BRANCH  13  19
ATOM     14  C   UNL     1       0.691   9.453  20.203  0.00  0.00    +0.000 C 
ATOM     15  C   UNL     1       0.069  10.620  19.492  0.00  0.00    +0.000 A 
ATOM     16  C   UNL     1       0.577  11.912  19.686  0.00  0.00    +0.000 A 
ATOM     17  C   UNL     1       0.059  12.972  18.957  0.00  0.00    +0.000 A 
ATOM     18  C   UNL     1      -0.988  12.713  18.069  0.00  0.00    +0.000 A 
ATOM     19  C   UNL     1      -1.629  11.487  17.980  0.00  0.00    +0.000 A 
ATOM     20  C   UNL     1      -1.044  10.417  18.665  0.00  0.00    +0.000 A 
ENDBRANCH  13  19
ENDBRANCH   5  13
ENDBRANCH   1   8
BRANCH   2  21
ATOM     21  C   UNL     1      -4.515  14.144  22.512  0.00  0.00    +0.000 C 
BRANCH  21  22
ATOM     22  C   UNL     1      -5.312  15.416  23.021  0.00  0.00    +0.000 C 
ATOM     23  C   UNL     1      -4.512  16.734  23.141  0.00  0.00    +0.000 C 
ATOM     24  C   UNL     1      -3.949  17.203  21.806  0.00  0.00    +0.000 C 
ATOM     25  C   UNL     1      -5.097  17.557  20.883  0.00  0.00    +0.000 C 
ATOM     26  C   UNL     1      -6.125  16.428  20.832  0.00  0.00    +0.000 C 
ATOM     27  C   UNL     1      -6.523  15.841  22.170  0.00  0.00    +0.000 C 
ENDBRANCH  21  22
BRANCH  21  28
ATOM     28  C   UNL     1      -3.610  13.484  23.678  0.00  0.00    +0.000 C 
ATOM     29  C   UNL     1      -3.073  12.075  23.310  0.00  0.00    +0.000 C 
ATOM     30  C   UNL     1      -1.918  12.135  22.312  0.00  0.00    +0.000 C 
ATOM     31  C   UNL     1      -0.739  12.940  22.847  0.00  0.00    +0.000 C 
ATOM     32  C   UNL     1      -1.175  14.317  23.331  0.00  0.00    +0.000 C 
ATOM     33  C   UNL     1      -2.371  14.210  24.274  0.00  0.00    +0.000 C 
ENDBRANCH  21  28
ENDBRANCH   2  21
TORSDOF 6
ENDMDL
MODEL 5
REMARK VINA RESULT:      -6.1      2.106      5.192
REMARK  Name = 
REMARK  7 active torsions:
REMARK  status: ('A' for Active; 'I' for Inactive)
REMARK    1  A    between atoms: C_1  and  C_2
REMARK    2  A    between atoms: C_6  and  C_7
REMARK    3  A    between atoms: C_7  and  N_8
REMARK    4  A    between atoms: C_11  and  N_12
REMARK    5  A    between atoms: C_13  and  C_15
REMARK    6  A    between atoms: C_15  and  C_16
REMARK    7  A    between atoms: C_15  and  C_22
REMARK                            x       y       z     vdW  Elec       q    Type
REMARK                         _______ _______ _______ _____ _____    ______ ____
ROOT
ATOM      1  N   UNL     1      -1.422  12.617  20.964  0.00  0.00    +0.000 N 
ATOM      2  C   UNL     1      -1.707  13.941  21.293  0.00  0.00    +0.000 C 
ATOM      3  O   UNL     1      -0.947  14.838  20.923  0.00  0.00    +0.000 OA
ATOM      4  H   UNL     1      -2.079  11.875  21.168  0.00  0.00    +0.000 HD
ENDROOT
BRANCH   1   8
ATOM      5  N   UNL     1      -2.498  11.348  18.095  0.00  0.00    +0.000 NA
ATOM      6  C   UNL     1      -1.409  12.304  17.856  0.00  0.00    +0.000 C 
ATOM      7  C   UNL     1      -0.288  11.811  18.765  0.00  0.00    +0.000 C 
ATOM      8  C   UNL     1      -0.184  12.236  20.264  0.00  0.00    +0.000 C 
ATOM      9  C   UNL     1       0.448  10.966  20.871  0.00  0.00    +0.000 C 
ATOM     10  C   UNL     1      -0.330   9.836  20.220  0.00  0.00    +0.000 C 
ATOM     11  C   UNL     1      -0.469  10.279  18.769  0.00  0.00    +0.000 C 
ATOM     12  C   UNL     1      -1.836  10.029  18.139  0.00  0.00    +0.000 C 
BRANCH   5  13
ATOM     13  C   UNL     1      -3.555  11.344  17.057  0.00  0.00    +0.000 C 
BRANCH  13  19
ATOM     14  C   UNL     1      -7.916  13.893  17.291  0.00  0.00    +0.000 C 
ATOM     15  C   UNL     1      -7.047  12.758  17.751  0.00  0.00    +0.000 A 
ATOM     16  C   UNL     1      -7.490  11.903  18.770  0.00  0.00    +0.000 A 
ATOM     17  C   UNL     1      -6.725  10.803  19.126  0.00  0.00    +0.000 A 
ATOM     18  C   UNL     1      -5.508  10.605  18.470  0.00  0.00    +0.000 A 
ATOM     19  C   UNL     1      -4.959  11.521  17.585  0.00  0.00    +0.000 A 
ATOM     20  C   UNL     1      -5.778  12.581  17.184  0.00  0.00    +0.000 A 
ENDBRANCH  13  19
ENDBRANCH   5  13
ENDBRANCH   1   8
BRANCH   2  21
ATOM     21  C   UNL     1      -2.990  14.268  22.173  0.00  0.00    +0.000 C 
BRANCH  21  22
ATOM     22  C   UNL     1      -4.227  13.400  21.692  0.00  0.00    +0.000 C 
ATOM     23  C   UNL     1      -5.510  13.485  22.553  0.00  0.00    +0.000 C 
ATOM     24  C   UNL     1      -6.088  14.891  22.610  0.00  0.00    +0.000 C 
ATOM     25  C   UNL     1      -6.553  15.290  21.225  0.00  0.00    +0.000 C 
ATOM     26  C   UNL     1      -5.458  15.044  20.188  0.00  0.00    +0.000 C 
ATOM     27  C   UNL     1      -4.758  13.704  20.279  0.00  0.00    +0.000 C 
ENDBRANCH  21  22
BRANCH  21  28
ATOM     28  C   UNL     1      -2.613  13.988  23.720  0.00  0.00    +0.000 C 
ATOM     29  C   UNL     1      -1.190  14.476  24.099  0.00  0.00    +0.000 C 
ATOM     30  C   UNL     1      -1.116  15.993  24.254  0.00  0.00    +0.000 C 
ATOM     31  C   UNL     1      -2.069  16.507  25.328  0.00  0.00    +0.000 C 
ATOM     32  C   UNL     1      -3.488  16.003  25.105  0.00  0.00    +0.000 C 
ATOM     33  C   UNL     1      -3.503  14.490  24.892  0.00  0.00    +0.000 C 
ENDBRANCH  21  28
ENDBRANCH   2  21
TORSDOF 6
ENDMDL
MODEL 6
REMARK VINA RESULT:      -6.1      1.195      1.985
REMARK  Name = 
REMARK  7 active torsions:
REMARK  status: ('A' for Active; 'I' for Inactive)
REMARK    1  A    between atoms: C_1  and  C_2
REMARK    2  A    between atoms: C_6  and  C_7
REMARK    3  A    between atoms: C_7  and  N_8
REMARK    4  A    between atoms: C_11  and  N_12
REMARK    5  A    between atoms: C_13  and  C_15
REMARK    6  A    between atoms: C_15  and  C_16
REMARK    7  A    between atoms: C_15  and  C_22
REMARK                            x       y       z     vdW  Elec       q    Type
REMARK                         _______ _______ _______ _____ _____    ______ ____
ROOT
ATOM      1  N   UNL     1      -5.558  15.035  20.471  0.00  0.00    +0.000 N 
ATOM      2  C   UNL     1      -5.094  15.586  21.663  0.00  0.00    +0.000 C 
ATOM      3  O   UNL     1      -5.892  16.098  22.451  0.00  0.00    +0.000 OA
ATOM      4  H   UNL     1      -4.939  14.521  19.857  0.00  0.00    +0.000 HD
ENDROOT
BRANCH   1   8
ATOM      5  N   UNL     1      -5.899  12.607  18.237  0.00  0.00    +0.000 NA
ATOM      6  C   UNL     1      -6.995  12.562  19.213  0.00  0.00    +0.000 C 
ATOM      7  C   UNL     1      -7.561  13.978  19.189  0.00  0.00    +0.000 C 
ATOM      8  C   UNL     1      -6.972  15.126  20.067  0.00  0.00    +0.000 C 
ATOM      9  C   UNL     1      -7.226  16.340  19.151  0.00  0.00    +0.000 C 
ATOM     10  C   UNL     1      -6.813  15.841  17.777  0.00  0.00    +0.000 C 
ATOM     11  C   UNL     1      -7.366  14.423  17.724  0.00  0.00    +0.000 C 
ATOM     12  C   UNL     1      -6.438  13.383  17.103  0.00  0.00    +0.000 C 
BRANCH   5  13
ATOM     13  C   UNL     1      -5.439  11.281  17.763  0.00  0.00    +0.000 C 
BRANCH  13  19
ATOM     14  C   UNL     1      -0.915  12.499  19.669  0.00  0.00    +0.000 C 
ATOM     15  C   UNL     1      -1.762  11.631  18.784  0.00  0.00    +0.000 A 
ATOM     16  C   UNL     1      -1.165  10.638  17.996  0.00  0.00    +0.000 A 
ATOM     17  C   UNL     1      -1.960   9.779  17.253  0.00  0.00    +0.000 A 
ATOM     18  C   UNL     1      -3.344   9.960  17.292  0.00  0.00    +0.000 A 
ATOM     19  C   UNL     1      -3.957  11.034  17.919  0.00  0.00    +0.000 A 
ATOM     20  C   UNL     1      -3.146  11.843  18.723  0.00  0.00    +0.000 A 
ENDBRANCH  13  19
ENDBRANCH   5  13
ENDBRANCH   1   8
BRANCH   2  21
ATOM     21  C   UNL     1      -3.534  15.577  21.972  0.00  0.00    +0.000 C 
BRANCH  21  22
ATOM     22  C   UNL     1      -2.960  17.055  21.970  0.00  0.00    +0.000 C 
ATOM     23  C   UNL     1      -1.443  17.210  21.711  0.00  0.00    +0.000 C 
ATOM     24  C   UNL     1      -1.024  16.685  20.345  0.00  0.00    +0.000 C 
ATOM     25  C   UNL     1      -1.665  17.538  19.270  0.00  0.00    +0.000 C 
ATOM     26  C   UNL     1      -3.166  17.687  19.513  0.00  0.00    +0.000 C 
ATOM     27  C   UNL     1      -3.572  18.017  20.934  0.00  0.00    +0.000 C 
ENDBRANCH  21  22
BRANCH  21  28
ATOM     28  C   UNL     1      -3.316  14.840  23.395  0.00  0.00    +0.000 C 
ATOM     29  C   UNL     1      -3.996  13.447  23.471  0.00  0.00    +0.000 C 
ATOM     30  C   UNL     1      -3.229  12.382  22.690  0.00  0.00    +0.000 C 
ATOM     31  C   UNL     1      -1.802  12.214  23.199  0.00  0.00    +0.000 C 
ATOM     32  C   UNL     1      -1.068  13.547  23.258  0.00  0.00    +0.000 C 
ATOM     33  C   UNL     1      -1.901  14.596  23.991  0.00  0.00    +0.000 C 
ENDBRANCH  21  28
ENDBRANCH   2  21
TORSDOF 6
ENDMDL
MODEL 7
REMARK VINA RESULT:      -6.1      2.656      5.612
REMARK  Name = 
REMARK  7 active torsions:
REMARK  status: ('A' for Active; 'I' for Inactive)
REMARK    1  A    between atoms: C_1  and  C_2
REMARK    2  A    between atoms: C_6  and  C_7
REMARK    3  A    between atoms: C_7  and  N_8
REMARK    4  A    between atoms: C_11  and  N_12
REMARK    5  A    between atoms: C_13  and  C_15
REMARK    6  A    between atoms: C_15  and  C_16
REMARK    7  A    between atoms: C_15  and  C_22
REMARK                            x       y       z     vdW  Elec       q    Type
REMARK                         _______ _______ _______ _____ _____    ______ ____
ROOT
ATOM      1  N   UNL     1      -0.137  14.447  21.001  0.00  0.00    +0.000 N 
ATOM      2  C   UNL     1      -1.377  15.022  21.269  0.00  0.00    +0.000 C 
ATOM      3  O   UNL     1      -1.912  15.741  20.422  0.00  0.00    +0.000 OA
ATOM      4  H   UNL     1       0.276  13.775  21.636  0.00  0.00    +0.000 HD
ENDROOT
BRANCH   1   8
ATOM      5  N   UNL     1      -0.315  11.623  19.272  0.00  0.00    +0.000 NA
ATOM      6  C   UNL     1      -0.644  12.769  18.415  0.00  0.00    +0.000 C 
ATOM      7  C   UNL     1       0.542  13.711  18.599  0.00  0.00    +0.000 C 
ATOM      8  C   UNL     1       0.611  14.744  19.767  0.00  0.00    +0.000 C 
ATOM      9  C   UNL     1       2.133  14.782  20.018  0.00  0.00    +0.000 C 
ATOM     10  C   UNL     1       2.537  13.319  19.972  0.00  0.00    +0.000 C 
ATOM     11  C   UNL     1       1.737  12.757  18.805  0.00  0.00    +0.000 C 
ATOM     12  C   UNL     1       1.123  11.380  19.038  0.00  0.00    +0.000 C 
BRANCH   5  13
ATOM     13  C   UNL     1      -1.085  10.391  18.979  0.00  0.00    +0.000 C 
BRANCH  13  19
ATOM     14  C   UNL     1      -5.525  12.138  17.302  0.00  0.00    +0.000 C 
ATOM     15  C   UNL     1      -4.280  11.329  17.083  0.00  0.00    +0.000 A 
ATOM     16  C   UNL     1      -4.115  10.601  15.896  0.00  0.00    +0.000 A 
ATOM     17  C   UNL     1      -2.925   9.931  15.659  0.00  0.00    +0.000 A 
ATOM     18  C   UNL     1      -1.933   9.979  16.641  0.00  0.00    +0.000 A 
ATOM     19  C   UNL     1      -2.125  10.540  17.895  0.00  0.00    +0.000 A 
ATOM     20  C   UNL     1      -3.301  11.274  18.085  0.00  0.00    +0.000 A 
ENDBRANCH  13  19
ENDBRANCH   5  13
ENDBRANCH   1   8
BRANCH   2  21
ATOM     21  C   UNL     1      -2.065  14.771  22.680  0.00  0.00    +0.000 C 
BRANCH  21  22
ATOM     22  C   UNL     1      -2.439  13.240  22.850  0.00  0.00    +0.000 C 
ATOM     23  C   UNL     1      -3.512  12.901  23.911  0.00  0.00    +0.000 C 
ATOM     24  C   UNL     1      -4.859  13.543  23.609  0.00  0.00    +0.000 C 
ATOM     25  C   UNL     1      -5.413  12.951  22.329  0.00  0.00    +0.000 C 
ATOM     26  C   UNL     1      -4.371  12.993  21.213  0.00  0.00    +0.000 C 
ATOM     27  C   UNL     1      -2.980  12.532  21.594  0.00  0.00    +0.000 C 
ENDBRANCH  21  22
BRANCH  21  28
ATOM     28  C   UNL     1      -1.044  15.281  23.826  0.00  0.00    +0.000 C 
ATOM     29  C   UNL     1      -0.480  16.700  23.552  0.00  0.00    +0.000 C 
ATOM     30  C   UNL     1      -1.502  17.799  23.836  0.00  0.00    +0.000 C 
ATOM     31  C   UNL     1      -1.980  17.777  25.284  0.00  0.00    +0.000 C 
ATOM     32  C   UNL     1      -2.469  16.393  25.691  0.00  0.00    +0.000 C 
ATOM     33  C   UNL     1      -1.442  15.323  25.328  0.00  0.00    +0.000 C 
ENDBRANCH  21  28
ENDBRANCH   2  21
TORSDOF 6
ENDMDL
MODEL 8
REMARK VINA RESULT:      -6.0      2.661      5.444
REMARK  Name = 
REMARK  7 active torsions:
REMARK  status: ('A' for Active; 'I' for Inactive)
REMARK    1  A    between atoms: C_1  and  C_2
REMARK    2  A    between atoms: C_6  and  C_7
REMARK    3  A    between atoms: C_7  and  N_8
REMARK    4  A    between atoms: C_11  and  N_12
REMARK    5  A    between atoms: C_13  and  C_15
REMARK    6  A    between atoms: C_15  and  C_16
REMARK    7  A    between atoms: C_15  and  C_22
REMARK                            x       y       z     vdW  Elec       q    Type
REMARK                         _______ _______ _______ _____ _____    ______ ____
ROOT
ATOM      1  N   UNL     1      -0.503  14.457  21.056  0.00  0.00    +0.000 N 
ATOM      2  C   UNL     1      -1.707  15.133  21.244  0.00  0.00    +0.000 C 
ATOM      3  O   UNL     1      -2.080  15.959  20.408  0.00  0.00    +0.000 OA
ATOM      4  H   UNL     1      -0.225  13.704  21.673  0.00  0.00    +0.000 HD
ENDROOT
BRANCH   1   8
ATOM      5  N   UNL     1      -0.407  11.628  19.328  0.00  0.00    +0.000 NA
ATOM      6  C   UNL     1      -0.637  12.768  18.431  0.00  0.00    +0.000 C 
ATOM      7  C   UNL     1       0.499  13.729  18.767  0.00  0.00    +0.000 C 
ATOM      8  C   UNL     1       0.397  14.764  19.931  0.00  0.00    +0.000 C 
ATOM      9  C   UNL     1       1.871  14.827  20.381  0.00  0.00    +0.000 C 
ATOM     10  C   UNL     1       2.301  13.370  20.394  0.00  0.00    +0.000 C 
ATOM     11  C   UNL     1       1.671  12.794  19.133  0.00  0.00    +0.000 C 
ATOM     12  C   UNL     1       1.052  11.408  19.287  0.00  0.00    +0.000 C 
BRANCH   5  13
ATOM     13  C   UNL     1      -1.112  10.385  18.939  0.00  0.00    +0.000 C 
BRANCH  13  19
ATOM     14  C   UNL     1      -3.010   9.981  14.269  0.00  0.00    +0.000 C 
ATOM     15  C   UNL     1      -3.145  10.439  15.692  0.00  0.00    +0.000 A 
ATOM     16  C   UNL     1      -4.279  11.160  16.092  0.00  0.00    +0.000 A 
ATOM     17  C   UNL     1      -4.442  11.500  17.427  0.00  0.00    +0.000 A 
ATOM     18  C   UNL     1      -3.440  11.135  18.328  0.00  0.00    +0.000 A 
ATOM     19  C   UNL     1      -2.230  10.578  17.942  0.00  0.00    +0.000 A 
ATOM     20  C   UNL     1      -2.117  10.175  16.607  0.00  0.00    +0.000 A 
ENDBRANCH  13  19
ENDBRANCH   5  13
ENDBRANCH   1   8
BRANCH   2  21
ATOM     21  C   UNL     1      -2.563  14.852  22.554  0.00  0.00    +0.000 C 
BRANCH  21  22
ATOM     22  C   UNL     1      -2.824  13.298  22.724  0.00  0.00    +0.000 C 
ATOM     23  C   UNL     1      -3.776  12.875  23.867  0.00  0.00    +0.000 C 
ATOM     24  C   UNL     1      -5.182  13.434  23.698  0.00  0.00    +0.000 C 
ATOM     25  C   UNL     1      -5.808  12.828  22.459  0.00  0.00    +0.000 C 
ATOM     26  C   UNL     1      -4.875  12.953  21.257  0.00  0.00    +0.000 C 
ATOM     27  C   UNL     1      -3.429  12.576  21.506  0.00  0.00    +0.000 C 
ENDBRANCH  21  22
BRANCH  21  28
ATOM     28  C   UNL     1      -1.761  15.478  23.812  0.00  0.00    +0.000 C 
ATOM     29  C   UNL     1      -1.171  16.883  23.521  0.00  0.00    +0.000 C 
ATOM     30  C   UNL     1      -2.238  17.976  23.532  0.00  0.00    +0.000 C 
ATOM     31  C   UNL     1      -2.960  18.060  24.873  0.00  0.00    +0.000 C 
ATOM     32  C   UNL     1      -3.499  16.702  25.304  0.00  0.00    +0.000 C 
ATOM     33  C   UNL     1      -2.413  15.631  25.215  0.00  0.00    +0.000 C 
ENDBRANCH  21  28
ENDBRANCH   2  21
TORSDOF 6
ENDMDL
MODEL 9
REMARK VINA RESULT:      -5.9      2.112      5.380
REMARK  Name = 
REMARK  7 active torsions:
REMARK  status: ('A' for Active; 'I' for Inactive)
REMARK    1  A    between atoms: C_1  and  C_2
REMARK    2  A    between atoms: C_6  and  C_7
REMARK    3  A    between atoms: C_7  and  N_8
REMARK    4  A    between atoms: C_11  and  N_12
REMARK    5  A    between atoms: C_13  and  C_15
REMARK    6  A    between atoms: C_15  and  C_16
REMARK    7  A    between atoms: C_15  and  C_22
REMARK                            x       y       z     vdW  Elec       q    Type
REMARK                         _______ _______ _______ _____ _____    ______ ____
ROOT
ATOM      1  N   UNL     1      -1.300  12.497  20.960  0.00  0.00    +0.000 N 
ATOM      2  C   UNL     1      -1.910  13.750  21.003  0.00  0.00    +0.000 C 
ATOM      3  O   UNL     1      -1.442  14.679  20.341  0.00  0.00    +0.000 OA
ATOM      4  H   UNL     1      -1.721  11.696  21.413  0.00  0.00    +0.000 HD
ENDROOT
BRANCH   1   8
ATOM      5  N   UNL     1      -2.325  11.286  18.048  0.00  0.00    +0.000 NA
ATOM      6  C   UNL     1      -1.329  12.346  17.840  0.00  0.00    +0.000 C 
ATOM      7  C   UNL     1      -0.149  11.909  18.702  0.00  0.00    +0.000 C 
ATOM      8  C   UNL     1      -0.049  12.264  20.219  0.00  0.00    +0.000 C 
ATOM      9  C   UNL     1       0.704  11.026  20.747  0.00  0.00    +0.000 C 
ATOM     10  C   UNL     1       0.015   9.866  20.051  0.00  0.00    +0.000 C 
ATOM     11  C   UNL     1      -0.196  10.368  18.629  0.00  0.00    +0.000 C 
ATOM     12  C   UNL     1      -1.549  10.031  18.011  0.00  0.00    +0.000 C 
BRANCH   5  13
ATOM     13  C   UNL     1      -3.400  11.241  17.030  0.00  0.00    +0.000 C 
BRANCH  13  19
ATOM     14  C   UNL     1      -7.308   9.895  19.945  0.00  0.00    +0.000 C 
ATOM     15  C   UNL     1      -6.702  10.818  18.927  0.00  0.00    +0.000 A 
ATOM     16  C   UNL     1      -7.468  11.855  18.376  0.00  0.00    +0.000 A 
ATOM     17  C   UNL     1      -6.877  12.760  17.508  0.00  0.00    +0.000 A 
ATOM     18  C   UNL     1      -5.530  12.581  17.184  0.00  0.00    +0.000 A 
ATOM     19  C   UNL     1      -4.791  11.473  17.570  0.00  0.00    +0.000 A 
ATOM     20  C   UNL     1      -5.381  10.615  18.504  0.00  0.00    +0.000 A 
ENDBRANCH  13  19
ENDBRANCH   5  13
ENDBRANCH   1   8
BRANCH   2  21
ATOM     21  C   UNL     1      -3.179  13.968  21.936  0.00  0.00    +0.000 C 
BRANCH  21  22
ATOM     22  C   UNL     1      -3.165  15.427  22.558  0.00  0.00    +0.000 C 
ATOM     23  C   UNL     1      -3.865  15.604  23.926  0.00  0.00    +0.000 C 
ATOM     24  C   UNL     1      -3.229  14.765  25.025  0.00  0.00    +0.000 C 
ATOM     25  C   UNL     1      -1.819  15.260  25.271  0.00  0.00    +0.000 C 
ATOM     26  C   UNL     1      -1.042  15.371  23.960  0.00  0.00    +0.000 C 
ATOM     27  C   UNL     1      -1.775  16.039  22.816  0.00  0.00    +0.000 C 
ENDBRANCH  21  22
BRANCH  21  28
ATOM     28  C   UNL     1      -4.500  13.698  21.044  0.00  0.00    +0.000 C 
ATOM     29  C   UNL     1      -5.429  12.608  21.644  0.00  0.00    +0.000 C 
ATOM     30  C   UNL     1      -6.223  13.117  22.844  0.00  0.00    +0.000 C 
ATOM     31  C   UNL     1      -7.103  14.310  22.487  0.00  0.00    +0.000 C 
ATOM     32  C   UNL     1      -6.304  15.408  21.798  0.00  0.00    +0.000 C 
ATOM     33  C   UNL     1      -5.477  14.840  20.646  0.00  0.00    +0.000 C 
ENDBRANCH  21  28
ENDBRANCH   2  21
TORSDOF 6
ENDMDL
