MODEL 1
REMARK VINA RESULT:      -9.6      0.000      0.000
REMARK  Name = 
REMARK  5 active torsions:
REMARK  status: ('A' for Active; 'I' for Inactive)
REMARK    1  A    between atoms: N_3  and  C_4
REMARK    2  A    between atoms: C_4  and  C_5
REMARK    3  A    between atoms: N_9  and  C_10
REMARK    4  A    between atoms: C_14  and  C_15
REMARK    5  A    between atoms: C_20  and  C_21
REMARK                            x       y       z     vdW  Elec       q    Type
REMARK                         _______ _______ _______ _____ _____    ______ ____
ROOT
ATOM      1  C   UNL     1       2.374   7.613  18.570  0.00  0.00    +0.000 A 
ATOM      2  C   UNL     1       2.435   8.476  17.483  0.00  0.00    +0.000 A 
ATOM      3  N   UNL     1       1.823   9.672  17.730  0.00  0.00    +0.000 NA
ATOM      4  C   UNL     1       1.390   9.580  18.966  0.00  0.00    +0.000 A 
ATOM      5  C   UNL     1       0.717  10.549  19.766  0.00  0.00    +0.000 A 
ATOM      6  C   UNL     1       0.419  10.302  21.067  0.00  0.00    +0.000 A 
ATOM      7  C   UNL     1       0.733   8.974  21.616  0.00  0.00    +0.000 A 
ATOM      8  C   UNL     1       1.382   8.063  20.871  0.00  0.00    +0.000 A 
ATOM      9  N   UNL     1       1.709   8.354  19.545  0.00  0.00    +0.000 N 
ENDROOT
BRANCH   6  10
ATOM     10  C   UNL     1      -0.168  11.378  21.911  0.00  0.00    +0.000 A 
ATOM     11  C   UNL     1      -1.383  11.239  22.565  0.00  0.00    +0.000 A 
ATOM     12  C   UNL     1      -1.929  12.327  23.244  0.00  0.00    +0.000 A 
ATOM     13  C   UNL     1      -1.274  13.550  23.246  0.00  0.00    +0.000 A 
ATOM     14  N   UNL     1      -1.888  14.651  23.873  0.00  0.00    +0.000 N 
ATOM     15  C   UNL     1      -1.353  15.967  24.021  0.00  0.00    +0.000 C 
ATOM     16  C   UNL     1      -1.878  15.979  25.454  0.00  0.00    +0.000 C 
ATOM     17  C   UNL     1      -2.534  14.638  25.149  0.00  0.00    +0.000 C 
ATOM     18  N   UNL     1      -0.095  13.660  22.599  0.00  0.00    +0.000 NA
ATOM     19  N   UNL     1       0.466  12.570  21.933  0.00  0.00    +0.000 NA
ENDBRANCH   6  10
BRANCH   1  24
ATOM     20  C   UNL     1       4.091   4.307  17.778  0.00  0.00    +0.000 A 
ATOM     21  C   UNL     1       3.981   3.669  19.012  0.00  0.00    +0.000 A 
ATOM     22  C   UNL     1       3.371   4.313  20.087  0.00  0.00    +0.000 A 
ATOM     23  C   UNL     1       2.846   5.595  19.927  0.00  0.00    +0.000 A 
ATOM     24  C   UNL     1       2.937   6.261  18.696  0.00  0.00    +0.000 A 
ATOM     25  C   UNL     1       3.600   5.616  17.639  0.00  0.00    +0.000 A 
BRANCH  20  29
ATOM     26  O   UNL     1       5.792   5.505  15.670  0.00  0.00    +0.000 OA
ATOM     27  C   UNL     1       5.442   4.333  15.685  0.00  0.00    +0.000 C 
ATOM     28  N   UNL     1       5.829   3.451  14.696  0.00  0.00    +0.000 N 
ATOM     29  N   UNL     1       4.683   3.702  16.647  0.00  0.00    +0.000 N 
ATOM     30  H   UNL     1       5.151   2.731  14.482  0.00  0.00    +0.000 HD
ATOM     31  H   UNL     1       4.714   2.695  16.633  0.00  0.00    +0.000 HD
BRANCH  28  32
ATOM     32  C   UNL     1       6.582   3.979  13.552  0.00  0.00    +0.000 C 
BRANCH  32  33
ATOM     33  C   UNL     1       6.270   3.324  12.198  0.00  0.00    +0.000 C 
ATOM     34  F   UNL     1       5.841   2.049  12.341  0.00  0.00    +0.000 F 
ATOM     35  F   UNL     1       5.342   4.006  11.497  0.00  0.00    +0.000 F 
ATOM     36  F   UNL     1       7.395   3.273  11.441  0.00  0.00    +0.000 F 
ENDBRANCH  32  33
ENDBRANCH  28  32
ENDBRANCH  20  29
ENDBRANCH   1  24
TORSDOF 5
ENDMDL
MODEL 2
REMARK VINA RESULT:      -9.5      1.335      1.529
REMARK  Name = 
REMARK  5 active torsions:
REMARK  status: ('A' for Active; 'I' for Inactive)
REMARK    1  A    between atoms: N_3  and  C_4
REMARK    2  A    between atoms: C_4  and  C_5
REMARK    3  A    between atoms: N_9  and  C_10
REMARK    4  A    between atoms: C_14  and  C_15
REMARK    5  A    between atoms: C_20  and  C_21
REMARK                            x       y       z     vdW  Elec       q    Type
REMARK                         _______ _______ _______ _____ _____    ______ ____
ROOT
ATOM      1  C   UNL     1       1.799   7.993  19.378  0.00  0.00    +0.000 A 
ATOM      2  C   UNL     1       2.004   8.780  18.252  0.00  0.00    +0.000 A 
ATOM      3  N   UNL     1       1.489  10.037  18.391  0.00  0.00    +0.000 NA
ATOM      4  C   UNL     1       0.974  10.058  19.600  0.00  0.00    +0.000 A 
ATOM      5  C   UNL     1       0.342  11.128  20.299  0.00  0.00    +0.000 A 
ATOM      6  C   UNL     1      -0.056  10.986  21.588  0.00  0.00    +0.000 A 
ATOM      7  C   UNL     1       0.103   9.671  22.229  0.00  0.00    +0.000 A 
ATOM      8  C   UNL     1       0.712   8.665  21.580  0.00  0.00    +0.000 A 
ATOM      9  N   UNL     1       1.145   8.846  20.264  0.00  0.00    +0.000 N 
ENDROOT
BRANCH   6  10
ATOM     10  C   UNL     1      -0.594  12.158  22.332  0.00  0.00    +0.000 A 
ATOM     11  C   UNL     1      -1.859  12.168  22.899  0.00  0.00    +0.000 A 
ATOM     12  C   UNL     1      -2.346  13.338  23.480  0.00  0.00    +0.000 A 
ATOM     13  C   UNL     1      -1.578  14.494  23.469  0.00  0.00    +0.000 A 
ATOM     14  N   UNL     1      -2.126  15.681  23.993  0.00  0.00    +0.000 N 
ATOM     15  C   UNL     1      -1.480  16.949  24.114  0.00  0.00    +0.000 C 
ATOM     16  C   UNL     1      -2.100  17.091  25.501  0.00  0.00    +0.000 C 
ATOM     17  C   UNL     1      -2.858  15.800  25.216  0.00  0.00    +0.000 C 
ATOM     18  N   UNL     1      -0.352  14.459  22.907  0.00  0.00    +0.000 NA
ATOM     19  N   UNL     1       0.147  13.287  22.340  0.00  0.00    +0.000 NA
ENDBRANCH   6  10
BRANCH   1  24
ATOM     20  C   UNL     1       3.501   4.606  19.005  0.00  0.00    +0.000 A 
ATOM     21  C   UNL     1       3.000   3.953  20.131  0.00  0.00    +0.000 A 
ATOM     22  C   UNL     1       2.136   4.611  21.003  0.00  0.00    +0.000 A 
ATOM     23  C   UNL     1       1.748   5.925  20.742  0.00  0.00    +0.000 A 
ATOM     24  C   UNL     1       2.230   6.608  19.615  0.00  0.00    +0.000 A 
ATOM     25  C   UNL     1       3.140   5.944  18.776  0.00  0.00    +0.000 A 
BRANCH  20  29
ATOM     26  O   UNL     1       5.817   5.734  17.544  0.00  0.00    +0.000 OA
ATOM     27  C   UNL     1       5.412   4.588  17.408  0.00  0.00    +0.000 C 
ATOM     28  N   UNL     1       6.023   3.703  16.542  0.00  0.00    +0.000 N 
ATOM     29  N   UNL     1       4.366   3.987  18.076  0.00  0.00    +0.000 N 
ATOM     30  H   UNL     1       5.400   3.036  16.108  0.00  0.00    +0.000 HD
ATOM     31  H   UNL     1       4.341   2.981  18.031  0.00  0.00    +0.000 HD
BRANCH  28  32
ATOM     32  C   UNL     1       7.112   4.205  15.694  0.00  0.00    +0.000 C 
BRANCH  32  33
ATOM     33  C   UNL     1       6.690   4.698  14.302  0.00  0.00    +0.000 C 
ATOM     34  F   UNL     1       6.300   3.678  13.502  0.00  0.00    +0.000 F 
ATOM     35  F   UNL     1       5.689   5.599  14.354  0.00  0.00    +0.000 F 
ATOM     36  F   UNL     1       7.742   5.294  13.686  0.00  0.00    +0.000 F 
ENDBRANCH  32  33
ENDBRANCH  28  32
ENDBRANCH  20  29
ENDBRANCH   1  24
TORSDOF 5
ENDMDL
MODEL 3
REMARK VINA RESULT:      -9.4      0.856      1.300
REMARK  Name = 
REMARK  5 active torsions:
REMARK  status: ('A' for Active; 'I' for Inactive)
REMARK    1  A    between atoms: N_3  and  C_4
REMARK    2  A    between atoms: C_4  and  C_5
REMARK    3  A    between atoms: N_9  and  C_10
REMARK    4  A    between atoms: C_14  and  C_15
REMARK    5  A    between atoms: C_20  and  C_21
REMARK                            x       y       z     vdW  Elec       q    Type
REMARK                         _______ _______ _______ _____ _____    ______ ____
ROOT
ATOM      1  C   UNL     1       2.283   7.708  18.636  0.00  0.00    +0.000 A 
ATOM      2  C   UNL     1       2.460   8.532  17.532  0.00  0.00    +0.000 A 
ATOM      3  N   UNL     1       1.879   9.757  17.696  0.00  0.00    +0.000 NA
ATOM      4  C   UNL     1       1.351   9.722  18.898  0.00  0.00    +0.000 A 
ATOM      5  C   UNL     1       0.660  10.741  19.615  0.00  0.00    +0.000 A 
ATOM      6  C   UNL     1       0.256  10.548  20.896  0.00  0.00    +0.000 A 
ATOM      7  C   UNL     1       0.474   9.227  21.507  0.00  0.00    +0.000 A 
ATOM      8  C   UNL     1       1.140   8.269  20.841  0.00  0.00    +0.000 A 
ATOM      9  N   UNL     1       1.577   8.504  19.535  0.00  0.00    +0.000 N 
ENDROOT
BRANCH   6  10
ATOM     10  C   UNL     1      -0.349  11.672  21.661  0.00  0.00    +0.000 A 
ATOM     11  C   UNL     1       0.139  12.968  21.600  0.00  0.00    +0.000 A 
ATOM     12  C   UNL     1      -0.401  13.949  22.430  0.00  0.00    +0.000 A 
ATOM     13  C   UNL     1      -1.405  13.625  23.331  0.00  0.00    +0.000 A 
ATOM     14  N   UNL     1      -1.877  14.618  24.212  0.00  0.00    +0.000 N 
ATOM     15  C   UNL     1      -2.930  14.492  25.168  0.00  0.00    +0.000 C 
ATOM     16  C   UNL     1      -3.426  15.873  24.748  0.00  0.00    +0.000 C 
ATOM     17  C   UNL     1      -2.189  15.970  23.864  0.00  0.00    +0.000 C 
ATOM     18  N   UNL     1      -1.861  12.356  23.374  0.00  0.00    +0.000 NA
ATOM     19  N   UNL     1      -1.337  11.374  22.533  0.00  0.00    +0.000 NA
ENDBRANCH   6  10
BRANCH   1  24
ATOM     20  C   UNL     1       4.037   4.365  18.127  0.00  0.00    +0.000 A 
ATOM     21  C   UNL     1       3.686   3.719  19.311  0.00  0.00    +0.000 A 
ATOM     22  C   UNL     1       2.905   4.368  20.265  0.00  0.00    +0.000 A 
ATOM     23  C   UNL     1       2.449   5.665  20.029  0.00  0.00    +0.000 A 
ATOM     24  C   UNL     1       2.781   6.340  18.845  0.00  0.00    +0.000 A 
ATOM     25  C   UNL     1       3.611   5.687  17.919  0.00  0.00    +0.000 A 
BRANCH  20  29
ATOM     26  O   UNL     1       5.441   5.593  15.827  0.00  0.00    +0.000 OA
ATOM     27  C   UNL     1       5.414   4.391  16.051  0.00  0.00    +0.000 C 
ATOM     28  N   UNL     1       6.059   3.488  15.231  0.00  0.00    +0.000 N 
ATOM     29  N   UNL     1       4.812   3.755  17.116  0.00  0.00    +0.000 N 
ATOM     30  H   UNL     1       5.606   2.587  15.152  0.00  0.00    +0.000 HD
ATOM     31  H   UNL     1       5.109   2.806  17.280  0.00  0.00    +0.000 HD
BRANCH  28  32
ATOM     32  C   UNL     1       6.691   3.993  14.005  0.00  0.00    +0.000 C 
BRANCH  32  33
ATOM     33  C   UNL     1       6.010   3.576  12.692  0.00  0.00    +0.000 C 
ATOM     34  F   UNL     1       6.563   4.190  11.620  0.00  0.00    +0.000 F 
ATOM     35  F   UNL     1       6.058   2.244  12.487  0.00  0.00    +0.000 F 
ATOM     36  F   UNL     1       4.703   3.937  12.716  0.00  0.00    +0.000 F 
ENDBRANCH  32  33
ENDBRANCH  28  32
ENDBRANCH  20  29
ENDBRANCH   1  24
TORSDOF 5
ENDMDL
MODEL 4
REMARK VINA RESULT:      -8.9      1.809      2.234
REMARK  Name = 
REMARK  5 active torsions:
REMARK  status: ('A' for Active; 'I' for Inactive)
REMARK    1  A    between atoms: N_3  and  C_4
REMARK    2  A    between atoms: C_4  and  C_5
REMARK    3  A    between atoms: N_9  and  C_10
REMARK    4  A    between atoms: C_14  and  C_15
REMARK    5  A    between atoms: C_20  and  C_21
REMARK                            x       y       z     vdW  Elec       q    Type
REMARK                         _______ _______ _______ _____ _____    ______ ____
ROOT
ATOM      1  C   UNL     1       1.551   8.568  19.312  0.00  0.00    +0.000 A 
ATOM      2  C   UNL     1       1.727   9.384  18.202  0.00  0.00    +0.000 A 
ATOM      3  N   UNL     1       1.030  10.554  18.296  0.00  0.00    +0.000 NA
ATOM      4  C   UNL     1       0.428  10.494  19.462  0.00  0.00    +0.000 A 
ATOM      5  C   UNL     1      -0.399  11.459  20.107  0.00  0.00    +0.000 A 
ATOM      6  C   UNL     1      -0.869  11.255  21.364  0.00  0.00    +0.000 A 
ATOM      7  C   UNL     1      -0.574   9.971  22.020  0.00  0.00    +0.000 A 
ATOM      8  C   UNL     1       0.218   9.065  21.423  0.00  0.00    +0.000 A 
ATOM      9  N   UNL     1       0.719   9.314  20.143  0.00  0.00    +0.000 N 
ENDROOT
BRANCH   6  10
ATOM     10  C   UNL     1      -1.622  12.333  22.059  0.00  0.00    +0.000 A 
ATOM     11  C   UNL     1      -1.092  13.053  23.119  0.00  0.00    +0.000 A 
ATOM     12  C   UNL     1      -1.893  13.969  23.800  0.00  0.00    +0.000 A 
ATOM     13  C   UNL     1      -3.220  14.142  23.435  0.00  0.00    +0.000 A 
ATOM     14  N   UNL     1      -4.026  15.016  24.191  0.00  0.00    +0.000 N 
ATOM     15  C   UNL     1      -5.390  15.361  23.944  0.00  0.00    +0.000 C 
ATOM     16  C   UNL     1      -5.044  16.810  24.270  0.00  0.00    +0.000 C 
ATOM     17  C   UNL     1      -3.653  16.319  24.649  0.00  0.00    +0.000 C 
ATOM     18  N   UNL     1      -3.713  13.427  22.403  0.00  0.00    +0.000 NA
ATOM     19  N   UNL     1      -2.912  12.522  21.706  0.00  0.00    +0.000 NA
ENDBRANCH   6  10
BRANCH   1  24
ATOM     20  C   UNL     1       3.824   5.515  19.167  0.00  0.00    +0.000 A 
ATOM     21  C   UNL     1       3.246   4.729  20.163  0.00  0.00    +0.000 A 
ATOM     22  C   UNL     1       2.145   5.194  20.878  0.00  0.00    +0.000 A 
ATOM     23  C   UNL     1       1.599   6.444  20.587  0.00  0.00    +0.000 A 
ATOM     24  C   UNL     1       2.155   7.256  19.587  0.00  0.00    +0.000 A 
ATOM     25  C   UNL     1       3.295   6.791  18.911  0.00  0.00    +0.000 A 
BRANCH  20  29
ATOM     26  O   UNL     1       3.884   4.225  16.502  0.00  0.00    +0.000 OA
ATOM     27  C   UNL     1       4.880   4.467  17.169  0.00  0.00    +0.000 C 
ATOM     28  N   UNL     1       6.146   4.153  16.717  0.00  0.00    +0.000 N 
ATOM     29  N   UNL     1       4.930   5.093  18.397  0.00  0.00    +0.000 N 
ATOM     30  H   UNL     1       6.804   3.898  17.442  0.00  0.00    +0.000 HD
ATOM     31  H   UNL     1       5.836   5.438  18.672  0.00  0.00    +0.000 HD
BRANCH  28  32
ATOM     32  C   UNL     1       6.268   3.413  15.455  0.00  0.00    +0.000 C 
BRANCH  32  33
ATOM     33  C   UNL     1       6.399   4.278  14.193  0.00  0.00    +0.000 C 
ATOM     34  F   UNL     1       5.260   4.958  13.927  0.00  0.00    +0.000 F 
ATOM     35  F   UNL     1       7.410   5.165  14.277  0.00  0.00    +0.000 F 
ATOM     36  F   UNL     1       6.641   3.488  13.116  0.00  0.00    +0.000 F 
ENDBRANCH  32  33
ENDBRANCH  28  32
ENDBRANCH  20  29
ENDBRANCH   1  24
TORSDOF 5
ENDMDL
MODEL 5
REMARK VINA RESULT:      -8.8      2.807      3.560
REMARK  Name = 
REMARK  5 active torsions:
REMARK  status: ('A' for Active; 'I' for Inactive)
REMARK    1  A    between atoms: N_3  and  C_4
REMARK    2  A    between atoms: C_4  and  C_5
REMARK    3  A    between atoms: N_9  and  C_10
REMARK    4  A    between atoms: C_14  and  C_15
REMARK    5  A    between atoms: C_20  and  C_21
REMARK                            x       y       z     vdW  Elec       q    Type
REMARK                         _______ _______ _______ _____ _____    ______ ____
ROOT
ATOM      1  C   UNL     1       2.044   6.067  19.619  0.00  0.00    +0.000 A 
ATOM      2  C   UNL     1       1.617   6.105  20.941  0.00  0.00    +0.000 A 
ATOM      3  N   UNL     1       1.346   7.374  21.366  0.00  0.00    +0.000 NA
ATOM      4  C   UNL     1       1.582   8.137  20.322  0.00  0.00    +0.000 A 
ATOM      5  C   UNL     1       1.424   9.546  20.173  0.00  0.00    +0.000 A 
ATOM      6  C   UNL     1       1.638  10.154  18.979  0.00  0.00    +0.000 A 
ATOM      7  C   UNL     1       2.120   9.337  17.854  0.00  0.00    +0.000 A 
ATOM      8  C   UNL     1       2.255   8.007  17.985  0.00  0.00    +0.000 A 
ATOM      9  N   UNL     1       1.994   7.399  19.216  0.00  0.00    +0.000 N 
ENDROOT
BRANCH   6  10
ATOM     10  C   UNL     1       1.342  11.604  18.822  0.00  0.00    +0.000 A 
ATOM     11  C   UNL     1       2.308  12.532  18.465  0.00  0.00    +0.000 A 
ATOM     12  C   UNL     1       1.990  13.889  18.449  0.00  0.00    +0.000 A 
ATOM     13  C   UNL     1       0.719  14.312  18.812  0.00  0.00    +0.000 A 
ATOM     14  N   UNL     1       0.450  15.693  18.862  0.00  0.00    +0.000 N 
ATOM     15  C   UNL     1      -0.800  16.317  19.162  0.00  0.00    +0.000 C 
ATOM     16  C   UNL     1      -0.538  17.303  18.027  0.00  0.00    +0.000 C 
ATOM     17  C   UNL     1       0.836  16.661  17.882  0.00  0.00    +0.000 C 
ATOM     18  N   UNL     1      -0.202  13.390  19.159  0.00  0.00    +0.000 NA
ATOM     19  N   UNL     1       0.105  12.029  19.159  0.00  0.00    +0.000 NA
ENDBRANCH   6  10
BRANCH   1  24
ATOM     20  C   UNL     1       3.915   3.669  17.326  0.00  0.00    +0.000 A 
ATOM     21  C   UNL     1       3.001   2.619  17.268  0.00  0.00    +0.000 A 
ATOM     22  C   UNL     1       1.803   2.685  17.976  0.00  0.00    +0.000 A 
ATOM     23  C   UNL     1       1.501   3.817  18.733  0.00  0.00    +0.000 A 
ATOM     24  C   UNL     1       2.398   4.893  18.808  0.00  0.00    +0.000 A 
ATOM     25  C   UNL     1       3.623   4.785  18.127  0.00  0.00    +0.000 A 
BRANCH  20  29
ATOM     26  O   UNL     1       4.746   5.294  14.994  0.00  0.00    +0.000 OA
ATOM     27  C   UNL     1       5.444   4.435  15.515  0.00  0.00    +0.000 C 
ATOM     28  N   UNL     1       6.711   4.152  15.046  0.00  0.00    +0.000 N 
ATOM     29  N   UNL     1       5.138   3.667  16.618  0.00  0.00    +0.000 N 
ATOM     30  H   UNL     1       6.993   3.185  15.143  0.00  0.00    +0.000 HD
ATOM     31  H   UNL     1       5.918   3.207  17.058  0.00  0.00    +0.000 HD
BRANCH  28  32
ATOM     32  C   UNL     1       7.167   4.830  13.827  0.00  0.00    +0.000 C 
BRANCH  32  33
ATOM     33  C   UNL     1       6.824   4.119  12.509  0.00  0.00    +0.000 C 
ATOM     34  F   UNL     1       5.490   4.084  12.287  0.00  0.00    +0.000 F 
ATOM     35  F   UNL     1       7.415   4.694  11.443  0.00  0.00    +0.000 F 
ATOM     36  F   UNL     1       7.244   2.829  12.559  0.00  0.00    +0.000 F 
ENDBRANCH  32  33
ENDBRANCH  28  32
ENDBRANCH  20  29
ENDBRANCH   1  24
TORSDOF 5
ENDMDL
MODEL 6
REMARK VINA RESULT:      -8.7      1.513      1.818
REMARK  Name = 
REMARK  5 active torsions:
REMARK  status: ('A' for Active; 'I' for Inactive)
REMARK    1  A    between atoms: N_3  and  C_4
REMARK    2  A    between atoms: C_4  and  C_5
REMARK    3  A    between atoms: N_9  and  C_10
REMARK    4  A    between atoms: C_14  and  C_15
REMARK    5  A    between atoms: C_20  and  C_21
REMARK                            x       y       z     vdW  Elec       q    Type
REMARK                         _______ _______ _______ _____ _____    ______ ____
ROOT
ATOM      1  C   UNL     1       1.887   8.187  19.079  0.00  0.00    +0.000 A 
ATOM      2  C   UNL     1       2.285   8.958  17.994  0.00  0.00    +0.000 A 
ATOM      3  N   UNL     1       1.773  10.223  18.035  0.00  0.00    +0.000 NA
ATOM      4  C   UNL     1       1.069  10.266  19.142  0.00  0.00    +0.000 A 
ATOM      5  C   UNL     1       0.349  11.353  19.719  0.00  0.00    +0.000 A 
ATOM      6  C   UNL     1      -0.255  11.233  20.928  0.00  0.00    +0.000 A 
ATOM      7  C   UNL     1      -0.223   9.924  21.599  0.00  0.00    +0.000 A 
ATOM      8  C   UNL     1       0.467   8.901  21.068  0.00  0.00    +0.000 A 
ATOM      9  N   UNL     1       1.111   9.060  19.838  0.00  0.00    +0.000 N 
ENDROOT
BRANCH   6  10
ATOM     10  C   UNL     1      -0.889  12.421  21.562  0.00  0.00    +0.000 A 
ATOM     11  C   UNL     1      -1.171  12.485  22.918  0.00  0.00    +0.000 A 
ATOM     12  C   UNL     1      -1.871  13.579  23.426  0.00  0.00    +0.000 A 
ATOM     13  C   UNL     1      -2.304  14.586  22.576  0.00  0.00    +0.000 A 
ATOM     14  N   UNL     1      -3.076  15.639  23.105  0.00  0.00    +0.000 N 
ATOM     15  C   UNL     1      -3.569  16.783  22.405  0.00  0.00    +0.000 C 
ATOM     16  C   UNL     1      -3.177  17.639  23.606  0.00  0.00    +0.000 C 
ATOM     17  C   UNL     1      -2.814  16.345  24.321  0.00  0.00    +0.000 C 
ATOM     18  N   UNL     1      -2.021  14.498  21.260  0.00  0.00    +0.000 NA
ATOM     19  N   UNL     1      -1.306  13.415  20.748  0.00  0.00    +0.000 NA
ENDBRANCH   6  10
BRANCH   1  24
ATOM     20  C   UNL     1       3.328   4.669  18.851  0.00  0.00    +0.000 A 
ATOM     21  C   UNL     1       2.901   4.148  20.072  0.00  0.00    +0.000 A 
ATOM     22  C   UNL     1       2.170   4.935  20.959  0.00  0.00    +0.000 A 
ATOM     23  C   UNL     1       1.842   6.247  20.620  0.00  0.00    +0.000 A 
ATOM     24  C   UNL     1       2.252   6.799  19.397  0.00  0.00    +0.000 A 
ATOM     25  C   UNL     1       3.030   6.005  18.538  0.00  0.00    +0.000 A 
BRANCH  20  29
ATOM     26  O   UNL     1       5.712   5.431  17.268  0.00  0.00    +0.000 OA
ATOM     27  C   UNL     1       5.145   4.350  17.178  0.00  0.00    +0.000 C 
ATOM     28  N   UNL     1       5.589   3.371  16.311  0.00  0.00    +0.000 N 
ATOM     29  N   UNL     1       4.057   3.916  17.904  0.00  0.00    +0.000 N 
ATOM     30  H   UNL     1       4.860   2.789  15.920  0.00  0.00    +0.000 HD
ATOM     31  H   UNL     1       3.890   2.923  17.886  0.00  0.00    +0.000 HD
BRANCH  28  32
ATOM     32  C   UNL     1       6.698   3.698  15.407  0.00  0.00    +0.000 C 
BRANCH  32  33
ATOM     33  C   UNL     1       6.289   4.258  14.036  0.00  0.00    +0.000 C 
ATOM     34  F   UNL     1       6.652   5.554  13.892  0.00  0.00    +0.000 F 
ATOM     35  F   UNL     1       6.817   3.556  13.013  0.00  0.00    +0.000 F 
ATOM     36  F   UNL     1       4.939   4.214  13.905  0.00  0.00    +0.000 F 
ENDBRANCH  32  33
ENDBRANCH  28  32
ENDBRANCH  20  29
ENDBRANCH   1  24
TORSDOF 5
ENDMDL
MODEL 7
REMARK VINA RESULT:      -8.6      2.513      3.268
REMARK  Name = 
REMARK  5 active torsions:
REMARK  status: ('A' for Active; 'I' for Inactive)
REMARK    1  A    between atoms: N_3  and  C_4
REMARK    2  A    between atoms: C_4  and  C_5
REMARK    3  A    between atoms: N_9  and  C_10
REMARK    4  A    between atoms: C_14  and  C_15
REMARK    5  A    between atoms: C_20  and  C_21
REMARK                            x       y       z     vdW  Elec       q    Type
REMARK                         _______ _______ _______ _____ _____    ______ ____
ROOT
ATOM      1  C   UNL     1       2.076   6.919  19.588  0.00  0.00    +0.000 A 
ATOM      2  C   UNL     1       1.522   6.796  20.856  0.00  0.00    +0.000 A 
ATOM      3  N   UNL     1       1.039   7.981  21.333  0.00  0.00    +0.000 NA
ATOM      4  C   UNL     1       1.268   8.849  20.375  0.00  0.00    +0.000 A 
ATOM      5  C   UNL     1       0.934  10.232  20.304  0.00  0.00    +0.000 A 
ATOM      6  C   UNL     1       1.178  10.958  19.183  0.00  0.00    +0.000 A 
ATOM      7  C   UNL     1       1.874  10.303  18.064  0.00  0.00    +0.000 A 
ATOM      8  C   UNL     1       2.176   8.996  18.120  0.00  0.00    +0.000 A 
ATOM      9  N   UNL     1       1.883   8.262  19.271  0.00  0.00    +0.000 N 
ENDROOT
BRANCH   6  10
ATOM     10  C   UNL     1       0.702  12.365  19.092  0.00  0.00    +0.000 A 
ATOM     11  C   UNL     1       1.474  13.383  18.553  0.00  0.00    +0.000 A 
ATOM     12  C   UNL     1       1.015  14.698  18.605  0.00  0.00    +0.000 A 
ATOM     13  C   UNL     1      -0.197  14.991  19.214  0.00  0.00    +0.000 A 
ATOM     14  N   UNL     1      -0.598  16.337  19.321  0.00  0.00    +0.000 N 
ATOM     15  C   UNL     1      -1.823  16.830  19.865  0.00  0.00    +0.000 C 
ATOM     16  C   UNL     1      -1.898  17.818  18.704  0.00  0.00    +0.000 C 
ATOM     17  C   UNL     1      -0.520  17.322  18.286  0.00  0.00    +0.000 C 
ATOM     18  N   UNL     1      -0.928  13.983  19.734  0.00  0.00    +0.000 NA
ATOM     19  N   UNL     1      -0.482  12.663  19.669  0.00  0.00    +0.000 NA
ENDBRANCH   6  10
BRANCH   1  24
ATOM     20  C   UNL     1       4.142   5.127  16.937  0.00  0.00    +0.000 A 
ATOM     21  C   UNL     1       3.740   3.810  17.159  0.00  0.00    +0.000 A 
ATOM     22  C   UNL     1       2.823   3.512  18.165  0.00  0.00    +0.000 A 
ATOM     23  C   UNL     1       2.284   4.535  18.945  0.00  0.00    +0.000 A 
ATOM     24  C   UNL     1       2.665   5.870  18.743  0.00  0.00    +0.000 A 
ATOM     25  C   UNL     1       3.628   6.145  17.757  0.00  0.00    +0.000 A 
BRANCH  20  29
ATOM     26  O   UNL     1       5.832   3.414  15.212  0.00  0.00    +0.000 OA
ATOM     27  C   UNL     1       5.835   4.636  15.177  0.00  0.00    +0.000 C 
ATOM     28  N   UNL     1       6.644   5.333  14.302  0.00  0.00    +0.000 N 
ATOM     29  N   UNL     1       5.054   5.494  15.923  0.00  0.00    +0.000 N 
ATOM     30  H   UNL     1       6.976   6.223  14.649  0.00  0.00    +0.000 HD
ATOM     31  H   UNL     1       5.000   6.440  15.583  0.00  0.00    +0.000 HD
BRANCH  28  32
ATOM     32  C   UNL     1       7.596   4.572  13.484  0.00  0.00    +0.000 C 
BRANCH  32  33
ATOM     33  C   UNL     1       7.108   4.204  12.074  0.00  0.00    +0.000 C 
ATOM     34  F   UNL     1       5.782   3.938  12.054  0.00  0.00    +0.000 F 
ATOM     35  F   UNL     1       7.358   5.174  11.172  0.00  0.00    +0.000 F 
ATOM     36  F   UNL     1       7.738   3.081  11.648  0.00  0.00    +0.000 F 
ENDBRANCH  32  33
ENDBRANCH  28  32
ENDBRANCH  20  29
ENDBRANCH   1  24
TORSDOF 5
ENDMDL
MODEL 8
REMARK VINA RESULT:      -8.6      2.303      3.361
REMARK  Name = 
REMARK  5 active torsions:
REMARK  status: ('A' for Active; 'I' for Inactive)
REMARK    1  A    between atoms: N_3  and  C_4
REMARK    2  A    between atoms: C_4  and  C_5
REMARK    3  A    between atoms: N_9  and  C_10
REMARK    4  A    between atoms: C_14  and  C_15
REMARK    5  A    between atoms: C_20  and  C_21
REMARK                            x       y       z     vdW  Elec       q    Type
REMARK                         _______ _______ _______ _____ _____    ______ ____
ROOT
ATOM      1  C   UNL     1       3.791   5.429  19.556  0.00  0.00    +0.000 A 
ATOM      2  C   UNL     1       3.084   4.575  20.393  0.00  0.00    +0.000 A 
ATOM      3  N   UNL     1       1.961   5.157  20.907  0.00  0.00    +0.000 NA
ATOM      4  C   UNL     1       1.942   6.365  20.392  0.00  0.00    +0.000 A 
ATOM      5  C   UNL     1       0.974   7.400  20.542  0.00  0.00    +0.000 A 
ATOM      6  C   UNL     1       1.079   8.566  19.855  0.00  0.00    +0.000 A 
ATOM      7  C   UNL     1       2.265   8.774  19.009  0.00  0.00    +0.000 A 
ATOM      8  C   UNL     1       3.172   7.796  18.852  0.00  0.00    +0.000 A 
ATOM      9  N   UNL     1       3.022   6.590  19.542  0.00  0.00    +0.000 N 
ENDROOT
BRANCH   6  10
ATOM     10  C   UNL     1      -0.011   9.576  19.935  0.00  0.00    +0.000 A 
ATOM     11  C   UNL     1      -0.735   9.985  18.825  0.00  0.00    +0.000 A 
ATOM     12  C   UNL     1      -1.663  11.018  18.950  0.00  0.00    +0.000 A 
ATOM     13  C   UNL     1      -1.845  11.650  20.171  0.00  0.00    +0.000 A 
ATOM     14  N   UNL     1      -2.731  12.741  20.249  0.00  0.00    +0.000 N 
ATOM     15  C   UNL     1      -3.085  13.483  21.417  0.00  0.00    +0.000 C 
ATOM     16  C   UNL     1      -4.535  13.470  20.940  0.00  0.00    +0.000 C 
ATOM     17  C   UNL     1      -4.034  12.809  19.663  0.00  0.00    +0.000 C 
ATOM     18  N   UNL     1      -1.125  11.235  21.235  0.00  0.00    +0.000 NA
ATOM     19  N   UNL     1      -0.208  10.190  21.121  0.00  0.00    +0.000 NA
ENDBRANCH   6  10
BRANCH   1  24
ATOM     20  C   UNL     1       6.218   4.234  16.875  0.00  0.00    +0.000 A 
ATOM     21  C   UNL     1       7.425   4.663  17.425  0.00  0.00    +0.000 A 
ATOM     22  C   UNL     1       7.444   5.342  18.641  0.00  0.00    +0.000 A 
ATOM     23  C   UNL     1       6.254   5.579  19.328  0.00  0.00    +0.000 A 
ATOM     24  C   UNL     1       5.024   5.157  18.803  0.00  0.00    +0.000 A 
ATOM     25  C   UNL     1       5.020   4.518  17.551  0.00  0.00    +0.000 A 
BRANCH  20  29
ATOM     26  O   UNL     1       6.218   5.260  14.096  0.00  0.00    +0.000 OA
ATOM     27  C   UNL     1       6.109   4.078  14.391  0.00  0.00    +0.000 C 
ATOM     28  N   UNL     1       5.980   3.101  13.424  0.00  0.00    +0.000 N 
ATOM     29  N   UNL     1       6.135   3.527  15.655  0.00  0.00    +0.000 N 
ATOM     30  H   UNL     1       5.411   2.310  13.694  0.00  0.00    +0.000 HD
ATOM     31  H   UNL     1       6.293   2.533  15.693  0.00  0.00    +0.000 HD
BRANCH  28  32
ATOM     32  C   UNL     1       5.861   3.525  12.023  0.00  0.00    +0.000 C 
BRANCH  32  33
ATOM     33  C   UNL     1       4.519   3.202  11.348  0.00  0.00    +0.000 C 
ATOM     34  F   UNL     1       3.509   3.123  12.246  0.00  0.00    +0.000 F 
ATOM     35  F   UNL     1       4.180   4.109  10.411  0.00  0.00    +0.000 F 
ATOM     36  F   UNL     1       4.591   1.993  10.736  0.00  0.00    +0.000 F 
ENDBRANCH  32  33
ENDBRANCH  28  32
ENDBRANCH  20  29
ENDBRANCH   1  24
TORSDOF 5
ENDMDL
MODEL 9
REMARK VINA RESULT:      -8.6      5.351     10.997
REMARK  Name = 
REMARK  5 active torsions:
REMARK  status: ('A' for Active; 'I' for Inactive)
REMARK    1  A    between atoms: N_3  and  C_4
REMARK    2  A    between atoms: C_4  and  C_5
REMARK    3  A    between atoms: N_9  and  C_10
REMARK    4  A    between atoms: C_14  and  C_15
REMARK    5  A    between atoms: C_20  and  C_21
REMARK                            x       y       z     vdW  Elec       q    Type
REMARK                         _______ _______ _______ _____ _____    ______ ____
ROOT
ATOM      1  C   UNL     1      -0.710  11.063  21.834  0.00  0.00    +0.000 A 
ATOM      2  C   UNL     1      -0.589  10.342  23.015  0.00  0.00    +0.000 A 
ATOM      3  N   UNL     1       0.103   9.177  22.847  0.00  0.00    +0.000 NA
ATOM      4  C   UNL     1       0.434   9.161  21.576  0.00  0.00    +0.000 A 
ATOM      5  C   UNL     1       1.204   8.207  20.850  0.00  0.00    +0.000 A 
ATOM      6  C   UNL     1       1.520   8.404  19.545  0.00  0.00    +0.000 A 
ATOM      7  C   UNL     1       0.978   9.592  18.867  0.00  0.00    +0.000 A 
ATOM      8  C   UNL     1       0.265  10.503  19.551  0.00  0.00    +0.000 A 
ATOM      9  N   UNL     1      -0.016  10.294  20.903  0.00  0.00    +0.000 N 
ENDROOT
BRANCH   6  10
ATOM     10  C   UNL     1       2.431   7.455  18.849  0.00  0.00    +0.000 A 
ATOM     11  C   UNL     1       2.660   6.166  19.307  0.00  0.00    +0.000 A 
ATOM     12  C   UNL     1       3.614   5.370  18.675  0.00  0.00    +0.000 A 
ATOM     13  C   UNL     1       4.346   5.871  17.608  0.00  0.00    +0.000 A 
ATOM     14  N   UNL     1       5.356   5.071  17.040  0.00  0.00    +0.000 N 
ATOM     15  C   UNL     1       6.176   5.389  15.914  0.00  0.00    +0.000 C 
ATOM     16  C   UNL     1       5.987   3.959  15.419  0.00  0.00    +0.000 C 
ATOM     17  C   UNL     1       5.248   3.680  16.722  0.00  0.00    +0.000 C 
ATOM     18  N   UNL     1       4.106   7.129  17.184  0.00  0.00    +0.000 NA
ATOM     19  N   UNL     1       3.141   7.925  17.801  0.00  0.00    +0.000 NA
ENDBRANCH   6  10
BRANCH   1  24
ATOM     20  C   UNL     1      -1.526  14.538  20.504  0.00  0.00    +0.000 A 
ATOM     21  C   UNL     1      -2.640  14.845  21.283  0.00  0.00    +0.000 A 
ATOM     22  C   UNL     1      -3.126  13.929  22.213  0.00  0.00    +0.000 A 
ATOM     23  C   UNL     1      -2.484  12.703  22.387  0.00  0.00    +0.000 A 
ATOM     24  C   UNL     1      -1.357  12.367  21.623  0.00  0.00    +0.000 A 
ATOM     25  C   UNL     1      -0.913  13.283  20.655  0.00  0.00    +0.000 A 
BRANCH  20  29
ATOM     26  O   UNL     1       1.212  15.654  20.329  0.00  0.00    +0.000 OA
ATOM     27  C   UNL     1       0.306  15.935  19.557  0.00  0.00    +0.000 C 
ATOM     28  N   UNL     1       0.496  16.815  18.510  0.00  0.00    +0.000 N 
ATOM     29  N   UNL     1      -0.977  15.431  19.557  0.00  0.00    +0.000 N 
ATOM     30  H   UNL     1      -0.316  17.368  18.269  0.00  0.00    +0.000 HD
ATOM     31  H   UNL     1      -1.500  15.571  18.708  0.00  0.00    +0.000 HD
BRANCH  28  32
ATOM     32  C   UNL     1       1.789  17.502  18.408  0.00  0.00    +0.000 C 
BRANCH  32  33
ATOM     33  C   UNL     1       2.817  16.839  17.477  0.00  0.00    +0.000 C 
ATOM     34  F   UNL     1       2.661  15.496  17.430  0.00  0.00    +0.000 F 
ATOM     35  F   UNL     1       2.756  17.316  16.218  0.00  0.00    +0.000 F 
ATOM     36  F   UNL     1       4.072  17.070  17.939  0.00  0.00    +0.000 F 
ENDBRANCH  32  33
ENDBRANCH  28  32
ENDBRANCH  20  29
ENDBRANCH   1  24
TORSDOF 5
ENDMDL
