MODEL 1
REMARK VINA RESULT:      -8.2      0.000      0.000
REMARK  Name = 
REMARK  8 active torsions:
REMARK  status: ('A' for Active; 'I' for Inactive)
REMARK    1  A    between atoms: C_1  and  C_2
REMARK    2  A    between atoms: C_2  and  O_3
REMARK    3  A    between atoms: O_3  and  C_4
REMARK    4  A    between atoms: C_9  and  C_10
REMARK    5  A    between atoms: C_14  and  O_15
REMARK    6  A    between atoms: O_15  and  C_16
REMARK    7  A    between atoms: C_17  and  O_18
REMARK    8  A    between atoms: O_18  and  C_19
REMARK                            x       y       z     vdW  Elec       q    Type
REMARK                         _______ _______ _______ _____ _____    ______ ____
ROOT
ATOM      1  C   UNL     1       5.564   3.984  14.687  0.00  0.00    +0.000 C 
ATOM      2  C   UNL     1       5.661   4.341  15.973  0.00  0.00    +0.000 C 
ATOM      3  C   UNL     1       6.680   5.290  16.539  0.00  0.00    +0.000 C 
ATOM      4  O   UNL     1       7.504   5.925  15.906  0.00  0.00    +0.000 OA
ATOM      5  N   UNL     1       6.443   5.293  17.931  0.00  0.00    +0.000 N 
ATOM      6  C   UNL     1       7.267   5.860  18.893  0.00  0.00    +0.000 C 
ATOM      7  C   UNL     1       8.086   7.056  18.471  0.00  0.00    +0.000 C 
ATOM      8  O   UNL     1       7.400   5.416  20.037  0.00  0.00    +0.000 OA
ATOM      9  C   UNL     1       5.361   4.423  18.234  0.00  0.00    +0.000 A 
ATOM     10  C   UNL     1       4.782   4.150  19.463  0.00  0.00    +0.000 A 
ATOM     11  C   UNL     1       3.666   3.297  19.533  0.00  0.00    +0.000 A 
ATOM     12  C   UNL     1       3.144   2.710  18.354  0.00  0.00    +0.000 A 
ATOM     13  C   UNL     1       3.748   2.994  17.117  0.00  0.00    +0.000 A 
ATOM     14  C   UNL     1       4.840   3.854  17.075  0.00  0.00    +0.000 A 
ENDROOT
BRANCH  11  15
ATOM     15  O   UNL     1       3.216   3.157  20.824  0.00  0.00    +0.000 OA
ATOM     16  C   UNL     1       2.286   4.092  21.346  0.00  0.00    +0.000 C 
ENDBRANCH  11  15
BRANCH  12  17
ATOM     17  O   UNL     1       2.062   1.878  18.475  0.00  0.00    +0.000 OA
ATOM     18  C   UNL     1       0.766   2.446  18.603  0.00  0.00    +0.000 C 
ENDBRANCH  12  17
BRANCH   1  19
ATOM     19  O   UNL     1       6.417   4.431  13.714  0.00  0.00    +0.000 OA
BRANCH  19  21
ATOM     20  C   UNL     1       5.013   3.377  12.096  0.00  0.00    +0.000 C 
ATOM     21  C   UNL     1       6.440   3.588  12.561  0.00  0.00    +0.000 C 
ENDBRANCH  19  21
ENDBRANCH   1  19
TORSDOF 4
ENDMDL
MODEL 2
REMARK VINA RESULT:      -7.3      2.604      6.845
REMARK  Name = 
REMARK  8 active torsions:
REMARK  status: ('A' for Active; 'I' for Inactive)
REMARK    1  A    between atoms: C_1  and  C_2
REMARK    2  A    between atoms: C_2  and  O_3
REMARK    3  A    between atoms: O_3  and  C_4
REMARK    4  A    between atoms: C_9  and  C_10
REMARK    5  A    between atoms: C_14  and  O_15
REMARK    6  A    between atoms: O_15  and  C_16
REMARK    7  A    between atoms: C_17  and  O_18
REMARK    8  A    between atoms: O_18  and  C_19
REMARK                            x       y       z     vdW  Elec       q    Type
REMARK                         _______ _______ _______ _____ _____    ______ ____
ROOT
ATOM      1  C   UNL     1       2.322   7.056  19.936  0.00  0.00    +0.000 C 
ATOM      2  C   UNL     1       2.612   5.930  19.276  0.00  0.00    +0.000 C 
ATOM      3  C   UNL     1       1.866   4.630  19.400  0.00  0.00    +0.000 C 
ATOM      4  O   UNL     1       0.855   4.439  20.052  0.00  0.00    +0.000 OA
ATOM      5  N   UNL     1       2.575   3.722  18.586  0.00  0.00    +0.000 N 
ATOM      6  C   UNL     1       2.385   2.348  18.547  0.00  0.00    +0.000 C 
ATOM      7  C   UNL     1       0.996   1.842  18.855  0.00  0.00    +0.000 C 
ATOM      8  O   UNL     1       3.285   1.532  18.328  0.00  0.00    +0.000 OA
ATOM      9  C   UNL     1       3.682   4.381  17.986  0.00  0.00    +0.000 A 
ATOM     10  C   UNL     1       4.619   3.875  17.099  0.00  0.00    +0.000 A 
ATOM     11  C   UNL     1       5.606   4.726  16.569  0.00  0.00    +0.000 A 
ATOM     12  C   UNL     1       5.650   6.090  16.950  0.00  0.00    +0.000 A 
ATOM     13  C   UNL     1       4.694   6.583  17.855  0.00  0.00    +0.000 A 
ATOM     14  C   UNL     1       3.719   5.724  18.350  0.00  0.00    +0.000 A 
ENDROOT
BRANCH  11  15
ATOM     15  O   UNL     1       6.433   4.060  15.696  0.00  0.00    +0.000 OA
ATOM     16  C   UNL     1       6.135   4.063  14.309  0.00  0.00    +0.000 C 
ENDBRANCH  11  15
BRANCH  12  17
ATOM     17  O   UNL     1       6.636   6.875  16.414  0.00  0.00    +0.000 OA
ATOM     18  C   UNL     1       7.572   7.497  17.283  0.00  0.00    +0.000 C 
ENDBRANCH  12  17
BRANCH   1  19
ATOM     19  O   UNL     1       1.304   7.157  20.845  0.00  0.00    +0.000 OA
BRANCH  19  21
ATOM     20  C   UNL     1      -0.272   8.749  21.672  0.00  0.00    +0.000 C 
ATOM     21  C   UNL     1       1.195   8.460  21.421  0.00  0.00    +0.000 C 
ENDBRANCH  19  21
ENDBRANCH   1  19
TORSDOF 4
ENDMDL
MODEL 3
REMARK VINA RESULT:      -6.5      3.718      5.132
REMARK  Name = 
REMARK  8 active torsions:
REMARK  status: ('A' for Active; 'I' for Inactive)
REMARK    1  A    between atoms: C_1  and  C_2
REMARK    2  A    between atoms: C_2  and  O_3
REMARK    3  A    between atoms: O_3  and  C_4
REMARK    4  A    between atoms: C_9  and  C_10
REMARK    5  A    between atoms: C_14  and  O_15
REMARK    6  A    between atoms: O_15  and  C_16
REMARK    7  A    between atoms: C_17  and  O_18
REMARK    8  A    between atoms: O_18  and  C_19
REMARK                            x       y       z     vdW  Elec       q    Type
REMARK                         _______ _______ _______ _____ _____    ______ ____
ROOT
ATOM      1  C   UNL     1       4.607   5.309  16.703  0.00  0.00    +0.000 C 
ATOM      2  C   UNL     1       3.947   5.267  17.865  0.00  0.00    +0.000 C 
ATOM      3  C   UNL     1       3.861   4.073  18.775  0.00  0.00    +0.000 C 
ATOM      4  O   UNL     1       4.438   3.011  18.627  0.00  0.00    +0.000 OA
ATOM      5  N   UNL     1       3.006   4.474  19.824  0.00  0.00    +0.000 N 
ATOM      6  C   UNL     1       2.464   3.640  20.792  0.00  0.00    +0.000 C 
ATOM      7  C   UNL     1       3.273   2.423  21.175  0.00  0.00    +0.000 C 
ATOM      8  O   UNL     1       1.357   3.811  21.310  0.00  0.00    +0.000 OA
ATOM      9  C   UNL     1       2.580   5.812  19.609  0.00  0.00    +0.000 A 
ATOM     10  C   UNL     1       1.762   6.602  20.401  0.00  0.00    +0.000 A 
ATOM     11  C   UNL     1       1.515   7.938  20.033  0.00  0.00    +0.000 A 
ATOM     12  C   UNL     1       2.091   8.468  18.851  0.00  0.00    +0.000 A 
ATOM     13  C   UNL     1       2.913   7.649  18.058  0.00  0.00    +0.000 A 
ATOM     14  C   UNL     1       3.153   6.338  18.455  0.00  0.00    +0.000 A 
ENDROOT
BRANCH  11  15
ATOM     15  O   UNL     1       0.703   8.571  20.942  0.00  0.00    +0.000 OA
ATOM     16  C   UNL     1       1.248   9.032  22.167  0.00  0.00    +0.000 C 
ENDBRANCH  11  15
BRANCH  12  17
ATOM     17  O   UNL     1       1.813   9.770  18.530  0.00  0.00    +0.000 OA
ATOM     18  C   UNL     1       0.487  10.122  18.159  0.00  0.00    +0.000 C 
ENDBRANCH  12  17
BRANCH   1  19
ATOM     19  O   UNL     1       5.278   4.238  16.177  0.00  0.00    +0.000 OA
BRANCH  19  21
ATOM     20  C   UNL     1       7.396   4.594  17.219  0.00  0.00    +0.000 C 
ATOM     21  C   UNL     1       6.651   4.519  15.901  0.00  0.00    +0.000 C 
ENDBRANCH  19  21
ENDBRANCH   1  19
TORSDOF 4
ENDMDL
MODEL 4
REMARK VINA RESULT:      -6.5      1.273      4.297
REMARK  Name = 
REMARK  8 active torsions:
REMARK  status: ('A' for Active; 'I' for Inactive)
REMARK    1  A    between atoms: C_1  and  C_2
REMARK    2  A    between atoms: C_2  and  O_3
REMARK    3  A    between atoms: O_3  and  C_4
REMARK    4  A    between atoms: C_9  and  C_10
REMARK    5  A    between atoms: C_14  and  O_15
REMARK    6  A    between atoms: O_15  and  C_16
REMARK    7  A    between atoms: C_17  and  O_18
REMARK    8  A    between atoms: O_18  and  C_19
REMARK                            x       y       z     vdW  Elec       q    Type
REMARK                         _______ _______ _______ _____ _____    ______ ____
ROOT
ATOM      1  C   UNL     1       7.284   6.575  18.577  0.00  0.00    +0.000 C 
ATOM      2  C   UNL     1       6.641   5.717  17.778  0.00  0.00    +0.000 C 
ATOM      3  C   UNL     1       6.911   5.522  16.312  0.00  0.00    +0.000 C 
ATOM      4  O   UNL     1       7.796   6.053  15.665  0.00  0.00    +0.000 OA
ATOM      5  N   UNL     1       5.946   4.585  15.883  0.00  0.00    +0.000 N 
ATOM      6  C   UNL     1       5.669   4.250  14.565  0.00  0.00    +0.000 C 
ATOM      7  C   UNL     1       6.809   4.357  13.580  0.00  0.00    +0.000 C 
ATOM      8  O   UNL     1       4.551   3.925  14.155  0.00  0.00    +0.000 OA
ATOM      9  C   UNL     1       5.127   4.207  16.981  0.00  0.00    +0.000 A 
ATOM     10  C   UNL     1       4.083   3.296  17.013  0.00  0.00    +0.000 A 
ATOM     11  C   UNL     1       3.438   3.018  18.232  0.00  0.00    +0.000 A 
ATOM     12  C   UNL     1       3.848   3.675  19.419  0.00  0.00    +0.000 A 
ATOM     13  C   UNL     1       4.905   4.599  19.366  0.00  0.00    +0.000 A 
ATOM     14  C   UNL     1       5.535   4.842  18.149  0.00  0.00    +0.000 A 
ENDROOT
BRANCH  11  15
ATOM     15  O   UNL     1       2.444   2.082  18.078  0.00  0.00    +0.000 OA
ATOM     16  C   UNL     1       1.112   2.408  18.437  0.00  0.00    +0.000 C 
ENDBRANCH  11  15
BRANCH  12  17
ATOM     17  O   UNL     1       3.183   3.378  20.580  0.00  0.00    +0.000 OA
ATOM     18  C   UNL     1       2.367   4.373  21.183  0.00  0.00    +0.000 C 
ENDBRANCH  12  17
BRANCH   1  19
ATOM     19  O   UNL     1       8.270   7.418  18.141  0.00  0.00    +0.000 OA
BRANCH  19  21
ATOM     20  C   UNL     1       8.729   9.743  18.431  0.00  0.00    +0.000 C 
ATOM     21  C   UNL     1       7.788   8.724  17.819  0.00  0.00    +0.000 C 
ENDBRANCH  19  21
ENDBRANCH   1  19
TORSDOF 4
ENDMDL
MODEL 5
REMARK VINA RESULT:      -6.5      1.481      5.694
REMARK  Name = 
REMARK  8 active torsions:
REMARK  status: ('A' for Active; 'I' for Inactive)
REMARK    1  A    between atoms: C_1  and  C_2
REMARK    2  A    between atoms: C_2  and  O_3
REMARK    3  A    between atoms: O_3  and  C_4
REMARK    4  A    between atoms: C_9  and  C_10
REMARK    5  A    between atoms: C_14  and  O_15
REMARK    6  A    between atoms: O_15  and  C_16
REMARK    7  A    between atoms: C_17  and  O_18
REMARK    8  A    between atoms: O_18  and  C_19
REMARK                            x       y       z     vdW  Elec       q    Type
REMARK                         _______ _______ _______ _____ _____    ______ ____
ROOT
ATOM      1  C   UNL     1       3.817   3.089  17.394  0.00  0.00    +0.000 C 
ATOM      2  C   UNL     1       4.881   3.819  17.042  0.00  0.00    +0.000 C 
ATOM      3  C   UNL     1       5.684   4.691  17.968  0.00  0.00    +0.000 C 
ATOM      4  O   UNL     1       5.531   4.796  19.171  0.00  0.00    +0.000 OA
ATOM      5  N   UNL     1       6.643   5.315  17.142  0.00  0.00    +0.000 N 
ATOM      6  C   UNL     1       7.472   6.365  17.512  0.00  0.00    +0.000 C 
ATOM      7  C   UNL     1       7.864   6.444  18.968  0.00  0.00    +0.000 C 
ATOM      8  O   UNL     1       7.858   7.246  16.739  0.00  0.00    +0.000 OA
ATOM      9  C   UNL     1       6.475   4.880  15.800  0.00  0.00    +0.000 A 
ATOM     10  C   UNL     1       7.214   5.217  14.677  0.00  0.00    +0.000 A 
ATOM     11  C   UNL     1       6.916   4.615  13.440  0.00  0.00    +0.000 A 
ATOM     12  C   UNL     1       5.858   3.678  13.342  0.00  0.00    +0.000 A 
ATOM     13  C   UNL     1       5.116   3.353  14.491  0.00  0.00    +0.000 A 
ATOM     14  C   UNL     1       5.443   3.951  15.703  0.00  0.00    +0.000 A 
ENDROOT
BRANCH  11  15
ATOM     15  O   UNL     1       7.760   5.053  12.448  0.00  0.00    +0.000 OA
ATOM     16  C   UNL     1       8.781   5.986  12.759  0.00  0.00    +0.000 C 
ENDBRANCH  11  15
BRANCH  12  17
ATOM     17  O   UNL     1       5.600   3.127  12.115  0.00  0.00    +0.000 OA
ATOM     18  C   UNL     1       4.301   3.262  11.555  0.00  0.00    +0.000 C 
ENDBRANCH  12  17
BRANCH   1  19
ATOM     19  O   UNL     1       3.302   3.068  18.661  0.00  0.00    +0.000 OA
BRANCH  19  21
ATOM     20  C   UNL     1       1.153   3.091  19.701  0.00  0.00    +0.000 C 
ATOM     21  C   UNL     1       2.072   2.347  18.754  0.00  0.00    +0.000 C 
ENDBRANCH  19  21
ENDBRANCH   1  19
TORSDOF 4
ENDMDL
MODEL 6
REMARK VINA RESULT:      -6.4      4.192      6.504
REMARK  Name = 
REMARK  8 active torsions:
REMARK  status: ('A' for Active; 'I' for Inactive)
REMARK    1  A    between atoms: C_1  and  C_2
REMARK    2  A    between atoms: C_2  and  O_3
REMARK    3  A    between atoms: O_3  and  C_4
REMARK    4  A    between atoms: C_9  and  C_10
REMARK    5  A    between atoms: C_14  and  O_15
REMARK    6  A    between atoms: O_15  and  C_16
REMARK    7  A    between atoms: C_17  and  O_18
REMARK    8  A    between atoms: O_18  and  C_19
REMARK                            x       y       z     vdW  Elec       q    Type
REMARK                         _______ _______ _______ _____ _____    ______ ____
ROOT
ATOM      1  C   UNL     1       2.272   4.821  21.077  0.00  0.00    +0.000 C 
ATOM      2  C   UNL     1       2.636   5.434  19.946  0.00  0.00    +0.000 C 
ATOM      3  C   UNL     1       3.507   4.839  18.874  0.00  0.00    +0.000 C 
ATOM      4  O   UNL     1       3.937   3.700  18.845  0.00  0.00    +0.000 OA
ATOM      5  N   UNL     1       3.678   5.872  17.927  0.00  0.00    +0.000 N 
ATOM      6  C   UNL     1       4.574   5.860  16.867  0.00  0.00    +0.000 C 
ATOM      7  C   UNL     1       4.921   4.512  16.282  0.00  0.00    +0.000 C 
ATOM      8  O   UNL     1       5.129   6.868  16.421  0.00  0.00    +0.000 OA
ATOM      9  C   UNL     1       2.975   7.031  18.351  0.00  0.00    +0.000 A 
ATOM     10  C   UNL     1       2.851   8.255  17.713  0.00  0.00    +0.000 A 
ATOM     11  C   UNL     1       2.046   9.259  18.282  0.00  0.00    +0.000 A 
ATOM     12  C   UNL     1       1.374   9.023  19.507  0.00  0.00    +0.000 A 
ATOM     13  C   UNL     1       1.515   7.777  20.142  0.00  0.00    +0.000 A 
ATOM     14  C   UNL     1       2.305   6.797  19.549  0.00  0.00    +0.000 A 
ENDROOT
BRANCH  11  15
ATOM     15  O   UNL     1       2.026  10.393  17.506  0.00  0.00    +0.000 OA
ATOM     16  C   UNL     1       2.482  11.621  18.048  0.00  0.00    +0.000 C 
ENDBRANCH  11  15
BRANCH  12  17
ATOM     17  O   UNL     1       0.609  10.034  20.025  0.00  0.00    +0.000 OA
ATOM     18  C   UNL     1      -0.734  10.181  19.583  0.00  0.00    +0.000 C 
ENDBRANCH  12  17
BRANCH   1  19
ATOM     19  O   UNL     1       2.679   3.559  21.416  0.00  0.00    +0.000 OA
BRANCH  19  21
ATOM     20  C   UNL     1       0.910   2.526  20.189  0.00  0.00    +0.000 C 
ATOM     21  C   UNL     1       1.595   2.636  21.537  0.00  0.00    +0.000 C 
ENDBRANCH  19  21
ENDBRANCH   1  19
TORSDOF 4
ENDMDL
MODEL 7
REMARK VINA RESULT:      -6.4      1.011      1.229
REMARK  Name = 
REMARK  8 active torsions:
REMARK  status: ('A' for Active; 'I' for Inactive)
REMARK    1  A    between atoms: C_1  and  C_2
REMARK    2  A    between atoms: C_2  and  O_3
REMARK    3  A    between atoms: O_3  and  C_4
REMARK    4  A    between atoms: C_9  and  C_10
REMARK    5  A    between atoms: C_14  and  O_15
REMARK    6  A    between atoms: O_15  and  C_16
REMARK    7  A    between atoms: C_17  and  O_18
REMARK    8  A    between atoms: O_18  and  C_19
REMARK                            x       y       z     vdW  Elec       q    Type
REMARK                         _______ _______ _______ _____ _____    ______ ____
ROOT
ATOM      1  C   UNL     1       5.454   4.870  14.727  0.00  0.00    +0.000 C 
ATOM      2  C   UNL     1       5.637   4.959  16.049  0.00  0.00    +0.000 C 
ATOM      3  C   UNL     1       6.703   5.772  16.728  0.00  0.00    +0.000 C 
ATOM      4  O   UNL     1       7.495   6.520  16.184  0.00  0.00    +0.000 OA
ATOM      5  N   UNL     1       6.554   5.494  18.104  0.00  0.00    +0.000 N 
ATOM      6  C   UNL     1       7.446   5.853  19.106  0.00  0.00    +0.000 C 
ATOM      7  C   UNL     1       8.254   7.109  18.881  0.00  0.00    +0.000 C 
ATOM      8  O   UNL     1       7.644   5.187  20.125  0.00  0.00    +0.000 OA
ATOM      9  C   UNL     1       5.482   4.582  18.295  0.00  0.00    +0.000 A 
ATOM     10  C   UNL     1       4.977   4.068  19.478  0.00  0.00    +0.000 A 
ATOM     11  C   UNL     1       3.855   3.220  19.448  0.00  0.00    +0.000 A 
ATOM     12  C   UNL     1       3.251   2.885  18.210  0.00  0.00    +0.000 A 
ATOM     13  C   UNL     1       3.780   3.412  17.020  0.00  0.00    +0.000 A 
ATOM     14  C   UNL     1       4.880   4.261  17.082  0.00  0.00    +0.000 A 
ENDROOT
BRANCH  11  15
ATOM     15  O   UNL     1       3.485   2.823  20.710  0.00  0.00    +0.000 OA
ATOM     16  C   UNL     1       4.105   1.692  21.299  0.00  0.00    +0.000 C 
ENDBRANCH  11  15
BRANCH  12  17
ATOM     17  O   UNL     1       2.166   2.048  18.231  0.00  0.00    +0.000 OA
ATOM     18  C   UNL     1       0.904   2.564  18.630  0.00  0.00    +0.000 C 
ENDBRANCH  12  17
BRANCH   1  19
ATOM     19  O   UNL     1       6.250   5.502  13.811  0.00  0.00    +0.000 OA
BRANCH  19  21
ATOM     20  C   UNL     1       8.341   5.515  12.660  0.00  0.00    +0.000 C 
ATOM     21  C   UNL     1       7.249   4.647  13.254  0.00  0.00    +0.000 C 
ENDBRANCH  19  21
ENDBRANCH   1  19
TORSDOF 4
ENDMDL
MODEL 8
REMARK VINA RESULT:      -6.1      2.735      6.192
REMARK  Name = 
REMARK  8 active torsions:
REMARK  status: ('A' for Active; 'I' for Inactive)
REMARK    1  A    between atoms: C_1  and  C_2
REMARK    2  A    between atoms: C_2  and  O_3
REMARK    3  A    between atoms: O_3  and  C_4
REMARK    4  A    between atoms: C_9  and  C_10
REMARK    5  A    between atoms: C_14  and  O_15
REMARK    6  A    between atoms: O_15  and  C_16
REMARK    7  A    between atoms: C_17  and  O_18
REMARK    8  A    between atoms: O_18  and  C_19
REMARK                            x       y       z     vdW  Elec       q    Type
REMARK                         _______ _______ _______ _____ _____    ______ ____
ROOT
ATOM      1  C   UNL     1       2.167   3.043  19.416  0.00  0.00    +0.000 C 
ATOM      2  C   UNL     1       2.555   4.305  19.203  0.00  0.00    +0.000 C 
ATOM      3  C   UNL     1       1.878   5.529  19.752  0.00  0.00    +0.000 C 
ATOM      4  O   UNL     1       0.936   5.546  20.524  0.00  0.00    +0.000 OA
ATOM      5  N   UNL     1       2.587   6.618  19.202  0.00  0.00    +0.000 N 
ATOM      6  C   UNL     1       2.199   7.950  19.256  0.00  0.00    +0.000 C 
ATOM      7  C   UNL     1       1.380   8.374  20.452  0.00  0.00    +0.000 C 
ATOM      8  O   UNL     1       2.442   8.776  18.372  0.00  0.00    +0.000 OA
ATOM      9  C   UNL     1       3.634   6.136  18.371  0.00  0.00    +0.000 A 
ATOM     10  C   UNL     1       4.584   6.855  17.664  0.00  0.00    +0.000 A 
ATOM     11  C   UNL     1       5.584   6.172  16.948  0.00  0.00    +0.000 A 
ATOM     12  C   UNL     1       5.612   4.755  16.941  0.00  0.00    +0.000 A 
ATOM     13  C   UNL     1       4.637   4.043  17.660  0.00  0.00    +0.000 A 
ATOM     14  C   UNL     1       3.670   4.745  18.372  0.00  0.00    +0.000 A 
ENDROOT
BRANCH  11  15
ATOM     15  O   UNL     1       6.446   7.043  16.326  0.00  0.00    +0.000 OA
ATOM     16  C   UNL     1       7.507   7.626  17.065  0.00  0.00    +0.000 C 
ENDBRANCH  11  15
BRANCH  12  17
ATOM     17  O   UNL     1       6.599   4.136  16.221  0.00  0.00    +0.000 OA
ATOM     18  C   UNL     1       6.427   3.960  14.821  0.00  0.00    +0.000 C 
ENDBRANCH  12  17
BRANCH   1  19
ATOM     19  O   UNL     1       1.065   2.707  20.154  0.00  0.00    +0.000 OA
BRANCH  19  21
ATOM     20  C   UNL     1       2.867   2.264  21.656  0.00  0.00    +0.000 C 
ATOM     21  C   UNL     1       1.369   2.450  21.526  0.00  0.00    +0.000 C 
ENDBRANCH  19  21
ENDBRANCH   1  19
TORSDOF 4
ENDMDL
MODEL 9
REMARK VINA RESULT:      -6.0      2.426      3.141
REMARK  Name = 
REMARK  8 active torsions:
REMARK  status: ('A' for Active; 'I' for Inactive)
REMARK    1  A    between atoms: C_1  and  C_2
REMARK    2  A    between atoms: C_2  and  O_3
REMARK    3  A    between atoms: O_3  and  C_4
REMARK    4  A    between atoms: C_9  and  C_10
REMARK    5  A    between atoms: C_14  and  O_15
REMARK    6  A    between atoms: O_15  and  C_16
REMARK    7  A    between atoms: C_17  and  O_18
REMARK    8  A    between atoms: O_18  and  C_19
REMARK                            x       y       z     vdW  Elec       q    Type
REMARK                         _______ _______ _______ _____ _____    ______ ____
ROOT
ATOM      1  C   UNL     1       6.221   4.812  16.458  0.00  0.00    +0.000 C 
ATOM      2  C   UNL     1       5.186   5.072  17.266  0.00  0.00    +0.000 C 
ATOM      3  C   UNL     1       4.360   6.327  17.245  0.00  0.00    +0.000 C 
ATOM      4  O   UNL     1       4.460   7.243  16.449  0.00  0.00    +0.000 OA
ATOM      5  N   UNL     1       3.450   6.183  18.314  0.00  0.00    +0.000 N 
ATOM      6  C   UNL     1       2.624   7.179  18.817  0.00  0.00    +0.000 C 
ATOM      7  C   UNL     1       2.170   8.243  17.846  0.00  0.00    +0.000 C 
ATOM      8  O   UNL     1       2.289   7.266  20.002  0.00  0.00    +0.000 OA
ATOM      9  C   UNL     1       3.670   4.940  18.966  0.00  0.00    +0.000 A 
ATOM     10  C   UNL     1       2.987   4.386  20.037  0.00  0.00    +0.000 A 
ATOM     11  C   UNL     1       3.329   3.099  20.492  0.00  0.00    +0.000 A 
ATOM     12  C   UNL     1       4.373   2.377  19.862  0.00  0.00    +0.000 A 
ATOM     13  C   UNL     1       5.057   2.957  18.780  0.00  0.00    +0.000 A 
ATOM     14  C   UNL     1       4.687   4.224  18.342  0.00  0.00    +0.000 A 
ENDROOT
BRANCH  11  15
ATOM     15  O   UNL     1       2.538   2.707  21.545  0.00  0.00    +0.000 OA
ATOM     16  C   UNL     1       1.132   2.871  21.464  0.00  0.00    +0.000 C 
ENDBRANCH  11  15
BRANCH  12  17
ATOM     17  O   UNL     1       4.675   1.132  20.347  0.00  0.00    +0.000 OA
ATOM     18  C   UNL     1       5.552   1.017  21.458  0.00  0.00    +0.000 C 
ENDBRANCH  12  17
BRANCH   1  19
ATOM     19  O   UNL     1       6.678   5.688  15.512  0.00  0.00    +0.000 OA
BRANCH  19  21
ATOM     20  C   UNL     1       6.230   3.837  14.072  0.00  0.00    +0.000 C 
ATOM     21  C   UNL     1       7.117   5.041  14.316  0.00  0.00    +0.000 C 
ENDBRANCH  19  21
ENDBRANCH   1  19
TORSDOF 4
ENDMDL
