MODEL 1
REMARK VINA RESULT:      -8.6      0.000      0.000
REMARK  Name = 
REMARK  6 active torsions:
REMARK  status: ('A' for Active; 'I' for Inactive)
REMARK    1  A    between atoms: C_2  and  C_3
REMARK    2  A    between atoms: C_9  and  C_10
REMARK    3  A    between atoms: C_13  and  C_14
REMARK    4  A    between atoms: C_14  and  C_15
REMARK    5  A    between atoms: C_14  and  C_16
REMARK    6  A    between atoms: C_21  and  C_22
REMARK                            x       y       z     vdW  Elec       q    Type
REMARK                         _______ _______ _______ _____ _____    ______ ____
ROOT
ATOM      1  C   UNL     1       2.378   7.806  18.921  0.00  0.00    +0.000 A 
ATOM      2  C   UNL     1       2.582   6.684  19.727  0.00  0.00    +0.000 A 
ATOM      3  C   UNL     1       3.564   5.746  19.397  0.00  0.00    +0.000 A 
ATOM      4  C   UNL     1       4.362   5.911  18.255  0.00  0.00    +0.000 A 
ATOM      5  C   UNL     1       4.150   7.036  17.446  0.00  0.00    +0.000 A 
ATOM      6  C   UNL     1       3.170   7.979  17.780  0.00  0.00    +0.000 A 
ENDROOT
BRANCH   1  13
ATOM      7  C   UNL     1      -0.118  10.296  22.311  0.00  0.00    +0.000 C 
ATOM      8  O   UNL     1       0.647   9.921  23.202  0.00  0.00    +0.000 OA
ATOM      9  N   UNL     1      -0.055   9.863  21.002  0.00  0.00    +0.000 N 
ATOM     10  C   UNL     1      -0.927  10.310  19.911  0.00  0.00    +0.000 C 
ATOM     11  C   UNL     1      -0.110  10.711  18.681  0.00  0.00    +0.000 C 
ATOM     12  C   UNL     1       0.947   9.698  18.359  0.00  0.00    +0.000 C 
ATOM     13  C   UNL     1       1.354   8.800  19.276  0.00  0.00    +0.000 C 
ATOM     14  C   UNL     1       0.844   8.749  20.699  0.00  0.00    +0.000 C 
BRANCH   7  16
ATOM     15  C   UNL     1      -0.937  12.572  22.683  0.00  0.00    +0.000 C 
ATOM     16  C   UNL     1      -1.199  11.260  22.645  0.00  0.00    +0.000 C 
ENDBRANCH   7  16
ENDBRANCH   1  13
BRANCH   4  17
ATOM     17  C   UNL     1       5.458   4.899  17.951  0.00  0.00    +0.000 C 
ATOM     18  C   UNL     1       6.841   5.519  18.177  0.00  0.00    +0.000 C 
BRANCH  17  19
ATOM     19  C   UNL     1       5.381   4.254  16.562  0.00  0.00    +0.000 C 
ATOM     20  O   UNL     1       4.714   3.236  16.368  0.00  0.00    +0.000 OA
ATOM     21  N   UNL     1       6.053   4.940  15.568  0.00  0.00    +0.000 N 
ATOM     22  C   UNL     1       6.026   4.490  14.268  0.00  0.00    +0.000 A 
ATOM     23  C   UNL     1       4.921   3.980  13.545  0.00  0.00    +0.000 A 
ATOM     24  C   UNL     1       5.450   3.553  12.351  0.00  0.00    +0.000 A 
ATOM     25  N   UNL     1       6.783   3.832  12.418  0.00  0.00    +0.000 N 
ATOM     26  N   UNL     1       7.136   4.509  13.527  0.00  0.00    +0.000 NA
ATOM     27  H   UNL     1       6.902   5.432  15.811  0.00  0.00    +0.000 HD
ATOM     28  H   UNL     1       7.501   3.602  11.740  0.00  0.00    +0.000 HD
BRANCH  24  29
ATOM     29  C   UNL     1       4.682   2.878  11.237  0.00  0.00    +0.000 C 
ATOM     30  C   UNL     1       3.170   2.916  11.257  0.00  0.00    +0.000 C 
ATOM     31  C   UNL     1       3.912   3.748  10.267  0.00  0.00    +0.000 C 
ENDBRANCH  24  29
ENDBRANCH  17  19
ENDBRANCH   4  17
TORSDOF 5
ENDMDL
MODEL 2
REMARK VINA RESULT:      -8.5      1.914      2.576
REMARK  Name = 
REMARK  6 active torsions:
REMARK  status: ('A' for Active; 'I' for Inactive)
REMARK    1  A    between atoms: C_2  and  C_3
REMARK    2  A    between atoms: C_9  and  C_10
REMARK    3  A    between atoms: C_13  and  C_14
REMARK    4  A    between atoms: C_14  and  C_15
REMARK    5  A    between atoms: C_14  and  C_16
REMARK    6  A    between atoms: C_21  and  C_22
REMARK                            x       y       z     vdW  Elec       q    Type
REMARK                         _______ _______ _______ _____ _____    ______ ____
ROOT
ATOM      1  C   UNL     1       2.063   8.024  19.011  0.00  0.00    +0.000 A 
ATOM      2  C   UNL     1       2.172   7.018  19.974  0.00  0.00    +0.000 A 
ATOM      3  C   UNL     1       3.119   6.000  19.828  0.00  0.00    +0.000 A 
ATOM      4  C   UNL     1       3.975   5.968  18.717  0.00  0.00    +0.000 A 
ATOM      5  C   UNL     1       3.858   6.977  17.750  0.00  0.00    +0.000 A 
ATOM      6  C   UNL     1       2.913   8.000  17.900  0.00  0.00    +0.000 A 
ENDROOT
BRANCH   1  13
ATOM      7  C   UNL     1      -1.850  10.469  17.386  0.00  0.00    +0.000 C 
ATOM      8  O   UNL     1      -2.076   9.611  16.531  0.00  0.00    +0.000 OA
ATOM      9  N   UNL     1      -0.746  10.466  18.214  0.00  0.00    +0.000 N 
ATOM     10  C   UNL     1      -0.460  11.452  19.262  0.00  0.00    +0.000 C 
ATOM     11  C   UNL     1      -0.105  10.765  20.583  0.00  0.00    +0.000 C 
ATOM     12  C   UNL     1       0.879   9.652  20.386  0.00  0.00    +0.000 C 
ATOM     13  C   UNL     1       1.075   9.102  19.172  0.00  0.00    +0.000 C 
ATOM     14  C   UNL     1       0.315   9.498  17.928  0.00  0.00    +0.000 C 
BRANCH   7  16
ATOM     15  C   UNL     1      -4.043  11.376  17.982  0.00  0.00    +0.000 C 
ATOM     16  C   UNL     1      -2.799  11.602  17.543  0.00  0.00    +0.000 C 
ENDBRANCH   7  16
ENDBRANCH   1  13
BRANCH   4  17
ATOM     17  C   UNL     1       5.031   4.876  18.613  0.00  0.00    +0.000 C 
ATOM     18  C   UNL     1       6.320   5.304  19.323  0.00  0.00    +0.000 C 
BRANCH  17  19
ATOM     19  C   UNL     1       5.337   4.400  17.188  0.00  0.00    +0.000 C 
ATOM     20  O   UNL     1       4.904   3.326  16.767  0.00  0.00    +0.000 OA
ATOM     21  N   UNL     1       6.063   5.294  16.423  0.00  0.00    +0.000 N 
ATOM     22  C   UNL     1       6.367   5.007  15.112  0.00  0.00    +0.000 A 
ATOM     23  C   UNL     1       5.527   4.430  14.129  0.00  0.00    +0.000 A 
ATOM     24  C   UNL     1       6.342   4.235  13.041  0.00  0.00    +0.000 A 
ATOM     25  N   UNL     1       7.570   4.699  13.413  0.00  0.00    +0.000 N 
ATOM     26  N   UNL     1       7.580   5.280  14.628  0.00  0.00    +0.000 NA
ATOM     27  H   UNL     1       6.752   5.874  16.883  0.00  0.00    +0.000 HD
ATOM     28  H   UNL     1       8.435   4.662  12.885  0.00  0.00    +0.000 HD
BRANCH  24  29
ATOM     29  C   UNL     1       5.933   3.594  11.735  0.00  0.00    +0.000 C 
ATOM     30  C   UNL     1       5.499   2.145  11.731  0.00  0.00    +0.000 C 
ATOM     31  C   UNL     1       4.480   3.217  11.545  0.00  0.00    +0.000 C 
ENDBRANCH  24  29
ENDBRANCH  17  19
ENDBRANCH   4  17
TORSDOF 5
ENDMDL
MODEL 3
REMARK VINA RESULT:      -8.3      1.299      1.974
REMARK  Name = 
REMARK  6 active torsions:
REMARK  status: ('A' for Active; 'I' for Inactive)
REMARK    1  A    between atoms: C_2  and  C_3
REMARK    2  A    between atoms: C_9  and  C_10
REMARK    3  A    between atoms: C_13  and  C_14
REMARK    4  A    between atoms: C_14  and  C_15
REMARK    5  A    between atoms: C_14  and  C_16
REMARK    6  A    between atoms: C_21  and  C_22
REMARK                            x       y       z     vdW  Elec       q    Type
REMARK                         _______ _______ _______ _____ _____    ______ ____
ROOT
ATOM      1  C   UNL     1       1.763   7.733  19.551  0.00  0.00    +0.000 A 
ATOM      2  C   UNL     1       2.291   7.382  18.306  0.00  0.00    +0.000 A 
ATOM      3  C   UNL     1       2.895   6.135  18.121  0.00  0.00    +0.000 A 
ATOM      4  C   UNL     1       2.982   5.214  19.177  0.00  0.00    +0.000 A 
ATOM      5  C   UNL     1       2.456   5.574  20.425  0.00  0.00    +0.000 A 
ATOM      6  C   UNL     1       1.846   6.821  20.608  0.00  0.00    +0.000 A 
ENDROOT
BRANCH   1  13
ATOM      7  C   UNL     1      -0.511  10.961  22.438  0.00  0.00    +0.000 C 
ATOM      8  O   UNL     1      -0.226  10.314  23.447  0.00  0.00    +0.000 OA
ATOM      9  N   UNL     1      -0.238  10.548  21.150  0.00  0.00    +0.000 N 
ATOM     10  C   UNL     1      -0.535  11.304  19.928  0.00  0.00    +0.000 C 
ATOM     11  C   UNL     1       0.688  11.372  19.011  0.00  0.00    +0.000 C 
ATOM     12  C   UNL     1       1.346  10.034  18.860  0.00  0.00    +0.000 C 
ATOM     13  C   UNL     1       1.116   9.040  19.740  0.00  0.00    +0.000 C 
ATOM     14  C   UNL     1       0.238   9.176  20.963  0.00  0.00    +0.000 C 
BRANCH   7  16
ATOM     15  C   UNL     1      -2.423  12.310  23.155  0.00  0.00    +0.000 C 
ATOM     16  C   UNL     1      -1.212  12.263  22.588  0.00  0.00    +0.000 C 
ENDBRANCH   7  16
ENDBRANCH   1  13
BRANCH   4  17
ATOM     17  C   UNL     1       3.599   3.845  18.931  0.00  0.00    +0.000 C 
ATOM     18  C   UNL     1       4.548   3.468  20.074  0.00  0.00    +0.000 C 
BRANCH  17  19
ATOM     19  C   UNL     1       4.299   3.680  17.577  0.00  0.00    +0.000 C 
ATOM     20  O   UNL     1       3.990   2.770  16.806  0.00  0.00    +0.000 OA
ATOM     21  N   UNL     1       5.230   4.659  17.285  0.00  0.00    +0.000 N 
ATOM     22  C   UNL     1       5.898   4.651  16.082  0.00  0.00    +0.000 A 
ATOM     23  C   UNL     1       5.372   4.385  14.794  0.00  0.00    +0.000 A 
ATOM     24  C   UNL     1       6.466   4.373  13.964  0.00  0.00    +0.000 A 
ATOM     25  N   UNL     1       7.539   4.634  14.764  0.00  0.00    +0.000 N 
ATOM     26  N   UNL     1       7.204   4.922  16.036  0.00  0.00    +0.000 NA
ATOM     27  H   UNL     1       5.765   5.058  18.045  0.00  0.00    +0.000 HD
ATOM     28  H   UNL     1       8.520   4.644  14.506  0.00  0.00    +0.000 HD
BRANCH  24  29
ATOM     29  C   UNL     1       6.445   4.082  12.480  0.00  0.00    +0.000 C 
ATOM     30  C   UNL     1       6.369   2.645  12.014  0.00  0.00    +0.000 C 
ATOM     31  C   UNL     1       5.174   3.526  11.876  0.00  0.00    +0.000 C 
ENDBRANCH  24  29
ENDBRANCH  17  19
ENDBRANCH   4  17
TORSDOF 5
ENDMDL
MODEL 4
REMARK VINA RESULT:      -8.2      1.266      1.661
REMARK  Name = 
REMARK  6 active torsions:
REMARK  status: ('A' for Active; 'I' for Inactive)
REMARK    1  A    between atoms: C_2  and  C_3
REMARK    2  A    between atoms: C_9  and  C_10
REMARK    3  A    between atoms: C_13  and  C_14
REMARK    4  A    between atoms: C_14  and  C_15
REMARK    5  A    between atoms: C_14  and  C_16
REMARK    6  A    between atoms: C_21  and  C_22
REMARK                            x       y       z     vdW  Elec       q    Type
REMARK                         _______ _______ _______ _____ _____    ______ ____
ROOT
ATOM      1  C   UNL     1       1.680   8.049  19.444  0.00  0.00    +0.000 A 
ATOM      2  C   UNL     1       1.667   7.085  20.455  0.00  0.00    +0.000 A 
ATOM      3  C   UNL     1       2.333   5.869  20.280  0.00  0.00    +0.000 A 
ATOM      4  C   UNL     1       3.026   5.593  19.091  0.00  0.00    +0.000 A 
ATOM      5  C   UNL     1       3.031   6.562  18.078  0.00  0.00    +0.000 A 
ATOM      6  C   UNL     1       2.368   7.782  18.256  0.00  0.00    +0.000 A 
ENDROOT
BRANCH   1  13
ATOM      7  C   UNL     1      -0.704  11.194  22.335  0.00  0.00    +0.000 C 
ATOM      8  O   UNL     1      -0.398  10.554  23.344  0.00  0.00    +0.000 OA
ATOM      9  N   UNL     1      -0.416  10.793  21.047  0.00  0.00    +0.000 N 
ATOM     10  C   UNL     1      -0.737  11.540  19.827  0.00  0.00    +0.000 C 
ATOM     11  C   UNL     1       0.484  11.651  18.910  0.00  0.00    +0.000 C 
ATOM     12  C   UNL     1       1.187  10.336  18.758  0.00  0.00    +0.000 C 
ATOM     13  C   UNL     1       0.989   9.334  19.635  0.00  0.00    +0.000 C 
ATOM     14  C   UNL     1       0.107   9.438  20.858  0.00  0.00    +0.000 C 
BRANCH   7  16
ATOM     15  C   UNL     1      -0.861  13.522  23.072  0.00  0.00    +0.000 C 
ATOM     16  C   UNL     1      -1.448  12.471  22.487  0.00  0.00    +0.000 C 
ENDBRANCH   7  16
ENDBRANCH   1  13
BRANCH   4  17
ATOM     17  C   UNL     1       3.785   4.281  18.951  0.00  0.00    +0.000 C 
ATOM     18  C   UNL     1       4.884   4.178  20.016  0.00  0.00    +0.000 C 
BRANCH  17  19
ATOM     19  C   UNL     1       4.364   4.009  17.557  0.00  0.00    +0.000 C 
ATOM     20  O   UNL     1       3.860   3.168  16.811  0.00  0.00    +0.000 OA
ATOM     21  N   UNL     1       5.425   4.820  17.204  0.00  0.00    +0.000 N 
ATOM     22  C   UNL     1       6.007   4.708  15.962  0.00  0.00    +0.000 A 
ATOM     23  C   UNL     1       5.366   4.541  14.711  0.00  0.00    +0.000 A 
ATOM     24  C   UNL     1       6.389   4.351  13.814  0.00  0.00    +0.000 A 
ATOM     25  N   UNL     1       7.538   4.425  14.546  0.00  0.00    +0.000 N 
ATOM     26  N   UNL     1       7.335   4.758  15.835  0.00  0.00    +0.000 NA
ATOM     27  H   UNL     1       6.065   5.121  17.928  0.00  0.00    +0.000 HD
ATOM     28  H   UNL     1       8.489   4.273  14.227  0.00  0.00    +0.000 HD
BRANCH  24  29
ATOM     29  C   UNL     1       6.228   4.076  12.336  0.00  0.00    +0.000 C 
ATOM     30  C   UNL     1       6.408   2.663  11.827  0.00  0.00    +0.000 C 
ATOM     31  C   UNL     1       5.041   3.254  11.885  0.00  0.00    +0.000 C 
ENDBRANCH  24  29
ENDBRANCH  17  19
ENDBRANCH   4  17
TORSDOF 5
ENDMDL
MODEL 5
REMARK VINA RESULT:      -8.1      3.980     10.333
REMARK  Name = 
REMARK  6 active torsions:
REMARK  status: ('A' for Active; 'I' for Inactive)
REMARK    1  A    between atoms: C_2  and  C_3
REMARK    2  A    between atoms: C_9  and  C_10
REMARK    3  A    between atoms: C_13  and  C_14
REMARK    4  A    between atoms: C_14  and  C_15
REMARK    5  A    between atoms: C_14  and  C_16
REMARK    6  A    between atoms: C_21  and  C_22
REMARK                            x       y       z     vdW  Elec       q    Type
REMARK                         _______ _______ _______ _____ _____    ______ ____
ROOT
ATOM      1  C   UNL     1       2.139   8.054  18.690  0.00  0.00    +0.000 A 
ATOM      2  C   UNL     1       1.714   8.181  20.014  0.00  0.00    +0.000 A 
ATOM      3  C   UNL     1       0.957   9.287  20.410  0.00  0.00    +0.000 A 
ATOM      4  C   UNL     1       0.609  10.287  19.490  0.00  0.00    +0.000 A 
ATOM      5  C   UNL     1       1.042  10.158  18.163  0.00  0.00    +0.000 A 
ATOM      6  C   UNL     1       1.796   9.046  17.766  0.00  0.00    +0.000 A 
ENDROOT
BRANCH   1  13
ATOM      7  C   UNL     1       6.191   6.149  16.720  0.00  0.00    +0.000 C 
ATOM      8  O   UNL     1       6.769   7.236  16.767  0.00  0.00    +0.000 OA
ATOM      9  N   UNL     1       4.867   5.959  17.059  0.00  0.00    +0.000 N 
ATOM     10  C   UNL     1       4.155   4.677  17.044  0.00  0.00    +0.000 C 
ATOM     11  C   UNL     1       3.400   4.450  18.356  0.00  0.00    +0.000 C 
ATOM     12  C   UNL     1       2.634   5.668  18.775  0.00  0.00    +0.000 C 
ATOM     13  C   UNL     1       2.924   6.883  18.271  0.00  0.00    +0.000 C 
ATOM     14  C   UNL     1       4.050   7.151  17.299  0.00  0.00    +0.000 C 
BRANCH   7  16
ATOM     15  C   UNL     1       7.051   4.702  14.942  0.00  0.00    +0.000 C 
ATOM     16  C   UNL     1       6.938   4.952  16.252  0.00  0.00    +0.000 C 
ENDBRANCH   7  16
ENDBRANCH   1  13
BRANCH   4  17
ATOM     17  C   UNL     1      -0.260  11.453  19.940  0.00  0.00    +0.000 C 
ATOM     18  C   UNL     1      -1.746  11.107  19.786  0.00  0.00    +0.000 C 
BRANCH  17  19
ATOM     19  C   UNL     1       0.049  12.795  19.266  0.00  0.00    +0.000 C 
ATOM     20  O   UNL     1      -0.693  13.259  18.400  0.00  0.00    +0.000 OA
ATOM     21  N   UNL     1       1.166  13.444  19.757  0.00  0.00    +0.000 N 
ATOM     22  C   UNL     1       1.529  14.677  19.267  0.00  0.00    +0.000 A 
ATOM     23  C   UNL     1       0.689  15.776  18.964  0.00  0.00    +0.000 A 
ATOM     24  C   UNL     1       1.521  16.705  18.388  0.00  0.00    +0.000 A 
ATOM     25  N   UNL     1       2.762  16.140  18.390  0.00  0.00    +0.000 N 
ATOM     26  N   UNL     1       2.813  14.955  19.026  0.00  0.00    +0.000 NA
ATOM     27  H   UNL     1       1.948  12.886  20.074  0.00  0.00    +0.000 HD
ATOM     28  H   UNL     1       3.615  16.513  17.989  0.00  0.00    +0.000 HD
BRANCH  24  29
ATOM     29  C   UNL     1       1.097  18.049  17.838  0.00  0.00    +0.000 C 
ATOM     30  C   UNL     1       1.253  18.320  16.358  0.00  0.00    +0.000 C 
ATOM     31  C   UNL     1      -0.109  18.102  16.925  0.00  0.00    +0.000 C 
ENDBRANCH  24  29
ENDBRANCH  17  19
ENDBRANCH   4  17
TORSDOF 5
ENDMDL
MODEL 6
REMARK VINA RESULT:      -8.1      3.613     10.441
REMARK  Name = 
REMARK  6 active torsions:
REMARK  status: ('A' for Active; 'I' for Inactive)
REMARK    1  A    between atoms: C_2  and  C_3
REMARK    2  A    between atoms: C_9  and  C_10
REMARK    3  A    between atoms: C_13  and  C_14
REMARK    4  A    between atoms: C_14  and  C_15
REMARK    5  A    between atoms: C_14  and  C_16
REMARK    6  A    between atoms: C_21  and  C_22
REMARK                            x       y       z     vdW  Elec       q    Type
REMARK                         _______ _______ _______ _____ _____    ______ ____
ROOT
ATOM      1  C   UNL     1       2.176   8.149  18.619  0.00  0.00    +0.000 A 
ATOM      2  C   UNL     1       2.094   9.232  17.741  0.00  0.00    +0.000 A 
ATOM      3  C   UNL     1       1.420  10.397  18.117  0.00  0.00    +0.000 A 
ATOM      4  C   UNL     1       0.814  10.502  19.378  0.00  0.00    +0.000 A 
ATOM      5  C   UNL     1       0.894   9.410  20.254  0.00  0.00    +0.000 A 
ATOM      6  C   UNL     1       1.574   8.246  19.879  0.00  0.00    +0.000 A 
ENDROOT
BRANCH   1  13
ATOM      7  C   UNL     1       2.264   3.304  17.952  0.00  0.00    +0.000 C 
ATOM      8  O   UNL     1       1.040   3.227  18.079  0.00  0.00    +0.000 OA
ATOM      9  N   UNL     1       2.991   4.463  18.129  0.00  0.00    +0.000 N 
ATOM     10  C   UNL     1       4.441   4.598  17.958  0.00  0.00    +0.000 C 
ATOM     11  C   UNL     1       4.783   5.802  17.076  0.00  0.00    +0.000 C 
ATOM     12  C   UNL     1       4.011   7.023  17.476  0.00  0.00    +0.000 C 
ATOM     13  C   UNL     1       2.897   6.928  18.228  0.00  0.00    +0.000 C 
ATOM     14  C   UNL     1       2.294   5.622  18.691  0.00  0.00    +0.000 C 
BRANCH   7  16
ATOM     15  C   UNL     1       3.570   1.331  18.578  0.00  0.00    +0.000 C 
ATOM     16  C   UNL     1       3.033   2.079  17.608  0.00  0.00    +0.000 C 
ENDBRANCH   7  16
ENDBRANCH   1  13
BRANCH   4  17
ATOM     17  C   UNL     1       0.131  11.803  19.778  0.00  0.00    +0.000 C 
ATOM     18  C   UNL     1       0.722  12.340  21.087  0.00  0.00    +0.000 C 
BRANCH  17  19
ATOM     19  C   UNL     1      -1.397  11.735  19.869  0.00  0.00    +0.000 C 
ATOM     20  O   UNL     1      -1.979  11.872  20.947  0.00  0.00    +0.000 OA
ATOM     21  N   UNL     1      -2.042  11.581  18.656  0.00  0.00    +0.000 N 
ATOM     22  C   UNL     1      -3.416  11.550  18.594  0.00  0.00    +0.000 A 
ATOM     23  C   UNL     1      -4.339  12.369  19.289  0.00  0.00    +0.000 A 
ATOM     24  C   UNL     1      -5.572  11.848  18.980  0.00  0.00    +0.000 A 
ATOM     25  N   UNL     1      -5.330  10.799  18.143  0.00  0.00    +0.000 N 
ATOM     26  N   UNL     1      -4.034  10.671  17.801  0.00  0.00    +0.000 NA
ATOM     27  H   UNL     1      -1.589  11.035  17.935  0.00  0.00    +0.000 HD
ATOM     28  H   UNL     1      -6.000  10.142  17.760  0.00  0.00    +0.000 HD
BRANCH  24  29
ATOM     29  C   UNL     1      -6.897  12.341  19.516  0.00  0.00    +0.000 C 
ATOM     30  C   UNL     1      -7.088  13.822  19.760  0.00  0.00    +0.000 C 
ATOM     31  C   UNL     1      -7.775  13.173  18.607  0.00  0.00    +0.000 C 
ENDBRANCH  24  29
ENDBRANCH  17  19
ENDBRANCH   4  17
TORSDOF 5
ENDMDL
MODEL 7
REMARK VINA RESULT:      -8.1      3.419     10.595
REMARK  Name = 
REMARK  6 active torsions:
REMARK  status: ('A' for Active; 'I' for Inactive)
REMARK    1  A    between atoms: C_2  and  C_3
REMARK    2  A    between atoms: C_9  and  C_10
REMARK    3  A    between atoms: C_13  and  C_14
REMARK    4  A    between atoms: C_14  and  C_15
REMARK    5  A    between atoms: C_14  and  C_16
REMARK    6  A    between atoms: C_21  and  C_22
REMARK                            x       y       z     vdW  Elec       q    Type
REMARK                         _______ _______ _______ _____ _____    ______ ____
ROOT
ATOM      1  C   UNL     1       2.167   8.106  18.791  0.00  0.00    +0.000 A 
ATOM      2  C   UNL     1       2.084   9.155  17.872  0.00  0.00    +0.000 A 
ATOM      3  C   UNL     1       1.401  10.329  18.200  0.00  0.00    +0.000 A 
ATOM      4  C   UNL     1       0.788  10.479  19.453  0.00  0.00    +0.000 A 
ATOM      5  C   UNL     1       0.869   9.422  20.370  0.00  0.00    +0.000 A 
ATOM      6  C   UNL     1       1.558   8.248  20.043  0.00  0.00    +0.000 A 
ENDROOT
BRANCH   1  13
ATOM      7  C   UNL     1       5.976   5.884  16.675  0.00  0.00    +0.000 C 
ATOM      8  O   UNL     1       6.562   6.958  16.519  0.00  0.00    +0.000 OA
ATOM      9  N   UNL     1       4.695   5.766  17.173  0.00  0.00    +0.000 N 
ATOM     10  C   UNL     1       3.979   4.506  17.400  0.00  0.00    +0.000 C 
ATOM     11  C   UNL     1       3.365   4.466  18.802  0.00  0.00    +0.000 C 
ATOM     12  C   UNL     1       2.655   5.742  19.136  0.00  0.00    +0.000 C 
ATOM     13  C   UNL     1       2.897   6.876  18.450  0.00  0.00    +0.000 C 
ATOM     14  C   UNL     1       3.915   6.994  17.339  0.00  0.00    +0.000 C 
BRANCH   7  16
ATOM     15  C   UNL     1       6.724   4.257  15.008  0.00  0.00    +0.000 C 
ATOM     16  C   UNL     1       6.664   4.623  16.293  0.00  0.00    +0.000 C 
ENDBRANCH   7  16
ENDBRANCH   1  13
BRANCH   4  17
ATOM     17  C   UNL     1       0.096  11.790  19.799  0.00  0.00    +0.000 C 
ATOM     18  C   UNL     1       0.673  12.378  21.093  0.00  0.00    +0.000 C 
BRANCH  17  19
ATOM     19  C   UNL     1      -1.433  11.719  19.878  0.00  0.00    +0.000 C 
ATOM     20  O   UNL     1      -2.022  11.848  20.953  0.00  0.00    +0.000 OA
ATOM     21  N   UNL     1      -2.069  11.570  18.660  0.00  0.00    +0.000 N 
ATOM     22  C   UNL     1      -3.443  11.536  18.589  0.00  0.00    +0.000 A 
ATOM     23  C   UNL     1      -4.372  12.349  19.281  0.00  0.00    +0.000 A 
ATOM     24  C   UNL     1      -5.602  11.828  18.961  0.00  0.00    +0.000 A 
ATOM     25  N   UNL     1      -5.351  10.784  18.120  0.00  0.00    +0.000 N 
ATOM     26  N   UNL     1      -4.053  10.661  17.786  0.00  0.00    +0.000 NA
ATOM     27  H   UNL     1      -1.610  11.029  17.939  0.00  0.00    +0.000 HD
ATOM     28  H   UNL     1      -6.018  10.128  17.728  0.00  0.00    +0.000 HD
BRANCH  24  29
ATOM     29  C   UNL     1      -6.932  12.315  19.491  0.00  0.00    +0.000 C 
ATOM     30  C   UNL     1      -7.101  13.782  19.816  0.00  0.00    +0.000 C 
ATOM     31  C   UNL     1      -7.769  13.216  18.609  0.00  0.00    +0.000 C 
ENDBRANCH  24  29
ENDBRANCH  17  19
ENDBRANCH   4  17
TORSDOF 5
ENDMDL
MODEL 8
REMARK VINA RESULT:      -8.1      3.382     10.133
REMARK  Name = 
REMARK  6 active torsions:
REMARK  status: ('A' for Active; 'I' for Inactive)
REMARK    1  A    between atoms: C_2  and  C_3
REMARK    2  A    between atoms: C_9  and  C_10
REMARK    3  A    between atoms: C_13  and  C_14
REMARK    4  A    between atoms: C_14  and  C_15
REMARK    5  A    between atoms: C_14  and  C_16
REMARK    6  A    between atoms: C_21  and  C_22
REMARK                            x       y       z     vdW  Elec       q    Type
REMARK                         _______ _______ _______ _____ _____    ______ ____
ROOT
ATOM      1  C   UNL     1       2.426   7.190  18.944  0.00  0.00    +0.000 A 
ATOM      2  C   UNL     1       2.044   7.125  20.286  0.00  0.00    +0.000 A 
ATOM      3  C   UNL     1       1.366   8.193  20.880  0.00  0.00    +0.000 A 
ATOM      4  C   UNL     1       1.056   9.347  20.144  0.00  0.00    +0.000 A 
ATOM      5  C   UNL     1       1.446   9.409  18.799  0.00  0.00    +0.000 A 
ATOM      6  C   UNL     1       2.121   8.336  18.204  0.00  0.00    +0.000 A 
ENDROOT
BRANCH   1  13
ATOM      7  C   UNL     1       6.023   5.481  16.103  0.00  0.00    +0.000 C 
ATOM      8  O   UNL     1       6.582   6.579  16.089  0.00  0.00    +0.000 OA
ATOM      9  N   UNL     1       4.798   5.243  16.693  0.00  0.00    +0.000 N 
ATOM     10  C   UNL     1       4.117   3.945  16.756  0.00  0.00    +0.000 C 
ATOM     11  C   UNL     1       3.647   3.638  18.180  0.00  0.00    +0.000 C 
ATOM     12  C   UNL     1       2.963   4.816  18.807  0.00  0.00    +0.000 C 
ATOM     13  C   UNL     1       3.128   6.060  18.317  0.00  0.00    +0.000 C 
ATOM     14  C   UNL     1       4.029   6.401  17.153  0.00  0.00    +0.000 C 
BRANCH   7  16
ATOM     15  C   UNL     1       6.584   4.180  14.108  0.00  0.00    +0.000 C 
ATOM     16  C   UNL     1       6.678   4.327  15.434  0.00  0.00    +0.000 C 
ENDBRANCH   7  16
ENDBRANCH   1  13
BRANCH   4  17
ATOM     17  C   UNL     1       0.271  10.471  20.805  0.00  0.00    +0.000 C 
ATOM     18  C   UNL     1      -1.222  10.353  20.473  0.00  0.00    +0.000 C 
BRANCH  17  19
ATOM     19  C   UNL     1       0.777  11.886  20.500  0.00  0.00    +0.000 C 
ATOM     20  O   UNL     1       1.840  12.297  20.968  0.00  0.00    +0.000 OA
ATOM     21  N   UNL     1      -0.011  12.605  19.622  0.00  0.00    +0.000 N 
ATOM     22  C   UNL     1       0.355  13.873  19.232  0.00  0.00    +0.000 A 
ATOM     23  C   UNL     1       1.645  14.337  18.879  0.00  0.00    +0.000 A 
ATOM     24  C   UNL     1       1.494  15.691  18.701  0.00  0.00    +0.000 A 
ATOM     25  N   UNL     1       0.175  15.948  18.934  0.00  0.00    +0.000 N 
ATOM     26  N   UNL     1      -0.560  14.840  19.144  0.00  0.00    +0.000 NA
ATOM     27  H   UNL     1      -1.012  12.458  19.641  0.00  0.00    +0.000 HD
ATOM     28  H   UNL     1      -0.288  16.850  18.952  0.00  0.00    +0.000 HD
BRANCH  24  29
ATOM     29  C   UNL     1       2.600  16.665  18.359  0.00  0.00    +0.000 C 
ATOM     30  C   UNL     1       3.720  16.216  17.447  0.00  0.00    +0.000 C 
ATOM     31  C   UNL     1       2.696  17.171  16.937  0.00  0.00    +0.000 C 
ENDBRANCH  24  29
ENDBRANCH  17  19
ENDBRANCH   4  17
TORSDOF 5
ENDMDL
MODEL 9
REMARK VINA RESULT:      -8.1      1.675      2.493
REMARK  Name = 
REMARK  6 active torsions:
REMARK  status: ('A' for Active; 'I' for Inactive)
REMARK    1  A    between atoms: C_2  and  C_3
REMARK    2  A    between atoms: C_9  and  C_10
REMARK    3  A    between atoms: C_13  and  C_14
REMARK    4  A    between atoms: C_14  and  C_15
REMARK    5  A    between atoms: C_14  and  C_16
REMARK    6  A    between atoms: C_21  and  C_22
REMARK                            x       y       z     vdW  Elec       q    Type
REMARK                         _______ _______ _______ _____ _____    ______ ____
ROOT
ATOM      1  C   UNL     1       2.540   7.580  18.931  0.00  0.00    +0.000 A 
ATOM      2  C   UNL     1       3.299   7.823  17.784  0.00  0.00    +0.000 A 
ATOM      3  C   UNL     1       4.321   6.945  17.414  0.00  0.00    +0.000 A 
ATOM      4  C   UNL     1       4.605   5.806  18.184  0.00  0.00    +0.000 A 
ATOM      5  C   UNL     1       3.843   5.570  19.337  0.00  0.00    +0.000 A 
ATOM      6  C   UNL     1       2.816   6.447  19.704  0.00  0.00    +0.000 A 
ENDROOT
BRANCH   1  13
ATOM      7  C   UNL     1      -1.433  10.176  17.743  0.00  0.00    +0.000 C 
ATOM      8  O   UNL     1      -1.521   9.609  16.652  0.00  0.00    +0.000 OA
ATOM      9  N   UNL     1      -0.397   9.983  18.635  0.00  0.00    +0.000 N 
ATOM     10  C   UNL     1      -0.274  10.616  19.952  0.00  0.00    +0.000 C 
ATOM     11  C   UNL     1       0.037   9.580  21.035  0.00  0.00    +0.000 C 
ATOM     12  C   UNL     1       1.123   8.638  20.610  0.00  0.00    +0.000 C 
ATOM     13  C   UNL     1       1.455   8.498  19.312  0.00  0.00    +0.000 C 
ATOM     14  C   UNL     1       0.760   9.212  18.176  0.00  0.00    +0.000 C 
BRANCH   7  16
ATOM     15  C   UNL     1      -3.650  11.178  17.486  0.00  0.00    +0.000 C 
ATOM     16  C   UNL     1      -2.483  11.149  18.139  0.00  0.00    +0.000 C 
ENDBRANCH   7  16
ENDBRANCH   1  13
BRANCH   4  17
ATOM     17  C   UNL     1       5.689   4.841  17.727  0.00  0.00    +0.000 C 
ATOM     18  C   UNL     1       7.065   5.518  17.767  0.00  0.00    +0.000 C 
BRANCH  17  19
ATOM     19  C   UNL     1       5.451   4.195  16.357  0.00  0.00    +0.000 C 
ATOM     20  O   UNL     1       4.545   3.376  16.188  0.00  0.00    +0.000 OA
ATOM     21  N   UNL     1       6.275   4.655  15.349  0.00  0.00    +0.000 N 
ATOM     22  C   UNL     1       6.135   4.187  14.062  0.00  0.00    +0.000 A 
ATOM     23  C   UNL     1       4.936   3.955  13.346  0.00  0.00    +0.000 A 
ATOM     24  C   UNL     1       5.338   3.371  12.169  0.00  0.00    +0.000 A 
ATOM     25  N   UNL     1       6.698   3.302  12.238  0.00  0.00    +0.000 N 
ATOM     26  N   UNL     1       7.213   3.899  13.330  0.00  0.00    +0.000 NA
ATOM     27  H   UNL     1       7.223   4.921  15.584  0.00  0.00    +0.000 HD
ATOM     28  H   UNL     1       7.334   2.875  11.573  0.00  0.00    +0.000 HD
BRANCH  24  29
ATOM     29  C   UNL     1       4.423   2.880  11.070  0.00  0.00    +0.000 C 
ATOM     30  C   UNL     1       2.928   3.054  11.224  0.00  0.00    +0.000 C 
ATOM     31  C   UNL     1       3.670   3.907  10.252  0.00  0.00    +0.000 C 
ENDBRANCH  24  29
ENDBRANCH  17  19
ENDBRANCH   4  17
TORSDOF 5
ENDMDL
