MODEL 1
REMARK VINA RESULT:      -9.8      0.000      0.000
REMARK  Name = 
REMARK  5 active torsions:
REMARK  status: ('A' for Active; 'I' for Inactive)
REMARK    1  A    between atoms: C_4  and  C_5
REMARK    2  A    between atoms: C_5  and  S_6
REMARK    3  A    between atoms: S_6  and  C_7
REMARK    4  A    between atoms: N_10  and  C_11
REMARK    5  A    between atoms: C_11  and  C_12
REMARK                            x       y       z     vdW  Elec       q    Type
REMARK                         _______ _______ _______ _____ _____    ______ ____
ROOT
ATOM      1  C   UNL     1       2.585   6.840  18.389  0.00  0.00    +0.000 A 
ATOM      2  N   UNL     1       3.447   6.151  17.622  0.00  0.00    +0.000 NA
ATOM      3  C   UNL     1       3.773   4.906  18.013  0.00  0.00    +0.000 A 
ATOM      4  N   UNL     1       4.621   4.130  17.195  0.00  0.00    +0.000 N 
ATOM      5  C   UNL     1       3.230   4.326  19.177  0.00  0.00    +0.000 A 
ATOM      6  C   UNL     1       3.546   3.030  19.670  0.00  0.00    +0.000 A 
ATOM      7  C   UNL     1       3.027   2.570  20.875  0.00  0.00    +0.000 A 
ATOM      8  C   UNL     1       2.144   3.374  21.579  0.00  0.00    +0.000 A 
ATOM      9  C   UNL     1       1.801   4.633  21.075  0.00  0.00    +0.000 A 
ATOM     10  C   UNL     1       2.344   5.139  19.897  0.00  0.00    +0.000 A 
ATOM     11  N   UNL     1       2.019   6.380  19.514  0.00  0.00    +0.000 NA
ATOM     12  H   UNL     1       5.195   3.513  17.756  0.00  0.00    +0.000 HD
ENDROOT
BRANCH   1  13
ATOM     13  S   UNL     1       2.186   8.489  17.843  0.00  0.00    +0.000 S 
BRANCH  13  14
ATOM     14  C   UNL     1       1.592   9.223  19.404  0.00  0.00    +0.000 C 
BRANCH  14  18
ATOM     15  O   UNL     1      -1.907  12.246  20.760  0.00  0.00    +0.000 OA
ATOM     16  C   UNL     1      -1.483  11.483  19.890  0.00  0.00    +0.000 A 
ATOM     17  C   UNL     1      -0.197  10.802  20.117  0.00  0.00    +0.000 A 
ATOM     18  C   UNL     1       0.287   9.979  19.175  0.00  0.00    +0.000 A 
ATOM     19  N   UNL     1      -0.383   9.716  18.002  0.00  0.00    +0.000 NA
ATOM     20  C   UNL     1      -1.525  10.305  17.803  0.00  0.00    +0.000 A 
ATOM     21  C   UNL     1      -2.278  10.018  16.547  0.00  0.00    +0.000 A 
ATOM     22  C   UNL     1      -3.469  10.591  16.329  0.00  0.00    +0.000 A 
ATOM     23  C   UNL     1      -4.034  11.494  17.300  0.00  0.00    +0.000 A 
ATOM     24 CL   UNL     1      -5.568  12.199  16.979  0.00  0.00    +0.000 Cl
ATOM     25  C   UNL     1      -3.361  11.764  18.427  0.00  0.00    +0.000 A 
ATOM     26  N   UNL     1      -2.122  11.186  18.699  0.00  0.00    +0.000 N 
ENDBRANCH  14  18
ENDBRANCH  13  14
ENDBRANCH   1  13
BRANCH   4  27
ATOM     27  C   UNL     1       5.482   4.870  16.280  0.00  0.00    +0.000 C 
BRANCH  27  28
ATOM     28  C   UNL     1       6.479   5.653  17.111  0.00  0.00    +0.000 A 
ATOM     29  C   UNL     1       7.105   5.049  18.214  0.00  0.00    +0.000 A 
ATOM     30  C   UNL     1       7.992   5.770  19.014  0.00  0.00    +0.000 A 
ATOM     31  C   UNL     1       8.267   7.104  18.726  0.00  0.00    +0.000 A 
ATOM     32  C   UNL     1       7.655   7.718  17.633  0.00  0.00    +0.000 A 
ATOM     33  C   UNL     1       6.764   6.999  16.832  0.00  0.00    +0.000 A 
ENDBRANCH  27  28
ENDBRANCH   4  27
TORSDOF 5
ENDMDL
MODEL 2
REMARK VINA RESULT:      -9.6      1.493      2.359
REMARK  Name = 
REMARK  5 active torsions:
REMARK  status: ('A' for Active; 'I' for Inactive)
REMARK    1  A    between atoms: C_4  and  C_5
REMARK    2  A    between atoms: C_5  and  S_6
REMARK    3  A    between atoms: S_6  and  C_7
REMARK    4  A    between atoms: N_10  and  C_11
REMARK    5  A    between atoms: C_11  and  C_12
REMARK                            x       y       z     vdW  Elec       q    Type
REMARK                         _______ _______ _______ _____ _____    ______ ____
ROOT
ATOM      1  C   UNL     1       2.862   7.036  18.215  0.00  0.00    +0.000 A 
ATOM      2  N   UNL     1       3.843   6.529  17.449  0.00  0.00    +0.000 NA
ATOM      3  C   UNL     1       4.279   5.289  17.734  0.00  0.00    +0.000 A 
ATOM      4  N   UNL     1       5.260   4.701  16.907  0.00  0.00    +0.000 N 
ATOM      5  C   UNL     1       3.730   4.531  18.787  0.00  0.00    +0.000 A 
ATOM      6  C   UNL     1       4.156   3.229  19.166  0.00  0.00    +0.000 A 
ATOM      7  C   UNL     1       3.615   2.587  20.275  0.00  0.00    +0.000 A 
ATOM      8  C   UNL     1       2.604   3.212  20.988  0.00  0.00    +0.000 A 
ATOM      9  C   UNL     1       2.155   4.477  20.592  0.00  0.00    +0.000 A 
ATOM     10  C   UNL     1       2.714   5.163  19.517  0.00  0.00    +0.000 A 
ATOM     11  N   UNL     1       2.279   6.398  19.240  0.00  0.00    +0.000 NA
ATOM     12  H   UNL     1       5.862   4.089  17.444  0.00  0.00    +0.000 HD
ENDROOT
BRANCH   1  13
ATOM     13  S   UNL     1       2.317   8.685  17.813  0.00  0.00    +0.000 S 
BRANCH  13  14
ATOM     14  C   UNL     1       1.593   9.197  19.407  0.00  0.00    +0.000 C 
BRANCH  14  18
ATOM     15  O   UNL     1      -1.911  12.206  20.779  0.00  0.00    +0.000 OA
ATOM     16  C   UNL     1      -1.485  11.449  19.905  0.00  0.00    +0.000 A 
ATOM     17  C   UNL     1      -0.198  10.769  20.128  0.00  0.00    +0.000 A 
ATOM     18  C   UNL     1       0.288   9.951  19.182  0.00  0.00    +0.000 A 
ATOM     19  N   UNL     1      -0.382   9.694  18.007  0.00  0.00    +0.000 NA
ATOM     20  C   UNL     1      -1.524  10.283  17.811  0.00  0.00    +0.000 A 
ATOM     21  C   UNL     1      -2.276  10.002  16.553  0.00  0.00    +0.000 A 
ATOM     22  C   UNL     1      -3.468  10.575  16.338  0.00  0.00    +0.000 A 
ATOM     23  C   UNL     1      -4.035  11.471  17.314  0.00  0.00    +0.000 A 
ATOM     24 CL   UNL     1      -5.570  12.176  16.996  0.00  0.00    +0.000 Cl
ATOM     25  C   UNL     1      -3.363  11.735  18.443  0.00  0.00    +0.000 A 
ATOM     26  N   UNL     1      -2.123  11.158  18.712  0.00  0.00    +0.000 N 
ENDBRANCH  14  18
ENDBRANCH  13  14
ENDBRANCH   1  13
BRANCH   4  27
ATOM     27  C   UNL     1       6.090   5.623  16.141  0.00  0.00    +0.000 C 
BRANCH  27  28
ATOM     28  C   UNL     1       6.293   5.027  14.761  0.00  0.00    +0.000 A 
ATOM     29  C   UNL     1       5.361   4.110  14.246  0.00  0.00    +0.000 A 
ATOM     30  C   UNL     1       5.557   3.520  12.997  0.00  0.00    +0.000 A 
ATOM     31  C   UNL     1       6.683   3.839  12.243  0.00  0.00    +0.000 A 
ATOM     32  C   UNL     1       7.616   4.749  12.738  0.00  0.00    +0.000 A 
ATOM     33  C   UNL     1       7.424   5.339  13.991  0.00  0.00    +0.000 A 
ENDBRANCH  27  28
ENDBRANCH   4  27
TORSDOF 5
ENDMDL
MODEL 3
REMARK VINA RESULT:      -9.5      1.750      2.590
REMARK  Name = 
REMARK  5 active torsions:
REMARK  status: ('A' for Active; 'I' for Inactive)
REMARK    1  A    between atoms: C_4  and  C_5
REMARK    2  A    between atoms: C_5  and  S_6
REMARK    3  A    between atoms: S_6  and  C_7
REMARK    4  A    between atoms: N_10  and  C_11
REMARK    5  A    between atoms: C_11  and  C_12
REMARK                            x       y       z     vdW  Elec       q    Type
REMARK                         _______ _______ _______ _____ _____    ______ ____
ROOT
ATOM      1  C   UNL     1       2.848   6.644  17.912  0.00  0.00    +0.000 A 
ATOM      2  N   UNL     1       3.851   6.108  17.195  0.00  0.00    +0.000 NA
ATOM      3  C   UNL     1       4.026   4.777  17.264  0.00  0.00    +0.000 A 
ATOM      4  N   UNL     1       5.025   4.174  16.471  0.00  0.00    +0.000 N 
ATOM      5  C   UNL     1       3.188   3.956  18.046  0.00  0.00    +0.000 A 
ATOM      6  C   UNL     1       3.327   2.548  18.191  0.00  0.00    +0.000 A 
ATOM      7  C   UNL     1       2.506   1.828  19.052  0.00  0.00    +0.000 A 
ATOM      8  C   UNL     1       1.503   2.493  19.740  0.00  0.00    +0.000 A 
ATOM      9  C   UNL     1       1.340   3.872  19.567  0.00  0.00    +0.000 A 
ATOM     10  C   UNL     1       2.178   4.625  18.750  0.00  0.00    +0.000 A 
ATOM     11  N   UNL     1       2.003   5.951  18.688  0.00  0.00    +0.000 NA
ATOM     12  H   UNL     1       5.419   3.368  16.940  0.00  0.00    +0.000 HD
ENDROOT
BRANCH   1  13
ATOM     13  S   UNL     1       2.655   8.412  17.803  0.00  0.00    +0.000 S 
BRANCH  13  14
ATOM     14  C   UNL     1       1.819   8.756  19.387  0.00  0.00    +0.000 C 
BRANCH  14  18
ATOM     15  O   UNL     1      -1.466  12.018  20.724  0.00  0.00    +0.000 OA
ATOM     16  C   UNL     1      -1.100  11.215  19.863  0.00  0.00    +0.000 A 
ATOM     17  C   UNL     1       0.142  10.457  20.090  0.00  0.00    +0.000 A 
ATOM     18  C   UNL     1       0.563   9.590  19.158  0.00  0.00    +0.000 A 
ATOM     19  N   UNL     1      -0.135   9.351  17.995  0.00  0.00    +0.000 NA
ATOM     20  C   UNL     1      -1.238  10.009  17.797  0.00  0.00    +0.000 A 
ATOM     21  C   UNL     1      -2.021   9.751  16.553  0.00  0.00    +0.000 A 
ATOM     22  C   UNL     1      -3.175  10.395  16.336  0.00  0.00    +0.000 A 
ATOM     23  C   UNL     1      -3.671  11.347  17.297  0.00  0.00    +0.000 A 
ATOM     24 CL   UNL     1      -5.161  12.144  16.978  0.00  0.00    +0.000 Cl
ATOM     25  C   UNL     1      -2.971  11.592  18.413  0.00  0.00    +0.000 A 
ATOM     26  N   UNL     1      -1.768  10.941  18.683  0.00  0.00    +0.000 N 
ENDBRANCH  14  18
ENDBRANCH  13  14
ENDBRANCH   1  13
BRANCH   4  27
ATOM     27  C   UNL     1       6.113   5.045  16.039  0.00  0.00    +0.000 C 
BRANCH  27  28
ATOM     28  C   UNL     1       6.448   4.691  14.604  0.00  0.00    +0.000 A 
ATOM     29  C   UNL     1       7.485   5.364  13.936  0.00  0.00    +0.000 A 
ATOM     30  C   UNL     1       7.777   5.081  12.601  0.00  0.00    +0.000 A 
ATOM     31  C   UNL     1       7.039   4.121  11.914  0.00  0.00    +0.000 A 
ATOM     32  C   UNL     1       6.008   3.442  12.562  0.00  0.00    +0.000 A 
ATOM     33  C   UNL     1       5.712   3.726  13.899  0.00  0.00    +0.000 A 
ENDBRANCH  27  28
ENDBRANCH   4  27
TORSDOF 5
ENDMDL
MODEL 4
REMARK VINA RESULT:      -9.4      1.099      1.183
REMARK  Name = 
REMARK  5 active torsions:
REMARK  status: ('A' for Active; 'I' for Inactive)
REMARK    1  A    between atoms: C_4  and  C_5
REMARK    2  A    between atoms: C_5  and  S_6
REMARK    3  A    between atoms: S_6  and  C_7
REMARK    4  A    between atoms: N_10  and  C_11
REMARK    5  A    between atoms: C_11  and  C_12
REMARK                            x       y       z     vdW  Elec       q    Type
REMARK                         _______ _______ _______ _____ _____    ______ ____
ROOT
ATOM      1  C   UNL     1       1.815   6.984  20.062  0.00  0.00    +0.000 A 
ATOM      2  N   UNL     1       2.573   6.918  18.954  0.00  0.00    +0.000 NA
ATOM      3  C   UNL     1       2.894   5.699  18.488  0.00  0.00    +0.000 A 
ATOM      4  N   UNL     1       3.631   5.594  17.289  0.00  0.00    +0.000 N 
ATOM      5  C   UNL     1       2.450   4.520  19.121  0.00  0.00    +0.000 A 
ATOM      6  C   UNL     1       2.770   3.198  18.706  0.00  0.00    +0.000 A 
ATOM      7  C   UNL     1       2.358   2.092  19.441  0.00  0.00    +0.000 A 
ATOM      8  C   UNL     1       1.577   2.286  20.570  0.00  0.00    +0.000 A 
ATOM      9  C   UNL     1       1.227   3.585  20.956  0.00  0.00    +0.000 A 
ATOM     10  C   UNL     1       1.668   4.712  20.268  0.00  0.00    +0.000 A 
ATOM     11  N   UNL     1       1.349   5.924  20.737  0.00  0.00    +0.000 NA
ATOM     12  H   UNL     1       4.237   4.783  17.309  0.00  0.00    +0.000 HD
ENDROOT
BRANCH   1  13
ATOM     13  S   UNL     1       1.420   8.618  20.653  0.00  0.00    +0.000 S 
BRANCH  13  14
ATOM     14  C   UNL     1       1.342   9.534  19.078  0.00  0.00    +0.000 C 
BRANCH  14  18
ATOM     15  O   UNL     1      -2.216  12.354  20.692  0.00  0.00    +0.000 OA
ATOM     16  C   UNL     1      -1.801  11.638  19.779  0.00  0.00    +0.000 A 
ATOM     17  C   UNL     1      -0.477  11.009  19.923  0.00  0.00    +0.000 A 
ATOM     18  C   UNL     1      -0.003  10.237  18.935  0.00  0.00    +0.000 A 
ATOM     19  N   UNL     1      -0.717   9.979  17.786  0.00  0.00    +0.000 NA
ATOM     20  C   UNL     1      -1.892  10.522  17.660  0.00  0.00    +0.000 A 
ATOM     21  C   UNL     1      -2.691  10.239  16.431  0.00  0.00    +0.000 A 
ATOM     22  C   UNL     1      -3.915  10.765  16.288  0.00  0.00    +0.000 A 
ATOM     23  C   UNL     1      -4.471  11.611  17.312  0.00  0.00    +0.000 A 
ATOM     24 CL   UNL     1      -6.049  12.256  17.086  0.00  0.00    +0.000 Cl
ATOM     25  C   UNL     1      -3.758  11.877  18.415  0.00  0.00    +0.000 A 
ATOM     26  N   UNL     1      -2.483  11.348  18.610  0.00  0.00    +0.000 N 
ENDBRANCH  14  18
ENDBRANCH  13  14
ENDBRANCH   1  13
BRANCH   4  27
ATOM     27  C   UNL     1       4.421   6.762  16.918  0.00  0.00    +0.000 C 
BRANCH  27  28
ATOM     28  C   UNL     1       5.771   6.645  17.599  0.00  0.00    +0.000 A 
ATOM     29  C   UNL     1       6.013   5.601  18.508  0.00  0.00    +0.000 A 
ATOM     30  C   UNL     1       7.234   5.506  19.176  0.00  0.00    +0.000 A 
ATOM     31  C   UNL     1       8.232   6.449  18.945  0.00  0.00    +0.000 A 
ATOM     32  C   UNL     1       8.009   7.489  18.043  0.00  0.00    +0.000 A 
ATOM     33  C   UNL     1       6.785   7.589  17.376  0.00  0.00    +0.000 A 
ENDBRANCH  27  28
ENDBRANCH   4  27
TORSDOF 5
ENDMDL
MODEL 5
REMARK VINA RESULT:      -9.4      2.426      3.572
REMARK  Name = 
REMARK  5 active torsions:
REMARK  status: ('A' for Active; 'I' for Inactive)
REMARK    1  A    between atoms: C_4  and  C_5
REMARK    2  A    between atoms: C_5  and  S_6
REMARK    3  A    between atoms: S_6  and  C_7
REMARK    4  A    between atoms: N_10  and  C_11
REMARK    5  A    between atoms: C_11  and  C_12
REMARK                            x       y       z     vdW  Elec       q    Type
REMARK                         _______ _______ _______ _____ _____    ______ ____
ROOT
ATOM      1  C   UNL     1       2.659   6.449  18.175  0.00  0.00    +0.000 A 
ATOM      2  N   UNL     1       3.622   6.044  17.329  0.00  0.00    +0.000 NA
ATOM      3  C   UNL     1       3.878   4.726  17.260  0.00  0.00    +0.000 A 
ATOM      4  N   UNL     1       4.835   4.261  16.333  0.00  0.00    +0.000 N 
ATOM      5  C   UNL     1       3.163   3.788  18.031  0.00  0.00    +0.000 A 
ATOM      6  C   UNL     1       3.395   2.385  18.034  0.00  0.00    +0.000 A 
ATOM      7  C   UNL     1       2.698   1.541  18.892  0.00  0.00    +0.000 A 
ATOM      8  C   UNL     1       1.724   2.077  19.721  0.00  0.00    +0.000 A 
ATOM      9  C   UNL     1       1.468   3.452  19.690  0.00  0.00    +0.000 A 
ATOM     10  C   UNL     1       2.185   4.326  18.878  0.00  0.00    +0.000 A 
ATOM     11  N   UNL     1       1.929   5.638  18.953  0.00  0.00    +0.000 NA
ATOM     12  H   UNL     1       5.315   3.444  16.691  0.00  0.00    +0.000 HD
ENDROOT
BRANCH   1  13
ATOM     13  S   UNL     1       2.357   8.204  18.246  0.00  0.00    +0.000 S 
BRANCH  13  14
ATOM     14  C   UNL     1       1.822   8.382  19.981  0.00  0.00    +0.000 C 
BRANCH  14  18
ATOM     15  O   UNL     1      -1.145  11.703  18.141  0.00  0.00    +0.000 OA
ATOM     16  C   UNL     1      -0.738  11.132  19.154  0.00  0.00    +0.000 A 
ATOM     17  C   UNL     1       0.284  10.081  19.007  0.00  0.00    +0.000 A 
ATOM     18  C   UNL     1       0.730   9.439  20.097  0.00  0.00    +0.000 A 
ATOM     19  N   UNL     1       0.291   9.739  21.367  0.00  0.00    +0.000 NA
ATOM     20  C   UNL     1      -0.601  10.674  21.503  0.00  0.00    +0.000 A 
ATOM     21  C   UNL     1      -1.076  11.029  22.873  0.00  0.00    +0.000 A 
ATOM     22  C   UNL     1      -1.975  12.007  23.043  0.00  0.00    +0.000 A 
ATOM     23  C   UNL     1      -2.498  12.723  21.907  0.00  0.00    +0.000 A 
ATOM     24 CL   UNL     1      -3.646  13.976  22.176  0.00  0.00    +0.000 Cl
ATOM     25  C   UNL     1      -2.085  12.407  20.673  0.00  0.00    +0.000 A 
ATOM     26  N   UNL     1      -1.146  11.400  20.449  0.00  0.00    +0.000 N 
ENDBRANCH  14  18
ENDBRANCH  13  14
ENDBRANCH   1  13
BRANCH   4  27
ATOM     27  C   UNL     1       5.828   5.234  15.893  0.00  0.00    +0.000 C 
BRANCH  27  28
ATOM     28  C   UNL     1       6.275   4.842  14.498  0.00  0.00    +0.000 A 
ATOM     29  C   UNL     1       5.570   3.861  13.781  0.00  0.00    +0.000 A 
ATOM     30  C   UNL     1       5.995   3.458  12.515  0.00  0.00    +0.000 A 
ATOM     31  C   UNL     1       7.130   4.030  11.945  0.00  0.00    +0.000 A 
ATOM     32  C   UNL     1       7.840   5.006  12.642  0.00  0.00    +0.000 A 
ATOM     33  C   UNL     1       7.418   5.409  13.912  0.00  0.00    +0.000 A 
ENDBRANCH  27  28
ENDBRANCH   4  27
TORSDOF 5
ENDMDL
MODEL 6
REMARK VINA RESULT:      -9.3      1.144      2.101
REMARK  Name = 
REMARK  5 active torsions:
REMARK  status: ('A' for Active; 'I' for Inactive)
REMARK    1  A    between atoms: C_4  and  C_5
REMARK    2  A    between atoms: C_5  and  S_6
REMARK    3  A    between atoms: S_6  and  C_7
REMARK    4  A    between atoms: N_10  and  C_11
REMARK    5  A    between atoms: C_11  and  C_12
REMARK                            x       y       z     vdW  Elec       q    Type
REMARK                         _______ _______ _______ _____ _____    ______ ____
ROOT
ATOM      1  C   UNL     1       2.713   6.616  18.481  0.00  0.00    +0.000 A 
ATOM      2  N   UNL     1       3.840   6.062  18.002  0.00  0.00    +0.000 NA
ATOM      3  C   UNL     1       4.201   4.862  18.490  0.00  0.00    +0.000 A 
ATOM      4  N   UNL     1       5.341   4.221  17.959  0.00  0.00    +0.000 N 
ATOM      5  C   UNL     1       3.431   4.191  19.460  0.00  0.00    +0.000 A 
ATOM      6  C   UNL     1       3.762   2.936  20.043  0.00  0.00    +0.000 A 
ATOM      7  C   UNL     1       2.987   2.386  21.058  0.00  0.00    +0.000 A 
ATOM      8  C   UNL     1       1.842   3.053  21.469  0.00  0.00    +0.000 A 
ATOM      9  C   UNL     1       1.494   4.268  20.868  0.00  0.00    +0.000 A 
ATOM     10  C   UNL     1       2.279   4.865  19.885  0.00  0.00    +0.000 A 
ATOM     11  N   UNL     1       1.917   6.062  19.405  0.00  0.00    +0.000 NA
ATOM     12  H   UNL     1       5.808   3.672  18.670  0.00  0.00    +0.000 HD
ENDROOT
BRANCH   1  13
ATOM     13  S   UNL     1       2.273   8.211  17.817  0.00  0.00    +0.000 S 
BRANCH  13  14
ATOM     14  C   UNL     1       1.792   9.087  19.344  0.00  0.00    +0.000 C 
BRANCH  14  18
ATOM     15  O   UNL     1      -1.672  12.127  20.749  0.00  0.00    +0.000 OA
ATOM     16  C   UNL     1      -1.262  11.365  19.871  0.00  0.00    +0.000 A 
ATOM     17  C   UNL     1       0.022  10.675  20.082  0.00  0.00    +0.000 A 
ATOM     18  C   UNL     1       0.490   9.851  19.132  0.00  0.00    +0.000 A 
ATOM     19  N   UNL     1      -0.196   9.596  17.966  0.00  0.00    +0.000 NA
ATOM     20  C   UNL     1      -1.336  10.193  17.782  0.00  0.00    +0.000 A 
ATOM     21  C   UNL     1      -2.105   9.915  16.533  0.00  0.00    +0.000 A 
ATOM     22  C   UNL     1      -3.294  10.497  16.331  0.00  0.00    +0.000 A 
ATOM     23  C   UNL     1      -3.842  11.399  17.311  0.00  0.00    +0.000 A 
ATOM     24 CL   UNL     1      -5.376  12.116  17.009  0.00  0.00    +0.000 Cl
ATOM     25  C   UNL     1      -3.155  11.662  18.431  0.00  0.00    +0.000 A 
ATOM     26  N   UNL     1      -1.917  11.075  18.687  0.00  0.00    +0.000 N 
ENDBRANCH  14  18
ENDBRANCH  13  14
ENDBRANCH   1  13
BRANCH   4  27
ATOM     27  C   UNL     1       6.322   5.087  17.315  0.00  0.00    +0.000 C 
BRANCH  27  28
ATOM     28  C   UNL     1       6.364   4.724  15.843  0.00  0.00    +0.000 A 
ATOM     29  C   UNL     1       7.409   5.197  15.030  0.00  0.00    +0.000 A 
ATOM     30  C   UNL     1       7.438   4.908  13.666  0.00  0.00    +0.000 A 
ATOM     31  C   UNL     1       6.426   4.142  13.092  0.00  0.00    +0.000 A 
ATOM     32  C   UNL     1       5.384   3.663  13.885  0.00  0.00    +0.000 A 
ATOM     33  C   UNL     1       5.351   3.954  15.252  0.00  0.00    +0.000 A 
ENDBRANCH  27  28
ENDBRANCH   4  27
TORSDOF 5
ENDMDL
MODEL 7
REMARK VINA RESULT:      -9.3      2.602      3.648
REMARK  Name = 
REMARK  5 active torsions:
REMARK  status: ('A' for Active; 'I' for Inactive)
REMARK    1  A    between atoms: C_4  and  C_5
REMARK    2  A    between atoms: C_5  and  S_6
REMARK    3  A    between atoms: S_6  and  C_7
REMARK    4  A    between atoms: N_10  and  C_11
REMARK    5  A    between atoms: C_11  and  C_12
REMARK                            x       y       z     vdW  Elec       q    Type
REMARK                         _______ _______ _______ _____ _____    ______ ____
ROOT
ATOM      1  C   UNL     1       3.044   6.644  17.989  0.00  0.00    +0.000 A 
ATOM      2  N   UNL     1       3.990   6.071  17.225  0.00  0.00    +0.000 NA
ATOM      3  C   UNL     1       4.049   4.728  17.208  0.00  0.00    +0.000 A 
ATOM      4  N   UNL     1       4.984   4.093  16.364  0.00  0.00    +0.000 N 
ATOM      5  C   UNL     1       3.150   3.935  17.950  0.00  0.00    +0.000 A 
ATOM      6  C   UNL     1       3.168   2.514  18.005  0.00  0.00    +0.000 A 
ATOM      7  C   UNL     1       2.296   1.814  18.832  0.00  0.00    +0.000 A 
ATOM      8  C   UNL     1       1.360   2.518  19.575  0.00  0.00    +0.000 A 
ATOM      9  C   UNL     1       1.316   3.914  19.491  0.00  0.00    +0.000 A 
ATOM     10  C   UNL     1       2.209   4.642  18.710  0.00  0.00    +0.000 A 
ATOM     11  N   UNL     1       2.149   5.979  18.733  0.00  0.00    +0.000 NA
ATOM     12  H   UNL     1       5.311   3.228  16.777  0.00  0.00    +0.000 HD
ENDROOT
BRANCH   1  13
ATOM     13  S   UNL     1       3.005   8.427  17.993  0.00  0.00    +0.000 S 
BRANCH  13  14
ATOM     14  C   UNL     1       1.207   8.722  17.906  0.00  0.00    +0.000 C 
BRANCH  14  18
ATOM     15  O   UNL     1       1.137   9.550  22.653  0.00  0.00    +0.000 OA
ATOM     16  C   UNL     1       0.684   9.850  21.546  0.00  0.00    +0.000 A 
ATOM     17  C   UNL     1       1.199   9.146  20.360  0.00  0.00    +0.000 A 
ATOM     18  C   UNL     1       0.728   9.468  19.147  0.00  0.00    +0.000 A 
ATOM     19  N   UNL     1      -0.248  10.421  18.957  0.00  0.00    +0.000 NA
ATOM     20  C   UNL     1      -0.714  11.036  20.003  0.00  0.00    +0.000 A 
ATOM     21  C   UNL     1      -1.787  12.059  19.823  0.00  0.00    +0.000 A 
ATOM     22  C   UNL     1      -2.303  12.689  20.886  0.00  0.00    +0.000 A 
ATOM     23  C   UNL     1      -1.828  12.391  22.213  0.00  0.00    +0.000 A 
ATOM     24 CL   UNL     1      -2.527  13.221  23.547  0.00  0.00    +0.000 Cl
ATOM     25  C   UNL     1      -0.860  11.482  22.384  0.00  0.00    +0.000 A 
ATOM     26  N   UNL     1      -0.297  10.797  21.308  0.00  0.00    +0.000 N 
ENDBRANCH  14  18
ENDBRANCH  13  14
ENDBRANCH   1  13
BRANCH   4  27
ATOM     27  C   UNL     1       6.139   4.892  15.972  0.00  0.00    +0.000 C 
BRANCH  27  28
ATOM     28  C   UNL     1       6.453   4.574  14.523  0.00  0.00    +0.000 A 
ATOM     29  C   UNL     1       7.516   5.223  13.873  0.00  0.00    +0.000 A 
ATOM     30  C   UNL     1       7.789   4.973  12.528  0.00  0.00    +0.000 A 
ATOM     31  C   UNL     1       7.006   4.070  11.812  0.00  0.00    +0.000 A 
ATOM     32  C   UNL     1       5.949   3.416  12.443  0.00  0.00    +0.000 A 
ATOM     33  C   UNL     1       5.671   3.667  13.789  0.00  0.00    +0.000 A 
ENDBRANCH  27  28
ENDBRANCH   4  27
TORSDOF 5
ENDMDL
MODEL 8
REMARK VINA RESULT:      -9.1      2.496      3.666
REMARK  Name = 
REMARK  5 active torsions:
REMARK  status: ('A' for Active; 'I' for Inactive)
REMARK    1  A    between atoms: C_4  and  C_5
REMARK    2  A    between atoms: C_5  and  S_6
REMARK    3  A    between atoms: S_6  and  C_7
REMARK    4  A    between atoms: N_10  and  C_11
REMARK    5  A    between atoms: C_11  and  C_12
REMARK                            x       y       z     vdW  Elec       q    Type
REMARK                         _______ _______ _______ _____ _____    ______ ____
ROOT
ATOM      1  C   UNL     1       2.984   6.623  18.207  0.00  0.00    +0.000 A 
ATOM      2  N   UNL     1       3.919   6.082  17.407  0.00  0.00    +0.000 NA
ATOM      3  C   UNL     1       3.953   4.742  17.304  0.00  0.00    +0.000 A 
ATOM      4  N   UNL     1       4.876   4.144  16.420  0.00  0.00    +0.000 N 
ATOM      5  C   UNL     1       3.042   3.920  17.997  0.00  0.00    +0.000 A 
ATOM      6  C   UNL     1       3.033   2.498  17.962  0.00  0.00    +0.000 A 
ATOM      7  C   UNL     1       2.150   1.763  18.745  0.00  0.00    +0.000 A 
ATOM      8  C   UNL     1       1.229   2.435  19.533  0.00  0.00    +0.000 A 
ATOM      9  C   UNL     1       1.209   3.834  19.538  0.00  0.00    +0.000 A 
ATOM     10  C   UNL     1       2.115   4.594  18.802  0.00  0.00    +0.000 A 
ATOM     11  N   UNL     1       2.079   5.928  18.910  0.00  0.00    +0.000 NA
ATOM     12  H   UNL     1       5.188   3.249  16.776  0.00  0.00    +0.000 HD
ENDROOT
BRANCH   1  13
ATOM     13  S   UNL     1       2.977   8.401  18.324  0.00  0.00    +0.000 S 
BRANCH  13  14
ATOM     14  C   UNL     1       1.371   8.781  17.548  0.00  0.00    +0.000 C 
BRANCH  14  18
ATOM     15  O   UNL     1      -1.731  12.345  18.494  0.00  0.00    +0.000 OA
ATOM     16  C   UNL     1      -1.034  11.436  18.949  0.00  0.00    +0.000 A 
ATOM     17  C   UNL     1      -0.246  10.616  18.013  0.00  0.00    +0.000 A 
ATOM     18  C   UNL     1       0.508   9.615  18.489  0.00  0.00    +0.000 A 
ATOM     19  N   UNL     1       0.602   9.329  19.832  0.00  0.00    +0.000 NA
ATOM     20  C   UNL     1      -0.082  10.058  20.663  0.00  0.00    +0.000 A 
ATOM     21  C   UNL     1       0.022   9.778  22.126  0.00  0.00    +0.000 A 
ATOM     22  C   UNL     1      -0.652  10.531  23.005  0.00  0.00    +0.000 A 
ATOM     23  C   UNL     1      -1.486  11.614  22.551  0.00  0.00    +0.000 A 
ATOM     24 CL   UNL     1      -2.325  12.557  23.720  0.00  0.00    +0.000 Cl
ATOM     25  C   UNL     1      -1.592  11.867  21.240  0.00  0.00    +0.000 A 
ATOM     26  N   UNL     1      -0.906  11.115  20.289  0.00  0.00    +0.000 N 
ENDBRANCH  14  18
ENDBRANCH  13  14
ENDBRANCH   1  13
BRANCH   4  27
ATOM     27  C   UNL     1       6.045   4.946  16.076  0.00  0.00    +0.000 C 
BRANCH  27  28
ATOM     28  C   UNL     1       6.377   4.681  14.620  0.00  0.00    +0.000 A 
ATOM     29  C   UNL     1       5.636   3.738  13.889  0.00  0.00    +0.000 A 
ATOM     30  C   UNL     1       5.957   3.452  12.562  0.00  0.00    +0.000 A 
ATOM     31  C   UNL     1       7.022   4.103  11.944  0.00  0.00    +0.000 A 
ATOM     32  C   UNL     1       7.766   5.044  12.656  0.00  0.00    +0.000 A 
ATOM     33  C   UNL     1       7.448   5.330  13.986  0.00  0.00    +0.000 A 
ENDBRANCH  27  28
ENDBRANCH   4  27
TORSDOF 5
ENDMDL
MODEL 9
REMARK VINA RESULT:      -9.0      1.754      2.251
REMARK  Name = 
REMARK  5 active torsions:
REMARK  status: ('A' for Active; 'I' for Inactive)
REMARK    1  A    between atoms: C_4  and  C_5
REMARK    2  A    between atoms: C_5  and  S_6
REMARK    3  A    between atoms: S_6  and  C_7
REMARK    4  A    between atoms: N_10  and  C_11
REMARK    5  A    between atoms: C_11  and  C_12
REMARK                            x       y       z     vdW  Elec       q    Type
REMARK                         _______ _______ _______ _____ _____    ______ ____
ROOT
ATOM      1  C   UNL     1       2.655   6.380  18.254  0.00  0.00    +0.000 A 
ATOM      2  N   UNL     1       3.598   6.147  17.324  0.00  0.00    +0.000 NA
ATOM      3  C   UNL     1       3.970   4.871  17.119  0.00  0.00    +0.000 A 
ATOM      4  N   UNL     1       4.907   4.584  16.104  0.00  0.00    +0.000 N 
ATOM      5  C   UNL     1       3.393   3.804  17.836  0.00  0.00    +0.000 A 
ATOM      6  C   UNL     1       3.753   2.435  17.696  0.00  0.00    +0.000 A 
ATOM      7  C   UNL     1       3.192   1.455  18.507  0.00  0.00    +0.000 A 
ATOM      8  C   UNL     1       2.225   1.818  19.432  0.00  0.00    +0.000 A 
ATOM      9  C   UNL     1       1.841   3.159  19.543  0.00  0.00    +0.000 A 
ATOM     10  C   UNL     1       2.423   4.167  18.779  0.00  0.00    +0.000 A 
ATOM     11  N   UNL     1       2.052   5.436  18.990  0.00  0.00    +0.000 NA
ATOM     12  H   UNL     1       5.481   3.791  16.358  0.00  0.00    +0.000 HD
ENDROOT
BRANCH   1  13
ATOM     13  S   UNL     1       2.196   8.084  18.504  0.00  0.00    +0.000 S 
BRANCH  13  14
ATOM     14  C   UNL     1       1.837   8.075  20.292  0.00  0.00    +0.000 C 
BRANCH  14  18
ATOM     15  O   UNL     1      -0.485  10.904  23.426  0.00  0.00    +0.000 OA
ATOM     16  C   UNL     1      -0.318  10.592  22.246  0.00  0.00    +0.000 A 
ATOM     17  C   UNL     1       0.661   9.539  21.927  0.00  0.00    +0.000 A 
ATOM     18  C   UNL     1       0.866   9.195  20.647  0.00  0.00    +0.000 A 
ATOM     19  N   UNL     1       0.175   9.769  19.604  0.00  0.00    +0.000 NA
ATOM     20  C   UNL     1      -0.700  10.690  19.882  0.00  0.00    +0.000 A 
ATOM     21  C   UNL     1      -1.475  11.311  18.767  0.00  0.00    +0.000 A 
ATOM     22  C   UNL     1      -2.400  12.243  19.028  0.00  0.00    +0.000 A 
ATOM     23  C   UNL     1      -2.655  12.661  20.383  0.00  0.00    +0.000 A 
ATOM     24 CL   UNL     1      -3.858  13.856  20.668  0.00  0.00    +0.000 Cl
ATOM     25  C   UNL     1      -1.959  12.115  21.389  0.00  0.00    +0.000 A 
ATOM     26  N   UNL     1      -0.990  11.137  21.166  0.00  0.00    +0.000 N 
ENDBRANCH  14  18
ENDBRANCH  13  14
ENDBRANCH   1  13
BRANCH   4  27
ATOM     27  C   UNL     1       5.777   5.685  15.705  0.00  0.00    +0.000 C 
BRANCH  27  28
ATOM     28  C   UNL     1       6.652   6.038  16.891  0.00  0.00    +0.000 A 
ATOM     29  C   UNL     1       7.056   7.368  17.098  0.00  0.00    +0.000 A 
ATOM     30  C   UNL     1       7.897   7.700  18.160  0.00  0.00    +0.000 A 
ATOM     31  C   UNL     1       8.348   6.711  19.032  0.00  0.00    +0.000 A 
ATOM     32  C   UNL     1       7.955   5.387  18.841  0.00  0.00    +0.000 A 
ATOM     33  C   UNL     1       7.114   5.051  17.776  0.00  0.00    +0.000 A 
ENDBRANCH  27  28
ENDBRANCH   4  27
TORSDOF 5
ENDMDL
