MODEL 1
REMARK VINA RESULT:      -8.0      0.000      0.000
REMARK  Name = 
REMARK  9 active torsions:
REMARK  status: ('A' for Active; 'I' for Inactive)
REMARK    1  A    between atoms: C_1  and  C_2
REMARK    2  A    between atoms: C_2  and  N_3
REMARK    3  A    between atoms: N_3  and  C_23
REMARK    4  A    between atoms: C_4  and  C_6
REMARK    5  A    between atoms: C_6  and  C_7
REMARK    6  A    between atoms: C_7  and  S_8
REMARK    7  A    between atoms: S_8  and  C_11
REMARK    8  A    between atoms: C_16  and  C_17
REMARK    9  A    between atoms: C_27  and  C_28
REMARK                            x       y       z     vdW  Elec       q    Type
REMARK                         _______ _______ _______ _____ _____    ______ ____
ROOT
ATOM      1  S   UNL     1       1.868   4.433  20.663  0.00  0.00    +0.000 S 
ATOM      2  O   UNL     1       2.722   4.240  21.819  0.00  0.00    +0.000 OA
ATOM      3  O   UNL     1       0.716   3.580  20.453  0.00  0.00    +0.000 OA
ENDROOT
BRANCH   1   4
ATOM      4  C   UNL     1       2.942   4.352  19.229  0.00  0.00    +0.000 A 
ATOM      5  C   UNL     1       4.310   4.558  19.482  0.00  0.00    +0.000 A 
ATOM      6  C   UNL     1       5.223   4.564  18.432  0.00  0.00    +0.000 A 
ATOM      7  C   UNL     1       4.778   4.367  17.127  0.00  0.00    +0.000 A 
ATOM      8  C   UNL     1       3.426   4.137  16.870  0.00  0.00    +0.000 A 
ATOM      9  C   UNL     1       2.483   4.128  17.916  0.00  0.00    +0.000 A 
ATOM     10  C   UNL     1       1.039   3.916  17.553  0.00  0.00    +0.000 C 
ATOM     11  N   UNL     1       5.674   4.460  16.063  0.00  0.00    +0.000 N 
ATOM     12  C   UNL     1       7.014   4.648  16.277  0.00  0.00    +0.000 C 
ATOM     13  O   UNL     1       7.793   4.842  15.348  0.00  0.00    +0.000 OA
ATOM     14  C   UNL     1       7.450   4.495  17.732  0.00  0.00    +0.000 C 
ATOM     15  O   UNL     1       6.522   4.845  18.752  0.00  0.00    +0.000 OA
ATOM     16  H   UNL     1       5.359   4.451  15.102  0.00  0.00    +0.000 HD
ENDBRANCH   1   4
BRANCH   1  17
ATOM     17  C   UNL     1       1.285   6.115  20.668  0.00  0.00    +0.000 C 
BRANCH  17  18
ATOM     18  C   UNL     1       2.338   7.082  20.130  0.00  0.00    +0.000 C 
BRANCH  18  20
ATOM     19  N   UNL     1       1.099   9.268  20.194  0.00  0.00    +0.000 N 
ATOM     20  C   UNL     1       1.672   8.243  19.419  0.00  0.00    +0.000 C 
ATOM     21  O   UNL     1       1.734   8.254  18.186  0.00  0.00    +0.000 OA
BRANCH  19  22
ATOM     22  C   UNL     1       0.421  10.374  19.547  0.00  0.00    +0.000 A 
ATOM     23  C   UNL     1       0.988  11.659  19.501  0.00  0.00    +0.000 A 
ATOM     24  C   UNL     1       0.329  12.729  18.882  0.00  0.00    +0.000 A 
ATOM     25  C   UNL     1      -0.917  12.535  18.292  0.00  0.00    +0.000 A 
ATOM     26  C   UNL     1      -1.507  11.271  18.312  0.00  0.00    +0.000 A 
ATOM     27  C   UNL     1      -2.860  11.039  17.706  0.00  0.00    +0.000 C 
ATOM     28  C   UNL     1      -0.823  10.204  18.919  0.00  0.00    +0.000 A 
ENDBRANCH  19  22
BRANCH  19  30
ATOM     29  C   UNL     1      -0.302   9.289  22.304  0.00  0.00    +0.000 C 
ATOM     30  C   UNL     1       1.086   9.269  21.674  0.00  0.00    +0.000 C 
ENDBRANCH  19  30
ENDBRANCH  18  20
ENDBRANCH  17  18
ENDBRANCH   1  17
TORSDOF 6
ENDMDL
MODEL 2
REMARK VINA RESULT:      -7.9      2.966      8.528
REMARK  Name = 
REMARK  9 active torsions:
REMARK  status: ('A' for Active; 'I' for Inactive)
REMARK    1  A    between atoms: C_1  and  C_2
REMARK    2  A    between atoms: C_2  and  N_3
REMARK    3  A    between atoms: N_3  and  C_23
REMARK    4  A    between atoms: C_4  and  C_6
REMARK    5  A    between atoms: C_6  and  C_7
REMARK    6  A    between atoms: C_7  and  S_8
REMARK    7  A    between atoms: S_8  and  C_11
REMARK    8  A    between atoms: C_16  and  C_17
REMARK    9  A    between atoms: C_27  and  C_28
REMARK                            x       y       z     vdW  Elec       q    Type
REMARK                         _______ _______ _______ _____ _____    ______ ____
ROOT
ATOM      1  S   UNL     1       0.180  10.285  21.369  0.00  0.00    +0.000 S 
ATOM      2  O   UNL     1      -0.474   9.301  22.208  0.00  0.00    +0.000 OA
ATOM      3  O   UNL     1       0.753  11.481  21.953  0.00  0.00    +0.000 OA
ENDROOT
BRANCH   1   4
ATOM      4  C   UNL     1      -1.017  10.746  20.114  0.00  0.00    +0.000 A 
ATOM      5  C   UNL     1      -0.950  10.018  18.913  0.00  0.00    +0.000 A 
ATOM      6  C   UNL     1      -1.800  10.329  17.858  0.00  0.00    +0.000 A 
ATOM      7  C   UNL     1      -2.720  11.367  17.992  0.00  0.00    +0.000 A 
ATOM      8  C   UNL     1      -2.809  12.079  19.189  0.00  0.00    +0.000 A 
ATOM      9  C   UNL     1      -1.957  11.783  20.271  0.00  0.00    +0.000 A 
ATOM     10  C   UNL     1      -2.087  12.624  21.511  0.00  0.00    +0.000 C 
ATOM     11  N   UNL     1      -3.513  11.741  16.908  0.00  0.00    +0.000 N 
ATOM     12  C   UNL     1      -3.481  11.044  15.730  0.00  0.00    +0.000 C 
ATOM     13  O   UNL     1      -4.091  11.430  14.736  0.00  0.00    +0.000 OA
ATOM     14  C   UNL     1      -2.718   9.723  15.797  0.00  0.00    +0.000 C 
ATOM     15  O   UNL     1      -1.623   9.624  16.699  0.00  0.00    +0.000 OA
ATOM     16  H   UNL     1      -4.092  12.570  16.936  0.00  0.00    +0.000 HD
ENDBRANCH   1   4
BRANCH   1  17
ATOM     17  C   UNL     1       1.472   9.475  20.451  0.00  0.00    +0.000 C 
BRANCH  17  18
ATOM     18  C   UNL     1       1.428   7.959  20.626  0.00  0.00    +0.000 C 
BRANCH  18  20
ATOM     19  N   UNL     1       2.613   5.925  19.744  0.00  0.00    +0.000 N 
ATOM     20  C   UNL     1       2.278   7.281  19.571  0.00  0.00    +0.000 C 
ATOM     21  O   UNL     1       2.573   7.949  18.576  0.00  0.00    +0.000 OA
BRANCH  19  22
ATOM     22  C   UNL     1       3.458   5.256  18.774  0.00  0.00    +0.000 A 
ATOM     23  C   UNL     1       2.913   4.477  17.739  0.00  0.00    +0.000 A 
ATOM     24  C   UNL     1       3.730   3.825  16.806  0.00  0.00    +0.000 A 
ATOM     25  C   UNL     1       5.115   3.941  16.888  0.00  0.00    +0.000 A 
ATOM     26  C   UNL     1       5.690   4.714  17.898  0.00  0.00    +0.000 A 
ATOM     27  C   UNL     1       7.180   4.835  18.025  0.00  0.00    +0.000 C 
ATOM     28  C   UNL     1       4.856   5.377  18.813  0.00  0.00    +0.000 A 
ENDBRANCH  19  22
BRANCH  19  30
ATOM     29  C   UNL     1       1.136   4.068  20.630  0.00  0.00    +0.000 C 
ATOM     30  C   UNL     1       2.201   5.120  20.916  0.00  0.00    +0.000 C 
ENDBRANCH  19  30
ENDBRANCH  18  20
ENDBRANCH  17  18
ENDBRANCH   1  17
TORSDOF 6
ENDMDL
MODEL 3
REMARK VINA RESULT:      -7.9      0.380      1.337
REMARK  Name = 
REMARK  9 active torsions:
REMARK  status: ('A' for Active; 'I' for Inactive)
REMARK    1  A    between atoms: C_1  and  C_2
REMARK    2  A    between atoms: C_2  and  N_3
REMARK    3  A    between atoms: N_3  and  C_23
REMARK    4  A    between atoms: C_4  and  C_6
REMARK    5  A    between atoms: C_6  and  C_7
REMARK    6  A    between atoms: C_7  and  S_8
REMARK    7  A    between atoms: S_8  and  C_11
REMARK    8  A    between atoms: C_16  and  C_17
REMARK    9  A    between atoms: C_27  and  C_28
REMARK                            x       y       z     vdW  Elec       q    Type
REMARK                         _______ _______ _______ _____ _____    ______ ____
ROOT
ATOM      1  S   UNL     1       1.936   4.304  20.671  0.00  0.00    +0.000 S 
ATOM      2  O   UNL     1       2.827   4.238  21.813  0.00  0.00    +0.000 OA
ATOM      3  O   UNL     1       0.875   3.330  20.513  0.00  0.00    +0.000 OA
ENDROOT
BRANCH   1   4
ATOM      4  C   UNL     1       2.987   4.282  19.217  0.00  0.00    +0.000 A 
ATOM      5  C   UNL     1       4.361   4.466  19.457  0.00  0.00    +0.000 A 
ATOM      6  C   UNL     1       5.256   4.515  18.394  0.00  0.00    +0.000 A 
ATOM      7  C   UNL     1       4.790   4.385  17.087  0.00  0.00    +0.000 A 
ATOM      8  C   UNL     1       3.431   4.178  16.843  0.00  0.00    +0.000 A 
ATOM      9  C   UNL     1       2.505   4.126  17.902  0.00  0.00    +0.000 A 
ATOM     10  C   UNL     1       1.054   3.943  17.553  0.00  0.00    +0.000 C 
ATOM     11  N   UNL     1       5.669   4.522  16.015  0.00  0.00    +0.000 N 
ATOM     12  C   UNL     1       7.013   4.688  16.215  0.00  0.00    +0.000 C 
ATOM     13  O   UNL     1       7.780   4.921  15.284  0.00  0.00    +0.000 OA
ATOM     14  C   UNL     1       7.472   4.462  17.654  0.00  0.00    +0.000 C 
ATOM     15  O   UNL     1       6.564   4.770  18.705  0.00  0.00    +0.000 OA
ATOM     16  H   UNL     1       5.338   4.562  15.060  0.00  0.00    +0.000 HD
ENDBRANCH   1   4
BRANCH   1  17
ATOM     17  C   UNL     1       1.185   5.916  20.633  0.00  0.00    +0.000 C 
BRANCH  17  18
ATOM     18  C   UNL     1       2.224   7.024  20.477  0.00  0.00    +0.000 C 
BRANCH  18  20
ATOM     19  N   UNL     1       1.070   9.257  20.469  0.00  0.00    +0.000 N 
ATOM     20  C   UNL     1       1.632   8.201  19.728  0.00  0.00    +0.000 C 
ATOM     21  O   UNL     1       1.741   8.194  18.498  0.00  0.00    +0.000 OA
BRANCH  19  22
ATOM     22  C   UNL     1       0.460  10.379  19.785  0.00  0.00    +0.000 A 
ATOM     23  C   UNL     1      -0.815  10.280  19.200  0.00  0.00    +0.000 A 
ATOM     24  C   UNL     1      -1.401  11.364  18.533  0.00  0.00    +0.000 A 
ATOM     25  C   UNL     1      -0.723  12.576  18.438  0.00  0.00    +0.000 A 
ATOM     26  C   UNL     1       0.541  12.713  19.014  0.00  0.00    +0.000 A 
ATOM     27  C   UNL     1       1.306  13.999  18.904  0.00  0.00    +0.000 C 
ATOM     28  C   UNL     1       1.106  11.623  19.696  0.00  0.00    +0.000 A 
ENDBRANCH  19  22
BRANCH  19  30
ATOM     29  C   UNL     1      -0.378   9.582  22.521  0.00  0.00    +0.000 C 
ATOM     30  C   UNL     1       1.000   9.277  21.948  0.00  0.00    +0.000 C 
ENDBRANCH  19  30
ENDBRANCH  18  20
ENDBRANCH  17  18
ENDBRANCH   1  17
TORSDOF 6
ENDMDL
MODEL 4
REMARK VINA RESULT:      -7.9      3.213      8.734
REMARK  Name = 
REMARK  9 active torsions:
REMARK  status: ('A' for Active; 'I' for Inactive)
REMARK    1  A    between atoms: C_1  and  C_2
REMARK    2  A    between atoms: C_2  and  N_3
REMARK    3  A    between atoms: N_3  and  C_23
REMARK    4  A    between atoms: C_4  and  C_6
REMARK    5  A    between atoms: C_6  and  C_7
REMARK    6  A    between atoms: C_7  and  S_8
REMARK    7  A    between atoms: S_8  and  C_11
REMARK    8  A    between atoms: C_16  and  C_17
REMARK    9  A    between atoms: C_27  and  C_28
REMARK                            x       y       z     vdW  Elec       q    Type
REMARK                         _______ _______ _______ _____ _____    ______ ____
ROOT
ATOM      1  S   UNL     1       0.204   9.388  22.466  0.00  0.00    +0.000 S 
ATOM      2  O   UNL     1      -0.995   8.608  22.227  0.00  0.00    +0.000 OA
ATOM      3  O   UNL     1       0.738   9.518  23.807  0.00  0.00    +0.000 OA
ENDROOT
BRANCH   1   4
ATOM      4  C   UNL     1      -0.119  11.018  21.791  0.00  0.00    +0.000 A 
ATOM      5  C   UNL     1       0.753  11.438  20.771  0.00  0.00    +0.000 A 
ATOM      6  C   UNL     1       0.620  12.705  20.214  0.00  0.00    +0.000 A 
ATOM      7  C   UNL     1      -0.380  13.562  20.670  0.00  0.00    +0.000 A 
ATOM      8  C   UNL     1      -1.264  13.144  21.666  0.00  0.00    +0.000 A 
ATOM      9  C   UNL     1      -1.149  11.866  22.246  0.00  0.00    +0.000 A 
ATOM     10  C   UNL     1      -2.113  11.507  23.342  0.00  0.00    +0.000 C 
ATOM     11  N   UNL     1      -0.462  14.864  20.179  0.00  0.00    +0.000 N 
ATOM     12  C   UNL     1       0.364  15.298  19.177  0.00  0.00    +0.000 C 
ATOM     13  O   UNL     1       0.375  16.471  18.814  0.00  0.00    +0.000 OA
ATOM     14  C   UNL     1       1.174  14.194  18.501  0.00  0.00    +0.000 C 
ATOM     15  O   UNL     1       1.552  13.065  19.280  0.00  0.00    +0.000 OA
ATOM     16  H   UNL     1      -1.091  15.545  20.584  0.00  0.00    +0.000 HD
ENDBRANCH   1   4
BRANCH   1  17
ATOM     17  C   UNL     1       1.508   8.749  21.438  0.00  0.00    +0.000 C 
BRANCH  17  18
ATOM     18  C   UNL     1       1.248   7.302  21.025  0.00  0.00    +0.000 C 
BRANCH  18  20
ATOM     19  N   UNL     1       2.702   5.562  19.939  0.00  0.00    +0.000 N 
ATOM     20  C   UNL     1       2.215   6.882  19.936  0.00  0.00    +0.000 C 
ATOM     21  O   UNL     1       2.469   7.715  19.061  0.00  0.00    +0.000 OA
BRANCH  19  22
ATOM     22  C   UNL     1       3.658   5.138  18.936  0.00  0.00    +0.000 A 
ATOM     23  C   UNL     1       3.246   4.522  17.742  0.00  0.00    +0.000 A 
ATOM     24  C   UNL     1       4.172   4.106  16.775  0.00  0.00    +0.000 A 
ATOM     25  C   UNL     1       5.534   4.300  16.983  0.00  0.00    +0.000 A 
ATOM     26  C   UNL     1       5.979   4.916  18.154  0.00  0.00    +0.000 A 
ATOM     27  C   UNL     1       7.443   5.115  18.416  0.00  0.00    +0.000 C 
ATOM     28  C   UNL     1       5.036   5.345  19.104  0.00  0.00    +0.000 A 
ENDBRANCH  19  22
BRANCH  19  30
ATOM     29  C   UNL     1       1.130   3.697  20.623  0.00  0.00    +0.000 C 
ATOM     30  C   UNL     1       2.341   4.556  20.964  0.00  0.00    +0.000 C 
ENDBRANCH  19  30
ENDBRANCH  18  20
ENDBRANCH  17  18
ENDBRANCH   1  17
TORSDOF 6
ENDMDL
MODEL 5
REMARK VINA RESULT:      -7.9      1.679      2.229
REMARK  Name = 
REMARK  9 active torsions:
REMARK  status: ('A' for Active; 'I' for Inactive)
REMARK    1  A    between atoms: C_1  and  C_2
REMARK    2  A    between atoms: C_2  and  N_3
REMARK    3  A    between atoms: N_3  and  C_23
REMARK    4  A    between atoms: C_4  and  C_6
REMARK    5  A    between atoms: C_6  and  C_7
REMARK    6  A    between atoms: C_7  and  S_8
REMARK    7  A    between atoms: S_8  and  C_11
REMARK    8  A    between atoms: C_16  and  C_17
REMARK    9  A    between atoms: C_27  and  C_28
REMARK                            x       y       z     vdW  Elec       q    Type
REMARK                         _______ _______ _______ _____ _____    ______ ____
ROOT
ATOM      1  S   UNL     1       1.882   4.580  20.698  0.00  0.00    +0.000 S 
ATOM      2  O   UNL     1       2.229   3.710  21.805  0.00  0.00    +0.000 OA
ATOM      3  O   UNL     1       0.547   4.552  20.136  0.00  0.00    +0.000 OA
ENDROOT
BRANCH   1   4
ATOM      4  C   UNL     1       3.082   4.245  19.406  0.00  0.00    +0.000 A 
ATOM      5  C   UNL     1       4.202   5.095  19.383  0.00  0.00    +0.000 A 
ATOM      6  C   UNL     1       5.167   4.952  18.392  0.00  0.00    +0.000 A 
ATOM      7  C   UNL     1       5.021   3.966  17.418  0.00  0.00    +0.000 A 
ATOM      8  C   UNL     1       3.924   3.104  17.449  0.00  0.00    +0.000 A 
ATOM      9  C   UNL     1       2.933   3.230  18.442  0.00  0.00    +0.000 A 
ATOM     10  C   UNL     1       1.761   2.289  18.381  0.00  0.00    +0.000 C 
ATOM     11  N   UNL     1       5.938   3.876  16.372  0.00  0.00    +0.000 N 
ATOM     12  C   UNL     1       7.046   4.680  16.328  0.00  0.00    +0.000 C 
ATOM     13  O   UNL     1       7.799   4.686  15.357  0.00  0.00    +0.000 OA
ATOM     14  C   UNL     1       7.306   5.471  17.608  0.00  0.00    +0.000 C 
ATOM     15  O   UNL     1       6.187   5.864  18.394  0.00  0.00    +0.000 OA
ATOM     16  H   UNL     1       5.786   3.259  15.585  0.00  0.00    +0.000 HD
ENDBRANCH   1   4
BRANCH   1  17
ATOM     17  C   UNL     1       2.221   6.260  21.174  0.00  0.00    +0.000 C 
BRANCH  17  18
ATOM     18  C   UNL     1       1.646   7.261  20.174  0.00  0.00    +0.000 C 
BRANCH  18  20
ATOM     19  N   UNL     1       0.749   9.608  20.110  0.00  0.00    +0.000 N 
ATOM     20  C   UNL     1       1.228   8.534  20.882  0.00  0.00    +0.000 C 
ATOM     21  O   UNL     1       1.270   8.527  22.116  0.00  0.00    +0.000 OA
BRANCH  19  22
ATOM     22  C   UNL     1       0.377  10.854  20.751  0.00  0.00    +0.000 A 
ATOM     23  C   UNL     1       1.141  12.022  20.584  0.00  0.00    +0.000 A 
ATOM     24  C   UNL     1       0.785  13.225  21.209  0.00  0.00    +0.000 A 
ATOM     25  C   UNL     1      -0.347  13.285  22.016  0.00  0.00    +0.000 A 
ATOM     26  C   UNL     1      -1.133  12.146  22.198  0.00  0.00    +0.000 A 
ATOM     27  C   UNL     1      -2.344  12.175  23.084  0.00  0.00    +0.000 C 
ATOM     28  C   UNL     1      -0.774  10.953  21.548  0.00  0.00    +0.000 A 
ENDBRANCH  19  22
BRANCH  19  30
ATOM     29  C   UNL     1       1.965   9.792  17.896  0.00  0.00    +0.000 C 
ATOM     30  C   UNL     1       0.649   9.578  18.633  0.00  0.00    +0.000 C 
ENDBRANCH  19  30
ENDBRANCH  18  20
ENDBRANCH  17  18
ENDBRANCH   1  17
TORSDOF 6
ENDMDL
MODEL 6
REMARK VINA RESULT:      -7.8      3.350      8.859
REMARK  Name = 
REMARK  9 active torsions:
REMARK  status: ('A' for Active; 'I' for Inactive)
REMARK    1  A    between atoms: C_1  and  C_2
REMARK    2  A    between atoms: C_2  and  N_3
REMARK    3  A    between atoms: N_3  and  C_23
REMARK    4  A    between atoms: C_4  and  C_6
REMARK    5  A    between atoms: C_6  and  C_7
REMARK    6  A    between atoms: C_7  and  S_8
REMARK    7  A    between atoms: S_8  and  C_11
REMARK    8  A    between atoms: C_16  and  C_17
REMARK    9  A    between atoms: C_27  and  C_28
REMARK                            x       y       z     vdW  Elec       q    Type
REMARK                         _______ _______ _______ _____ _____    ______ ____
ROOT
ATOM      1  S   UNL     1       0.332  10.161  18.728  0.00  0.00    +0.000 S 
ATOM      2  O   UNL     1      -0.768   9.988  17.799  0.00  0.00    +0.000 OA
ATOM      3  O   UNL     1       0.227   9.668  20.086  0.00  0.00    +0.000 OA
ENDROOT
BRANCH   1   4
ATOM      4  C   UNL     1       0.691  11.918  18.755  0.00  0.00    +0.000 A 
ATOM      5  C   UNL     1       2.005  12.276  18.406  0.00  0.00    +0.000 A 
ATOM      6  C   UNL     1       2.401  13.609  18.443  0.00  0.00    +0.000 A 
ATOM      7  C   UNL     1       1.492  14.592  18.830  0.00  0.00    +0.000 A 
ATOM      8  C   UNL     1       0.179  14.247  19.155  0.00  0.00    +0.000 A 
ATOM      9  C   UNL     1      -0.245  12.904  19.127  0.00  0.00    +0.000 A 
ATOM     10  C   UNL     1      -1.663  12.611  19.532  0.00  0.00    +0.000 C 
ATOM     11  N   UNL     1       1.907  15.917  18.954  0.00  0.00    +0.000 N 
ATOM     12  C   UNL     1       3.175  16.299  18.609  0.00  0.00    +0.000 C 
ATOM     13  O   UNL     1       3.584  17.438  18.819  0.00  0.00    +0.000 OA
ATOM     14  C   UNL     1       3.978  15.233  17.866  0.00  0.00    +0.000 C 
ATOM     15  O   UNL     1       3.714  13.867  18.161  0.00  0.00    +0.000 OA
ATOM     16  H   UNL     1       1.306  16.625  19.356  0.00  0.00    +0.000 HD
ENDBRANCH   1   4
BRANCH   1  17
ATOM     17  C   UNL     1       1.792   9.436  18.014  0.00  0.00    +0.000 C 
BRANCH  17  18
ATOM     18  C   UNL     1       2.002   7.999  18.486  0.00  0.00    +0.000 C 
BRANCH  18  20
ATOM     19  N   UNL     1       3.713   6.166  18.312  0.00  0.00    +0.000 N 
ATOM     20  C   UNL     1       3.250   7.415  17.857  0.00  0.00    +0.000 C 
ATOM     21  O   UNL     1       3.755   8.045  16.923  0.00  0.00    +0.000 OA
BRANCH  19  22
ATOM     22  C   UNL     1       4.926   5.596  17.760  0.00  0.00    +0.000 A 
ATOM     23  C   UNL     1       6.137   5.612  18.474  0.00  0.00    +0.000 A 
ATOM     24  C   UNL     1       7.310   5.065  17.937  0.00  0.00    +0.000 A 
ATOM     25  C   UNL     1       7.297   4.489  16.671  0.00  0.00    +0.000 A 
ATOM     26  C   UNL     1       6.111   4.449  15.937  0.00  0.00    +0.000 A 
ATOM     27  C   UNL     1       6.073   3.856  14.558  0.00  0.00    +0.000 C 
ATOM     28  C   UNL     1       4.938   4.982  16.498  0.00  0.00    +0.000 A 
ENDBRANCH  19  22
BRANCH  19  30
ATOM     29  C   UNL     1       2.524   4.031  18.977  0.00  0.00    +0.000 C 
ATOM     30  C   UNL     1       3.062   5.394  19.395  0.00  0.00    +0.000 C 
ENDBRANCH  19  30
ENDBRANCH  18  20
ENDBRANCH  17  18
ENDBRANCH   1  17
TORSDOF 6
ENDMDL
MODEL 7
REMARK VINA RESULT:      -7.8      3.116      9.230
REMARK  Name = 
REMARK  9 active torsions:
REMARK  status: ('A' for Active; 'I' for Inactive)
REMARK    1  A    between atoms: C_1  and  C_2
REMARK    2  A    between atoms: C_2  and  N_3
REMARK    3  A    between atoms: N_3  and  C_23
REMARK    4  A    between atoms: C_4  and  C_6
REMARK    5  A    between atoms: C_6  and  C_7
REMARK    6  A    between atoms: C_7  and  S_8
REMARK    7  A    between atoms: S_8  and  C_11
REMARK    8  A    between atoms: C_16  and  C_17
REMARK    9  A    between atoms: C_27  and  C_28
REMARK                            x       y       z     vdW  Elec       q    Type
REMARK                         _______ _______ _______ _____ _____    ______ ____
ROOT
ATOM      1  S   UNL     1       1.174  10.462  19.163  0.00  0.00    +0.000 S 
ATOM      2  O   UNL     1       1.309   9.827  20.459  0.00  0.00    +0.000 OA
ATOM      3  O   UNL     1       2.051  11.553  18.787  0.00  0.00    +0.000 OA
ENDROOT
BRANCH   1   4
ATOM      4  C   UNL     1      -0.533  11.000  19.046  0.00  0.00    +0.000 A 
ATOM      5  C   UNL     1      -1.199  10.655  17.857  0.00  0.00    +0.000 A 
ATOM      6  C   UNL     1      -2.511  11.066  17.645  0.00  0.00    +0.000 A 
ATOM      7  C   UNL     1      -3.165  11.825  18.613  0.00  0.00    +0.000 A 
ATOM      8  C   UNL     1      -2.518  12.151  19.807  0.00  0.00    +0.000 A 
ATOM      9  C   UNL     1      -1.190  11.747  20.044  0.00  0.00    +0.000 A 
ATOM     10  C   UNL     1      -0.550  12.175  21.335  0.00  0.00    +0.000 C 
ATOM     11  N   UNL     1      -4.447  12.314  18.369  0.00  0.00    +0.000 N 
ATOM     12  C   UNL     1      -5.127  11.985  17.227  0.00  0.00    +0.000 C 
ATOM     13  O   UNL     1      -6.208  12.498  16.951  0.00  0.00    +0.000 OA
ATOM     14  C   UNL     1      -4.480  10.874  16.403  0.00  0.00    +0.000 C 
ATOM     15  O   UNL     1      -3.063  10.753  16.433  0.00  0.00    +0.000 OA
ATOM     16  H   UNL     1      -4.891  12.972  18.995  0.00  0.00    +0.000 HD
ENDBRANCH   1   4
BRANCH   1  17
ATOM     17  C   UNL     1       1.317   9.212  17.905  0.00  0.00    +0.000 C 
BRANCH  17  18
ATOM     18  C   UNL     1       1.640   7.843  18.499  0.00  0.00    +0.000 C 
BRANCH  18  20
ATOM     19  N   UNL     1       3.318   6.000  18.172  0.00  0.00    +0.000 N 
ATOM     20  C   UNL     1       2.987   7.357  18.002  0.00  0.00    +0.000 C 
ATOM     21  O   UNL     1       3.694   8.176  17.409  0.00  0.00    +0.000 OA
BRANCH  19  22
ATOM     22  C   UNL     1       4.613   5.509  17.744  0.00  0.00    +0.000 A 
ATOM     23  C   UNL     1       5.735   5.563  18.589  0.00  0.00    +0.000 A 
ATOM     24  C   UNL     1       6.989   5.094  18.172  0.00  0.00    +0.000 A 
ATOM     25  C   UNL     1       7.146   4.558  16.897  0.00  0.00    +0.000 A 
ATOM     26  C   UNL     1       6.051   4.482  16.035  0.00  0.00    +0.000 A 
ATOM     27  C   UNL     1       6.198   3.932  14.646  0.00  0.00    +0.000 C 
ATOM     28  C   UNL     1       4.797   4.937  16.475  0.00  0.00    +0.000 A 
ENDBRANCH  19  22
BRANCH  19  30
ATOM     29  C   UNL     1       2.586   4.928  20.347  0.00  0.00    +0.000 C 
ATOM     30  C   UNL     1       2.433   5.015  18.834  0.00  0.00    +0.000 C 
ENDBRANCH  19  30
ENDBRANCH  18  20
ENDBRANCH  17  18
ENDBRANCH   1  17
TORSDOF 6
ENDMDL
MODEL 8
REMARK VINA RESULT:      -7.7      3.716      9.290
REMARK  Name = 
REMARK  9 active torsions:
REMARK  status: ('A' for Active; 'I' for Inactive)
REMARK    1  A    between atoms: C_1  and  C_2
REMARK    2  A    between atoms: C_2  and  N_3
REMARK    3  A    between atoms: N_3  and  C_23
REMARK    4  A    between atoms: C_4  and  C_6
REMARK    5  A    between atoms: C_6  and  C_7
REMARK    6  A    between atoms: C_7  and  S_8
REMARK    7  A    between atoms: S_8  and  C_11
REMARK    8  A    between atoms: C_16  and  C_17
REMARK    9  A    between atoms: C_27  and  C_28
REMARK                            x       y       z     vdW  Elec       q    Type
REMARK                         _______ _______ _______ _____ _____    ______ ____
ROOT
ATOM      1  S   UNL     1       0.116   9.384  22.263  0.00  0.00    +0.000 S 
ATOM      2  O   UNL     1      -0.982   8.437  22.252  0.00  0.00    +0.000 OA
ATOM      3  O   UNL     1       0.804   9.691  23.500  0.00  0.00    +0.000 OA
ENDROOT
BRANCH   1   4
ATOM      4  C   UNL     1      -0.524  10.898  21.544  0.00  0.00    +0.000 A 
ATOM      5  C   UNL     1      -0.721  11.962  22.442  0.00  0.00    +0.000 A 
ATOM      6  C   UNL     1      -1.260  13.164  21.995  0.00  0.00    +0.000 A 
ATOM      7  C   UNL     1      -1.607  13.312  20.654  0.00  0.00    +0.000 A 
ATOM      8  C   UNL     1      -1.392  12.269  19.752  0.00  0.00    +0.000 A 
ATOM      9  C   UNL     1      -0.849  11.042  20.181  0.00  0.00    +0.000 A 
ATOM     10  C   UNL     1      -0.688   9.953  19.156  0.00  0.00    +0.000 C 
ATOM     11  N   UNL     1      -2.228  14.481  20.218  0.00  0.00    +0.000 N 
ATOM     12  C   UNL     1      -2.422  15.540  21.065  0.00  0.00    +0.000 C 
ATOM     13  O   UNL     1      -3.066  16.528  20.723  0.00  0.00    +0.000 OA
ATOM     14  C   UNL     1      -1.696  15.422  22.403  0.00  0.00    +0.000 C 
ATOM     15  O   UNL     1      -1.489  14.123  22.943  0.00  0.00    +0.000 OA
ATOM     16  H   UNL     1      -2.607  14.564  19.284  0.00  0.00    +0.000 HD
ENDBRANCH   1   4
BRANCH   1  17
ATOM     17  C   UNL     1       1.343   8.839  21.096  0.00  0.00    +0.000 C 
BRANCH  17  18
ATOM     18  C   UNL     1       1.299   7.327  20.890  0.00  0.00    +0.000 C 
BRANCH  18  20
ATOM     19  N   UNL     1       2.774   5.594  19.821  0.00  0.00    +0.000 N 
ATOM     20  C   UNL     1       2.283   6.913  19.814  0.00  0.00    +0.000 C 
ATOM     21  O   UNL     1       2.544   7.748  18.943  0.00  0.00    +0.000 OA
BRANCH  19  22
ATOM     22  C   UNL     1       3.745   5.176  18.830  0.00  0.00    +0.000 A 
ATOM     23  C   UNL     1       3.353   4.547  17.636  0.00  0.00    +0.000 A 
ATOM     24  C   UNL     1       4.293   4.136  16.681  0.00  0.00    +0.000 A 
ATOM     25  C   UNL     1       5.650   4.349  16.901  0.00  0.00    +0.000 A 
ATOM     26  C   UNL     1       6.076   4.978  18.071  0.00  0.00    +0.000 A 
ATOM     27  C   UNL     1       7.535   5.196  18.346  0.00  0.00    +0.000 C 
ATOM     28  C   UNL     1       5.119   5.401  19.009  0.00  0.00    +0.000 A 
ENDBRANCH  19  22
BRANCH  19  30
ATOM     29  C   UNL     1       1.173   3.754  20.503  0.00  0.00    +0.000 C 
ATOM     30  C   UNL     1       2.405   4.586  20.840  0.00  0.00    +0.000 C 
ENDBRANCH  19  30
ENDBRANCH  18  20
ENDBRANCH  17  18
ENDBRANCH   1  17
TORSDOF 6
ENDMDL
MODEL 9
REMARK VINA RESULT:      -7.6      1.155      2.098
REMARK  Name = 
REMARK  9 active torsions:
REMARK  status: ('A' for Active; 'I' for Inactive)
REMARK    1  A    between atoms: C_1  and  C_2
REMARK    2  A    between atoms: C_2  and  N_3
REMARK    3  A    between atoms: N_3  and  C_23
REMARK    4  A    between atoms: C_4  and  C_6
REMARK    5  A    between atoms: C_6  and  C_7
REMARK    6  A    between atoms: C_7  and  S_8
REMARK    7  A    between atoms: S_8  and  C_11
REMARK    8  A    between atoms: C_16  and  C_17
REMARK    9  A    between atoms: C_27  and  C_28
REMARK                            x       y       z     vdW  Elec       q    Type
REMARK                         _______ _______ _______ _____ _____    ______ ____
ROOT
ATOM      1  S   UNL     1       2.143   3.822  20.621  0.00  0.00    +0.000 S 
ATOM      2  O   UNL     1       3.072   3.443  21.667  0.00  0.00    +0.000 OA
ATOM      3  O   UNL     1       0.997   2.988  20.322  0.00  0.00    +0.000 OA
ENDROOT
BRANCH   1   4
ATOM      4  C   UNL     1       3.126   4.042  19.136  0.00  0.00    +0.000 A 
ATOM      5  C   UNL     1       4.510   4.183  19.339  0.00  0.00    +0.000 A 
ATOM      6  C   UNL     1       5.357   4.408  18.259  0.00  0.00    +0.000 A 
ATOM      7  C   UNL     1       4.830   4.496  16.972  0.00  0.00    +0.000 A 
ATOM      8  C   UNL     1       3.460   4.333  16.760  0.00  0.00    +0.000 A 
ATOM      9  C   UNL     1       2.583   4.106  17.838  0.00  0.00    +0.000 A 
ATOM     10  C   UNL     1       1.116   3.984  17.531  0.00  0.00    +0.000 C 
ATOM     11  N   UNL     1       5.660   4.809  15.897  0.00  0.00    +0.000 N 
ATOM     12  C   UNL     1       7.014   4.940  16.060  0.00  0.00    +0.000 C 
ATOM     13  O   UNL     1       7.738   5.323  15.145  0.00  0.00    +0.000 OA
ATOM     14  C   UNL     1       7.536   4.477  17.418  0.00  0.00    +0.000 C 
ATOM     15  O   UNL     1       6.679   4.608  18.547  0.00  0.00    +0.000 OA
ATOM     16  H   UNL     1       5.286   5.007  14.978  0.00  0.00    +0.000 HD
ENDBRANCH   1   4
BRANCH   1  17
ATOM     17  C   UNL     1       1.530   5.454  20.975  0.00  0.00    +0.000 C 
BRANCH  17  18
ATOM     18  C   UNL     1       2.354   6.534  20.278  0.00  0.00    +0.000 C 
BRANCH  18  20
ATOM     19  N   UNL     1       1.418   8.560  19.121  0.00  0.00    +0.000 N 
ATOM     20  C   UNL     1       1.629   7.864  20.326  0.00  0.00    +0.000 C 
ATOM     21  O   UNL     1       1.201   8.230  21.424  0.00  0.00    +0.000 OA
BRANCH  19  22
ATOM     22  C   UNL     1       0.762   9.852  19.134  0.00  0.00    +0.000 A 
ATOM     23  C   UNL     1      -0.410  10.090  18.396  0.00  0.00    +0.000 A 
ATOM     24  C   UNL     1      -1.040  11.342  18.404  0.00  0.00    +0.000 A 
ATOM     25  C   UNL     1      -0.509  12.386  19.155  0.00  0.00    +0.000 A 
ATOM     26  C   UNL     1       0.649  12.184  19.907  0.00  0.00    +0.000 A 
ATOM     27  C   UNL     1       1.258  13.299  20.705  0.00  0.00    +0.000 C 
ATOM     28  C   UNL     1       1.257  10.917  19.904  0.00  0.00    +0.000 A 
ENDBRANCH  19  22
BRANCH  19  30
ATOM     29  C   UNL     1       3.395   8.135  17.596  0.00  0.00    +0.000 C 
ATOM     30  C   UNL     1       1.886   8.079  17.801  0.00  0.00    +0.000 C 
ENDBRANCH  19  30
ENDBRANCH  18  20
ENDBRANCH  17  18
ENDBRANCH   1  17
TORSDOF 6
ENDMDL
