MODEL 1
REMARK VINA RESULT:      -6.0      0.000      0.000
REMARK  Name = 
REMARK  7 active torsions:
REMARK  status: ('A' for Active; 'I' for Inactive)
REMARK    1  A    between atoms: C_1  and  C_2
REMARK    2  A    between atoms: C_2  and  C_3
REMARK    3  A    between atoms: C_2  and  N_8
REMARK    4  A    between atoms: N_8  and  C_9
REMARK    5  A    between atoms: N_8  and  C_10
REMARK    6  A    between atoms: C_10  and  C_11
REMARK    7  A    between atoms: C_11  and  N_12
REMARK                            x       y       z     vdW  Elec       q    Type
REMARK                         _______ _______ _______ _____ _____    ______ ____
ROOT
ATOM      1  N   UNL     1       3.053   5.290  18.441  0.00  0.00    +0.000 NA
ATOM      2  C   UNL     1       2.396   6.208  19.372  0.00  0.00    +0.000 C 
ENDROOT
BRANCH   1   4
ATOM      3  C   UNL     1       3.822   7.533  17.472  0.00  0.00    +0.000 C 
ATOM      4  C   UNL     1       3.832   5.994  17.380  0.00  0.00    +0.000 C 
BRANCH   4   5
ATOM      5  C   UNL     1       5.273   5.495  17.264  0.00  0.00    +0.000 A 
ATOM      6  C   UNL     1       5.960   5.079  16.133  0.00  0.00    +0.000 A 
ATOM      7  C   UNL     1       7.263   4.586  16.424  0.00  0.00    +0.000 A 
ATOM      8  C   UNL     1       7.548   4.658  17.768  0.00  0.00    +0.000 A 
ATOM      9  S   UNL     1       6.253   5.325  18.666  0.00  0.00    +0.000 S 
ENDBRANCH   4   5
ENDBRANCH   1   4
BRANCH   1  10
ATOM     10  C   UNL     1       2.091   4.329  17.847  0.00  0.00    +0.000 C 
BRANCH  10  11
ATOM     11  C   UNL     1       2.256   2.851  18.267  0.00  0.00    +0.000 C 
BRANCH  11  12
ATOM     12  N   UNL     1       2.197   2.646  19.707  0.00  0.00    +0.000 N 
ATOM     13  C   UNL     1       1.065   3.000  20.504  0.00  0.00    +0.000 C 
ATOM     14  C   UNL     1       1.500   2.521  21.867  0.00  0.00    +0.000 C 
ATOM     15  O   UNL     1       2.932   2.553  21.822  0.00  0.00    +0.000 OA
ATOM     16  C   UNL     1       3.312   2.528  20.506  0.00  0.00    +0.000 C 
ATOM     17  O   UNL     1       4.467   2.448  20.133  0.00  0.00    +0.000 OA
ENDBRANCH  11  12
ENDBRANCH  10  11
ENDBRANCH   1  10
TORSDOF 5
ENDMDL
MODEL 2
REMARK VINA RESULT:      -6.0      3.146      5.686
REMARK  Name = 
REMARK  7 active torsions:
REMARK  status: ('A' for Active; 'I' for Inactive)
REMARK    1  A    between atoms: C_1  and  C_2
REMARK    2  A    between atoms: C_2  and  C_3
REMARK    3  A    between atoms: C_2  and  N_8
REMARK    4  A    between atoms: N_8  and  C_9
REMARK    5  A    between atoms: N_8  and  C_10
REMARK    6  A    between atoms: C_10  and  C_11
REMARK    7  A    between atoms: C_11  and  N_12
REMARK                            x       y       z     vdW  Elec       q    Type
REMARK                         _______ _______ _______ _____ _____    ______ ____
ROOT
ATOM      1  N   UNL     1       2.777   6.438  18.535  0.00  0.00    +0.000 NA
ATOM      2  C   UNL     1       2.458   7.809  18.130  0.00  0.00    +0.000 C 
ENDROOT
BRANCH   1   4
ATOM      3  C   UNL     1       1.514   7.154  20.646  0.00  0.00    +0.000 C 
ATOM      4  C   UNL     1       2.507   6.180  19.980  0.00  0.00    +0.000 C 
BRANCH   4   5
ATOM      5  C   UNL     1       2.080   4.739  20.261  0.00  0.00    +0.000 A 
ATOM      6  C   UNL     1       2.151   4.028  21.450  0.00  0.00    +0.000 A 
ATOM      7  C   UNL     1       1.750   2.669  21.310  0.00  0.00    +0.000 A 
ATOM      8  C   UNL     1       1.363   2.381  20.022  0.00  0.00    +0.000 A 
ATOM      9  S   UNL     1       1.474   3.746  18.996  0.00  0.00    +0.000 S 
ENDBRANCH   4   5
ENDBRANCH   1   4
BRANCH   1  10
ATOM     10  C   UNL     1       4.170   6.073  18.179  0.00  0.00    +0.000 C 
BRANCH  10  11
ATOM     11  C   UNL     1       4.698   6.624  16.834  0.00  0.00    +0.000 C 
BRANCH  11  12
ATOM     12  N   UNL     1       5.566   5.694  16.127  0.00  0.00    +0.000 N 
ATOM     13  C   UNL     1       5.165   4.377  15.750  0.00  0.00    +0.000 C 
ATOM     14  C   UNL     1       6.387   3.894  15.007  0.00  0.00    +0.000 C 
ATOM     15  O   UNL     1       7.469   4.654  15.560  0.00  0.00    +0.000 OA
ATOM     16  C   UNL     1       6.941   5.778  16.138  0.00  0.00    +0.000 C 
ATOM     17  O   UNL     1       7.610   6.678  16.612  0.00  0.00    +0.000 OA
ENDBRANCH  11  12
ENDBRANCH  10  11
ENDBRANCH   1  10
TORSDOF 5
ENDMDL
MODEL 3
REMARK VINA RESULT:      -5.9      3.088      5.873
REMARK  Name = 
REMARK  7 active torsions:
REMARK  status: ('A' for Active; 'I' for Inactive)
REMARK    1  A    between atoms: C_1  and  C_2
REMARK    2  A    between atoms: C_2  and  C_3
REMARK    3  A    between atoms: C_2  and  N_8
REMARK    4  A    between atoms: N_8  and  C_9
REMARK    5  A    between atoms: N_8  and  C_10
REMARK    6  A    between atoms: C_10  and  C_11
REMARK    7  A    between atoms: C_11  and  N_12
REMARK                            x       y       z     vdW  Elec       q    Type
REMARK                         _______ _______ _______ _____ _____    ______ ____
ROOT
ATOM      1  N   UNL     1       4.493   5.741  18.570  0.00  0.00    +0.000 NA
ATOM      2  C   UNL     1       5.177   4.607  19.196  0.00  0.00    +0.000 C 
ENDROOT
BRANCH   1   4
ATOM      3  C   UNL     1       2.307   7.069  18.439  0.00  0.00    +0.000 C 
ATOM      4  C   UNL     1       3.173   6.043  19.198  0.00  0.00    +0.000 C 
BRANCH   4   5
ATOM      5  C   UNL     1       2.348   4.789  19.489  0.00  0.00    +0.000 A 
ATOM      6  C   UNL     1       1.611   4.010  18.609  0.00  0.00    +0.000 A 
ATOM      7  C   UNL     1       0.888   2.970  19.259  0.00  0.00    +0.000 A 
ATOM      8  C   UNL     1       1.107   2.968  20.617  0.00  0.00    +0.000 A 
ATOM      9  S   UNL     1       2.186   4.206  21.098  0.00  0.00    +0.000 S 
ENDBRANCH   4   5
ENDBRANCH   1   4
BRANCH   1  10
ATOM     10  C   UNL     1       4.357   5.557  17.104  0.00  0.00    +0.000 C 
BRANCH  10  11
ATOM     11  C   UNL     1       5.067   4.322  16.503  0.00  0.00    +0.000 C 
BRANCH  11  12
ATOM     12  N   UNL     1       5.945   4.643  15.388  0.00  0.00    +0.000 N 
ATOM     13  C   UNL     1       6.021   3.858  14.197  0.00  0.00    +0.000 C 
ATOM     14  C   UNL     1       7.002   4.658  13.375  0.00  0.00    +0.000 C 
ATOM     15  O   UNL     1       7.790   5.365  14.341  0.00  0.00    +0.000 OA
ATOM     16  C   UNL     1       7.076   5.419  15.508  0.00  0.00    +0.000 C 
ATOM     17  O   UNL     1       7.431   6.037  16.494  0.00  0.00    +0.000 OA
ENDBRANCH  11  12
ENDBRANCH  10  11
ENDBRANCH   1  10
TORSDOF 5
ENDMDL
MODEL 4
REMARK VINA RESULT:      -5.9      3.124      5.614
REMARK  Name = 
REMARK  7 active torsions:
REMARK  status: ('A' for Active; 'I' for Inactive)
REMARK    1  A    between atoms: C_1  and  C_2
REMARK    2  A    between atoms: C_2  and  C_3
REMARK    3  A    between atoms: C_2  and  N_8
REMARK    4  A    between atoms: N_8  and  C_9
REMARK    5  A    between atoms: N_8  and  C_10
REMARK    6  A    between atoms: C_10  and  C_11
REMARK    7  A    between atoms: C_11  and  N_12
REMARK                            x       y       z     vdW  Elec       q    Type
REMARK                         _______ _______ _______ _____ _____    ______ ____
ROOT
ATOM      1  N   UNL     1       2.897   6.678  18.260  0.00  0.00    +0.000 NA
ATOM      2  C   UNL     1       2.434   8.037  17.972  0.00  0.00    +0.000 C 
ENDROOT
BRANCH   1   4
ATOM      3  C   UNL     1       1.722   7.213  20.473  0.00  0.00    +0.000 C 
ATOM      4  C   UNL     1       2.621   6.255  19.664  0.00  0.00    +0.000 C 
BRANCH   4   5
ATOM      5  C   UNL     1       2.073   4.831  19.763  0.00  0.00    +0.000 A 
ATOM      6  C   UNL     1       1.449   4.070  18.785  0.00  0.00    +0.000 A 
ATOM      7  C   UNL     1       0.982   2.816  19.270  0.00  0.00    +0.000 A 
ATOM      8  C   UNL     1       1.280   2.640  20.602  0.00  0.00    +0.000 A 
ATOM      9  S   UNL     1       2.126   3.977  21.254  0.00  0.00    +0.000 S 
ENDBRANCH   4   5
ENDBRANCH   1   4
BRANCH   1  10
ATOM     10  C   UNL     1       4.332   6.505  17.924  0.00  0.00    +0.000 C 
BRANCH  10  11
ATOM     11  C   UNL     1       4.724   6.772  16.452  0.00  0.00    +0.000 C 
BRANCH  11  12
ATOM     12  N   UNL     1       5.611   5.762  15.895  0.00  0.00    +0.000 N 
ATOM     13  C   UNL     1       5.173   4.457  15.513  0.00  0.00    +0.000 C 
ATOM     14  C   UNL     1       6.445   3.869  14.952  0.00  0.00    +0.000 C 
ATOM     15  O   UNL     1       7.496   4.583  15.615  0.00  0.00    +0.000 OA
ATOM     16  C   UNL     1       6.975   5.760  16.082  0.00  0.00    +0.000 C 
ATOM     17  O   UNL     1       7.638   6.635  16.608  0.00  0.00    +0.000 OA
ENDBRANCH  11  12
ENDBRANCH  10  11
ENDBRANCH   1  10
TORSDOF 5
ENDMDL
MODEL 5
REMARK VINA RESULT:      -5.9      1.278      1.664
REMARK  Name = 
REMARK  7 active torsions:
REMARK  status: ('A' for Active; 'I' for Inactive)
REMARK    1  A    between atoms: C_1  and  C_2
REMARK    2  A    between atoms: C_2  and  C_3
REMARK    3  A    between atoms: C_2  and  N_8
REMARK    4  A    between atoms: N_8  and  C_9
REMARK    5  A    between atoms: N_8  and  C_10
REMARK    6  A    between atoms: C_10  and  C_11
REMARK    7  A    between atoms: C_11  and  N_12
REMARK                            x       y       z     vdW  Elec       q    Type
REMARK                         _______ _______ _______ _____ _____    ______ ____
ROOT
ATOM      1  N   UNL     1       3.804   5.199  18.174  0.00  0.00    +0.000 NA
ATOM      2  C   UNL     1       3.405   6.588  17.939  0.00  0.00    +0.000 C 
ENDROOT
BRANCH   1   4
ATOM      3  C   UNL     1       5.043   4.551  16.028  0.00  0.00    +0.000 C 
ATOM      4  C   UNL     1       5.109   4.852  17.539  0.00  0.00    +0.000 C 
BRANCH   4   5
ATOM      5  C   UNL     1       6.201   5.887  17.810  0.00  0.00    +0.000 A 
ATOM      6  C   UNL     1       6.484   7.053  17.115  0.00  0.00    +0.000 A 
ATOM      7  C   UNL     1       7.644   7.722  17.599  0.00  0.00    +0.000 A 
ATOM      8  C   UNL     1       8.205   7.061  18.667  0.00  0.00    +0.000 A 
ATOM      9  S   UNL     1       7.331   5.650  19.084  0.00  0.00    +0.000 S 
ENDBRANCH   4   5
ENDBRANCH   1   4
BRANCH   1  10
ATOM     10  C   UNL     1       2.742   4.247  17.766  0.00  0.00    +0.000 C 
BRANCH  10  11
ATOM     11  C   UNL     1       2.899   2.793  18.269  0.00  0.00    +0.000 C 
BRANCH  11  12
ATOM     12  N   UNL     1       2.576   2.630  19.679  0.00  0.00    +0.000 N 
ATOM     13  C   UNL     1       1.372   3.119  20.270  0.00  0.00    +0.000 C 
ATOM     14  C   UNL     1       1.517   2.628  21.690  0.00  0.00    +0.000 C 
ATOM     15  O   UNL     1       2.931   2.507  21.888  0.00  0.00    +0.000 OA
ATOM     16  C   UNL     1       3.521   2.412  20.656  0.00  0.00    +0.000 C 
ATOM     17  O   UNL     1       4.708   2.201  20.485  0.00  0.00    +0.000 OA
ENDBRANCH  11  12
ENDBRANCH  10  11
ENDBRANCH   1  10
TORSDOF 5
ENDMDL
MODEL 6
REMARK VINA RESULT:      -5.9      1.688      2.507
REMARK  Name = 
REMARK  7 active torsions:
REMARK  status: ('A' for Active; 'I' for Inactive)
REMARK    1  A    between atoms: C_1  and  C_2
REMARK    2  A    between atoms: C_2  and  C_3
REMARK    3  A    between atoms: C_2  and  N_8
REMARK    4  A    between atoms: N_8  and  C_9
REMARK    5  A    between atoms: N_8  and  C_10
REMARK    6  A    between atoms: C_10  and  C_11
REMARK    7  A    between atoms: C_11  and  N_12
REMARK                            x       y       z     vdW  Elec       q    Type
REMARK                         _______ _______ _______ _____ _____    ______ ____
ROOT
ATOM      1  N   UNL     1       5.139   5.037  19.418  0.00  0.00    +0.000 NA
ATOM      2  C   UNL     1       3.882   5.785  19.475  0.00  0.00    +0.000 C 
ENDROOT
BRANCH   1   4
ATOM      3  C   UNL     1       7.622   5.659  19.295  0.00  0.00    +0.000 C 
ATOM      4  C   UNL     1       6.213   5.758  18.674  0.00  0.00    +0.000 C 
BRANCH   4   5
ATOM      5  C   UNL     1       6.276   5.375  17.195  0.00  0.00    +0.000 A 
ATOM      6  C   UNL     1       7.181   4.545  16.550  0.00  0.00    +0.000 A 
ATOM      7  C   UNL     1       6.989   4.500  15.140  0.00  0.00    +0.000 A 
ATOM      8  C   UNL     1       5.927   5.281  14.746  0.00  0.00    +0.000 A 
ATOM      9  S   UNL     1       5.167   6.052  16.070  0.00  0.00    +0.000 S 
ENDBRANCH   4   5
ENDBRANCH   1   4
BRANCH   1  10
ATOM     10  C   UNL     1       4.940   3.670  18.876  0.00  0.00    +0.000 C 
BRANCH  10  11
ATOM     11  C   UNL     1       4.378   2.621  19.863  0.00  0.00    +0.000 C 
BRANCH  11  12
ATOM     12  N   UNL     1       2.925   2.533  19.852  0.00  0.00    +0.000 N 
ATOM     13  C   UNL     1       2.140   2.668  18.667  0.00  0.00    +0.000 C 
ATOM     14  C   UNL     1       0.749   2.429  19.203  0.00  0.00    +0.000 C 
ATOM     15  O   UNL     1       0.825   2.805  20.583  0.00  0.00    +0.000 OA
ATOM     16  C   UNL     1       2.140   2.760  20.960  0.00  0.00    +0.000 C 
ATOM     17  O   UNL     1       2.527   2.932  22.101  0.00  0.00    +0.000 OA
ENDBRANCH  11  12
ENDBRANCH  10  11
ENDBRANCH   1  10
TORSDOF 5
ENDMDL
MODEL 7
REMARK VINA RESULT:      -5.9      2.974      5.747
REMARK  Name = 
REMARK  7 active torsions:
REMARK  status: ('A' for Active; 'I' for Inactive)
REMARK    1  A    between atoms: C_1  and  C_2
REMARK    2  A    between atoms: C_2  and  C_3
REMARK    3  A    between atoms: C_2  and  N_8
REMARK    4  A    between atoms: N_8  and  C_9
REMARK    5  A    between atoms: N_8  and  C_10
REMARK    6  A    between atoms: C_10  and  C_11
REMARK    7  A    between atoms: C_11  and  N_12
REMARK                            x       y       z     vdW  Elec       q    Type
REMARK                         _______ _______ _______ _____ _____    ______ ____
ROOT
ATOM      1  N   UNL     1       4.377   5.622  18.874  0.00  0.00    +0.000 NA
ATOM      2  C   UNL     1       5.035   4.328  19.070  0.00  0.00    +0.000 C 
ENDROOT
BRANCH   1   4
ATOM      3  C   UNL     1       2.340   7.053  19.477  0.00  0.00    +0.000 C 
ATOM      4  C   UNL     1       3.236   5.843  19.810  0.00  0.00    +0.000 C 
BRANCH   4   5
ATOM      5  C   UNL     1       2.369   4.598  20.002  0.00  0.00    +0.000 A 
ATOM      6  C   UNL     1       1.488   4.006  19.107  0.00  0.00    +0.000 A 
ATOM      7  C   UNL     1       0.776   2.911  19.671  0.00  0.00    +0.000 A 
ATOM      8  C   UNL     1       1.146   2.678  20.975  0.00  0.00    +0.000 A 
ATOM      9  S   UNL     1       2.350   3.771  21.508  0.00  0.00    +0.000 S 
ENDBRANCH   4   5
ENDBRANCH   1   4
BRANCH   1  10
ATOM     10  C   UNL     1       3.955   5.814  17.465  0.00  0.00    +0.000 C 
BRANCH  10  11
ATOM     11  C   UNL     1       4.899   6.660  16.580  0.00  0.00    +0.000 C 
BRANCH  11  12
ATOM     12  N   UNL     1       5.890   5.869  15.866  0.00  0.00    +0.000 N 
ATOM     13  C   UNL     1       5.554   4.912  14.861  0.00  0.00    +0.000 C 
ATOM     14  C   UNL     1       6.922   4.451  14.419  0.00  0.00    +0.000 C 
ATOM     15  O   UNL     1       7.764   4.680  15.555  0.00  0.00    +0.000 OA
ATOM     16  C   UNL     1       7.153   5.611  16.351  0.00  0.00    +0.000 C 
ATOM     17  O   UNL     1       7.660   6.093  17.347  0.00  0.00    +0.000 OA
ENDBRANCH  11  12
ENDBRANCH  10  11
ENDBRANCH   1  10
TORSDOF 5
ENDMDL
MODEL 8
REMARK VINA RESULT:      -5.9      2.498      5.535
REMARK  Name = 
REMARK  7 active torsions:
REMARK  status: ('A' for Active; 'I' for Inactive)
REMARK    1  A    between atoms: C_1  and  C_2
REMARK    2  A    between atoms: C_2  and  C_3
REMARK    3  A    between atoms: C_2  and  N_8
REMARK    4  A    between atoms: N_8  and  C_9
REMARK    5  A    between atoms: N_8  and  C_10
REMARK    6  A    between atoms: C_10  and  C_11
REMARK    7  A    between atoms: C_11  and  N_12
REMARK                            x       y       z     vdW  Elec       q    Type
REMARK                         _______ _______ _______ _____ _____    ______ ____
ROOT
ATOM      1  N   UNL     1       3.076   5.628  17.988  0.00  0.00    +0.000 NA
ATOM      2  C   UNL     1       2.358   6.722  18.644  0.00  0.00    +0.000 C 
ENDROOT
BRANCH   1   4
ATOM      3  C   UNL     1       2.814   3.290  16.974  0.00  0.00    +0.000 C 
ATOM      4  C   UNL     1       2.300   4.353  17.965  0.00  0.00    +0.000 C 
BRANCH   4   5
ATOM      5  C   UNL     1       2.136   3.727  19.350  0.00  0.00    +0.000 A 
ATOM      6  C   UNL     1       1.116   3.914  20.273  0.00  0.00    +0.000 A 
ATOM      7  C   UNL     1       1.350   3.238  21.504  0.00  0.00    +0.000 A 
ATOM      8  C   UNL     1       2.532   2.534  21.484  0.00  0.00    +0.000 A 
ATOM      9  S   UNL     1       3.344   2.683  19.985  0.00  0.00    +0.000 S 
ENDBRANCH   4   5
ENDBRANCH   1   4
BRANCH   1  10
ATOM     10  C   UNL     1       4.421   5.422  18.580  0.00  0.00    +0.000 C 
BRANCH  10  11
ATOM     11  C   UNL     1       5.555   6.310  18.018  0.00  0.00    +0.000 C 
BRANCH  11  12
ATOM     12  N   UNL     1       6.305   5.681  16.941  0.00  0.00    +0.000 N 
ATOM     13  C   UNL     1       5.790   5.515  15.619  0.00  0.00    +0.000 C 
ATOM     14  C   UNL     1       6.971   4.891  14.916  0.00  0.00    +0.000 C 
ATOM     15  O   UNL     1       7.706   4.235  15.957  0.00  0.00    +0.000 OA
ATOM     16  C   UNL     1       7.348   4.807  17.149  0.00  0.00    +0.000 C 
ATOM     17  O   UNL     1       7.868   4.537  18.216  0.00  0.00    +0.000 OA
ENDBRANCH  11  12
ENDBRANCH  10  11
ENDBRANCH   1  10
TORSDOF 5
ENDMDL
MODEL 9
REMARK VINA RESULT:      -5.9      0.770      1.026
REMARK  Name = 
REMARK  7 active torsions:
REMARK  status: ('A' for Active; 'I' for Inactive)
REMARK    1  A    between atoms: C_1  and  C_2
REMARK    2  A    between atoms: C_2  and  C_3
REMARK    3  A    between atoms: C_2  and  N_8
REMARK    4  A    between atoms: N_8  and  C_9
REMARK    5  A    between atoms: N_8  and  C_10
REMARK    6  A    between atoms: C_10  and  C_11
REMARK    7  A    between atoms: C_11  and  N_12
REMARK                            x       y       z     vdW  Elec       q    Type
REMARK                         _______ _______ _______ _____ _____    ______ ____
ROOT
ATOM      1  N   UNL     1       3.021   5.362  18.563  0.00  0.00    +0.000 NA
ATOM      2  C   UNL     1       2.371   6.391  19.378  0.00  0.00    +0.000 C 
ENDROOT
BRANCH   1   4
ATOM      3  C   UNL     1       3.893   7.465  17.389  0.00  0.00    +0.000 C 
ATOM      4  C   UNL     1       3.931   5.929  17.525  0.00  0.00    +0.000 C 
BRANCH   4   5
ATOM      5  C   UNL     1       5.378   5.463  17.679  0.00  0.00    +0.000 A 
ATOM      6  C   UNL     1       6.283   5.754  18.690  0.00  0.00    +0.000 A 
ATOM      7  C   UNL     1       7.580   5.220  18.447  0.00  0.00    +0.000 A 
ATOM      8  C   UNL     1       7.628   4.515  17.267  0.00  0.00    +0.000 A 
ATOM      9  S   UNL     1       6.116   4.493  16.467  0.00  0.00    +0.000 S 
ENDBRANCH   4   5
ENDBRANCH   1   4
BRANCH   1  10
ATOM     10  C   UNL     1       2.031   4.437  17.958  0.00  0.00    +0.000 C 
BRANCH  10  11
ATOM     11  C   UNL     1       2.183   2.943  18.323  0.00  0.00    +0.000 C 
BRANCH  11  12
ATOM     12  N   UNL     1       2.160   2.691  19.756  0.00  0.00    +0.000 N 
ATOM     13  C   UNL     1       1.062   3.044  20.598  0.00  0.00    +0.000 C 
ATOM     14  C   UNL     1       1.524   2.508  21.931  0.00  0.00    +0.000 C 
ATOM     15  O   UNL     1       2.954   2.507  21.844  0.00  0.00    +0.000 OA
ATOM     16  C   UNL     1       3.294   2.518  20.517  0.00  0.00    +0.000 C 
ATOM     17  O   UNL     1       4.437   2.423  20.107  0.00  0.00    +0.000 OA
ENDBRANCH  11  12
ENDBRANCH  10  11
ENDBRANCH   1  10
TORSDOF 5
ENDMDL
