MODEL 1
REMARK VINA RESULT:      -8.2      0.000      0.000
REMARK  Name = 
REMARK  7 active torsions:
REMARK  status: ('A' for Active; 'I' for Inactive)
REMARK    1  A    between atoms: C_1  and  N_2
REMARK    2  A    between atoms: C_8  and  S_9
REMARK    3  A    between atoms: S_9  and  N_12
REMARK    4  A    between atoms: N_12  and  C_13
REMARK    5  A    between atoms: C_13  and  C_14
REMARK    6  A    between atoms: C_14  and  N_15
REMARK    7  A    between atoms: N_18  and  C_19
REMARK                            x       y       z     vdW  Elec       q    Type
REMARK                         _______ _______ _______ _____ _____    ______ ____
ROOT
ATOM      1  N   UNL     1       2.091   5.870  21.263  0.00  0.00    +0.000 NA
ATOM      2  H   UNL     1       3.069   6.200  21.303  0.00  0.00    +0.000 HD
ENDROOT
BRANCH   1   3
ATOM      3  S   UNL     1       1.946   4.278  20.709  0.00  0.00    +0.000 S 
ATOM      4  O   UNL     1       0.596   4.122  20.193  0.00  0.00    +0.000 OA
ATOM      5  O   UNL     1       2.480   3.389  21.706  0.00  0.00    +0.000 OA
BRANCH   3  13
ATOM      6  C   UNL     1       5.904   3.853  14.986  0.00  0.00    +0.000 C 
ATOM      7  N   UNL     1       5.910   4.058  16.404  0.00  0.00    +0.000 N 
ATOM      8  C   UNL     1       7.019   4.283  17.196  0.00  0.00    +0.000 A 
ATOM      9  O   UNL     1       8.180   4.347  16.817  0.00  0.00    +0.000 OA
ATOM     10  O   UNL     1       6.652   4.445  18.539  0.00  0.00    +0.000 OA
ATOM     11  C   UNL     1       5.265   4.314  18.488  0.00  0.00    +0.000 A 
ATOM     12  C   UNL     1       4.431   4.395  19.581  0.00  0.00    +0.000 A 
ATOM     13  C   UNL     1       3.052   4.230  19.330  0.00  0.00    +0.000 A 
ATOM     14  C   UNL     1       2.574   3.997  18.018  0.00  0.00    +0.000 A 
ATOM     15  C   UNL     1       3.455   3.911  16.937  0.00  0.00    +0.000 A 
ATOM     16  C   UNL     1       4.804   4.084  17.217  0.00  0.00    +0.000 A 
ENDBRANCH   3  13
ENDBRANCH   1   3
BRANCH   1  17
ATOM     17  C   UNL     1       1.205   6.811  20.527  0.00  0.00    +0.000 C 
BRANCH  17  18
ATOM     18  C   UNL     1       1.510   8.302  20.778  0.00  0.00    +0.000 C 
BRANCH  18  19
ATOM     19  N   UNL     1       0.248   9.045  20.745  0.00  0.00    +0.000 NA
ATOM     20  C   UNL     1      -0.534   8.947  21.991  0.00  0.00    +0.000 C 
ATOM     21  C   UNL     1      -0.227   9.992  23.060  0.00  0.00    +0.000 C 
ATOM     22  N   UNL     1      -0.411  11.318  22.490  0.00  0.00    +0.000 N 
ATOM     23  C   UNL     1       0.408  11.597  21.306  0.00  0.00    +0.000 C 
ATOM     24  C   UNL     1       0.314  10.442  20.262  0.00  0.00    +0.000 C 
BRANCH  22  25
ATOM     25  C   UNL     1      -1.364  12.176  22.986  0.00  0.00    +0.000 A 
ATOM     26  C   UNL     1      -2.637  11.733  23.366  0.00  0.00    +0.000 A 
ATOM     27  C   UNL     1      -3.610  12.621  23.833  0.00  0.00    +0.000 A 
ATOM     28  C   UNL     1      -3.322  13.978  23.948  0.00  0.00    +0.000 A 
ATOM     29  C   UNL     1      -2.063  14.443  23.600  0.00  0.00    +0.000 A 
ATOM     30  C   UNL     1      -1.106  13.550  23.124  0.00  0.00    +0.000 A 
ENDBRANCH  22  25
ENDBRANCH  18  19
ENDBRANCH  17  18
ENDBRANCH   1  17
TORSDOF 6
ENDMDL
MODEL 2
REMARK VINA RESULT:      -7.7      0.735      1.057
REMARK  Name = 
REMARK  7 active torsions:
REMARK  status: ('A' for Active; 'I' for Inactive)
REMARK    1  A    between atoms: C_1  and  N_2
REMARK    2  A    between atoms: C_8  and  S_9
REMARK    3  A    between atoms: S_9  and  N_12
REMARK    4  A    between atoms: N_12  and  C_13
REMARK    5  A    between atoms: C_13  and  C_14
REMARK    6  A    between atoms: C_14  and  N_15
REMARK    7  A    between atoms: N_18  and  C_19
REMARK                            x       y       z     vdW  Elec       q    Type
REMARK                         _______ _______ _______ _____ _____    ______ ____
ROOT
ATOM      1  N   UNL     1       0.954   5.513  20.502  0.00  0.00    +0.000 NA
ATOM      2  H   UNL     1       0.340   5.701  21.310  0.00  0.00    +0.000 HD
ENDROOT
BRANCH   1   3
ATOM      3  S   UNL     1       1.685   3.988  20.560  0.00  0.00    +0.000 S 
ATOM      4  O   UNL     1       0.674   3.010  20.197  0.00  0.00    +0.000 OA
ATOM      5  O   UNL     1       2.434   3.880  21.783  0.00  0.00    +0.000 OA
BRANCH   3  13
ATOM      6  C   UNL     1       5.937   4.014  15.036  0.00  0.00    +0.000 C 
ATOM      7  N   UNL     1       5.864   4.141  16.461  0.00  0.00    +0.000 N 
ATOM      8  C   UNL     1       6.923   4.360  17.321  0.00  0.00    +0.000 A 
ATOM      9  O   UNL     1       8.099   4.484  17.006  0.00  0.00    +0.000 OA
ATOM     10  O   UNL     1       6.484   4.435  18.649  0.00  0.00    +0.000 OA
ATOM     11  C   UNL     1       5.108   4.259  18.520  0.00  0.00    +0.000 A 
ATOM     12  C   UNL     1       4.218   4.252  19.570  0.00  0.00    +0.000 A 
ATOM     13  C   UNL     1       2.859   4.054  19.240  0.00  0.00    +0.000 A 
ATOM     14  C   UNL     1       2.457   3.877  17.894  0.00  0.00    +0.000 A 
ATOM     15  C   UNL     1       3.393   3.881  16.858  0.00  0.00    +0.000 A 
ATOM     16  C   UNL     1       4.720   4.084  17.216  0.00  0.00    +0.000 A 
ENDBRANCH   3  13
ENDBRANCH   1   3
BRANCH   1  17
ATOM     17  C   UNL     1       1.936   6.605  20.269  0.00  0.00    +0.000 C 
BRANCH  17  18
ATOM     18  C   UNL     1       1.783   7.812  21.218  0.00  0.00    +0.000 C 
BRANCH  18  19
ATOM     19  N   UNL     1       0.525   8.492  20.903  0.00  0.00    +0.000 NA
ATOM     20  C   UNL     1      -0.392   8.611  22.052  0.00  0.00    +0.000 C 
ATOM     21  C   UNL     1      -0.220   9.852  22.924  0.00  0.00    +0.000 C 
ATOM     22  N   UNL     1      -0.354  11.035  22.088  0.00  0.00    +0.000 N 
ATOM     23  C   UNL     1       0.592  11.108  20.970  0.00  0.00    +0.000 C 
ATOM     24  C   UNL     1       0.629   9.771  20.167  0.00  0.00    +0.000 C 
BRANCH  22  25
ATOM     25  C   UNL     1      -1.367  11.941  22.301  0.00  0.00    +0.000 A 
ATOM     26  C   UNL     1      -1.497  13.103  21.531  0.00  0.00    +0.000 A 
ATOM     27  C   UNL     1      -2.509  14.035  21.782  0.00  0.00    +0.000 A 
ATOM     28  C   UNL     1      -3.428  13.813  22.804  0.00  0.00    +0.000 A 
ATOM     29  C   UNL     1      -3.337  12.660  23.569  0.00  0.00    +0.000 A 
ATOM     30  C   UNL     1      -2.318  11.745  23.317  0.00  0.00    +0.000 A 
ENDBRANCH  22  25
ENDBRANCH  18  19
ENDBRANCH  17  18
ENDBRANCH   1  17
TORSDOF 6
ENDMDL
MODEL 3
REMARK VINA RESULT:      -7.7      1.008      1.558
REMARK  Name = 
REMARK  7 active torsions:
REMARK  status: ('A' for Active; 'I' for Inactive)
REMARK    1  A    between atoms: C_1  and  N_2
REMARK    2  A    between atoms: C_8  and  S_9
REMARK    3  A    between atoms: S_9  and  N_12
REMARK    4  A    between atoms: N_12  and  C_13
REMARK    5  A    between atoms: C_13  and  C_14
REMARK    6  A    between atoms: C_14  and  N_15
REMARK    7  A    between atoms: N_18  and  C_19
REMARK                            x       y       z     vdW  Elec       q    Type
REMARK                         _______ _______ _______ _____ _____    ______ ____
ROOT
ATOM      1  N   UNL     1       2.196   5.544  21.443  0.00  0.00    +0.000 NA
ATOM      2  H   UNL     1       3.177   5.865  21.420  0.00  0.00    +0.000 HD
ENDROOT
BRANCH   1   3
ATOM      3  S   UNL     1       1.980   4.011  20.759  0.00  0.00    +0.000 S 
ATOM      4  O   UNL     1       0.610   3.942  20.279  0.00  0.00    +0.000 OA
ATOM      5  O   UNL     1       2.515   3.023  21.657  0.00  0.00    +0.000 OA
BRANCH   3  13
ATOM      6  C   UNL     1       5.753   3.913  14.899  0.00  0.00    +0.000 C 
ATOM      7  N   UNL     1       5.798   4.085  16.320  0.00  0.00    +0.000 N 
ATOM      8  C   UNL     1       6.922   4.344  17.081  0.00  0.00    +0.000 A 
ATOM      9  O   UNL     1       8.065   4.473  16.665  0.00  0.00    +0.000 OA
ATOM     10  O   UNL     1       6.595   4.456  18.439  0.00  0.00    +0.000 OA
ATOM     11  C   UNL     1       5.215   4.259  18.431  0.00  0.00    +0.000 A 
ATOM     12  C   UNL     1       4.416   4.275  19.552  0.00  0.00    +0.000 A 
ATOM     13  C   UNL     1       3.038   4.049  19.344  0.00  0.00    +0.000 A 
ATOM     14  C   UNL     1       2.527   3.825  18.043  0.00  0.00    +0.000 A 
ATOM     15  C   UNL     1       3.373   3.807  16.931  0.00  0.00    +0.000 A 
ATOM     16  C   UNL     1       4.722   4.038  17.170  0.00  0.00    +0.000 A 
ENDBRANCH   3  13
ENDBRANCH   1   3
BRANCH   1  17
ATOM     17  C   UNL     1       1.255   6.552  20.885  0.00  0.00    +0.000 C 
BRANCH  17  18
ATOM     18  C   UNL     1       1.912   7.581  19.940  0.00  0.00    +0.000 C 
BRANCH  18  19
ATOM     19  N   UNL     1       1.821   8.904  20.561  0.00  0.00    +0.000 NA
ATOM     20  C   UNL     1       1.177   9.919  19.709  0.00  0.00    +0.000 C 
ATOM     21  C   UNL     1      -0.341  10.029  19.825  0.00  0.00    +0.000 C 
ATOM     22  N   UNL     1      -0.690  10.287  21.213  0.00  0.00    +0.000 N 
ATOM     23  C   UNL     1      -0.214   9.278  22.164  0.00  0.00    +0.000 C 
ATOM     24  C   UNL     1       1.296   8.953  21.943  0.00  0.00    +0.000 C 
BRANCH  22  25
ATOM     25  C   UNL     1      -1.326  11.450  21.578  0.00  0.00    +0.000 A 
ATOM     26  C   UNL     1      -1.727  12.405  20.636  0.00  0.00    +0.000 A 
ATOM     27  C   UNL     1      -2.339  13.601  21.022  0.00  0.00    +0.000 A 
ATOM     28  C   UNL     1      -2.579  13.860  22.369  0.00  0.00    +0.000 A 
ATOM     29  C   UNL     1      -2.213  12.924  23.324  0.00  0.00    +0.000 A 
ATOM     30  C   UNL     1      -1.594  11.742  22.926  0.00  0.00    +0.000 A 
ENDBRANCH  22  25
ENDBRANCH  18  19
ENDBRANCH  17  18
ENDBRANCH   1  17
TORSDOF 6
ENDMDL
MODEL 4
REMARK VINA RESULT:      -7.6      6.467      8.816
REMARK  Name = 
REMARK  7 active torsions:
REMARK  status: ('A' for Active; 'I' for Inactive)
REMARK    1  A    between atoms: C_1  and  N_2
REMARK    2  A    between atoms: C_8  and  S_9
REMARK    3  A    between atoms: S_9  and  N_12
REMARK    4  A    between atoms: N_12  and  C_13
REMARK    5  A    between atoms: C_13  and  C_14
REMARK    6  A    between atoms: C_14  and  N_15
REMARK    7  A    between atoms: N_18  and  C_19
REMARK                            x       y       z     vdW  Elec       q    Type
REMARK                         _______ _______ _______ _____ _____    ______ ____
ROOT
ATOM      1  N   UNL     1       6.604   7.476  17.127  0.00  0.00    +0.000 NA
ATOM      2  H   UNL     1       5.754   7.824  17.599  0.00  0.00    +0.000 HD
ENDROOT
BRANCH   1   3
ATOM      3  S   UNL     1       6.501   5.846  16.683  0.00  0.00    +0.000 S 
ATOM      4  O   UNL     1       7.681   5.181  17.210  0.00  0.00    +0.000 OA
ATOM      5  O   UNL     1       6.148   5.766  15.291  0.00  0.00    +0.000 OA
BRANCH   3  13
ATOM      6  C   UNL     1       1.270   3.711  20.766  0.00  0.00    +0.000 C 
ATOM      7  N   UNL     1       1.841   3.634  19.455  0.00  0.00    +0.000 N 
ATOM      8  C   UNL     1       1.349   2.909  18.386  0.00  0.00    +0.000 A 
ATOM      9  O   UNL     1       0.342   2.216  18.383  0.00  0.00    +0.000 OA
ATOM     10  O   UNL     1       2.160   3.068  17.255  0.00  0.00    +0.000 OA
ATOM     11  C   UNL     1       3.150   3.935  17.716  0.00  0.00    +0.000 A 
ATOM     12  C   UNL     1       4.202   4.397  16.957  0.00  0.00    +0.000 A 
ATOM     13  C   UNL     1       5.107   5.266  17.603  0.00  0.00    +0.000 A 
ATOM     14  C   UNL     1       4.923   5.632  18.959  0.00  0.00    +0.000 A 
ATOM     15  C   UNL     1       3.847   5.133  19.697  0.00  0.00    +0.000 A 
ATOM     16  C   UNL     1       2.972   4.285  19.031  0.00  0.00    +0.000 A 
ENDBRANCH   3  13
ENDBRANCH   1   3
BRANCH   1  17
ATOM     17  C   UNL     1       7.842   7.779  17.893  0.00  0.00    +0.000 C 
BRANCH  17  18
ATOM     18  C   UNL     1       8.586   9.048  17.426  0.00  0.00    +0.000 C 
BRANCH  18  19
ATOM     19  N   UNL     1       8.297  10.129  18.372  0.00  0.00    +0.000 NA
ATOM     20  C   UNL     1       9.245  10.203  19.498  0.00  0.00    +0.000 C 
ATOM     21  C   UNL     1      10.488  11.059  19.274  0.00  0.00    +0.000 C 
ATOM     22  N   UNL     1      10.074  12.407  18.915  0.00  0.00    +0.000 N 
ATOM     23  C   UNL     1       9.221  12.491  17.725  0.00  0.00    +0.000 C 
ATOM     24  C   UNL     1       8.046  11.466  17.792  0.00  0.00    +0.000 C 
BRANCH  22  25
ATOM     25  C   UNL     1      10.391  13.481  19.713  0.00  0.00    +0.000 A 
ATOM     26  C   UNL     1       9.788  13.682  20.961  0.00  0.00    +0.000 A 
ATOM     27  C   UNL     1      10.091  14.799  21.746  0.00  0.00    +0.000 A 
ATOM     28  C   UNL     1      11.022  15.735  21.303  0.00  0.00    +0.000 A 
ATOM     29  C   UNL     1      11.651  15.551  20.080  0.00  0.00    +0.000 A 
ATOM     30  C   UNL     1      11.332  14.440  19.303  0.00  0.00    +0.000 A 
ENDBRANCH  22  25
ENDBRANCH  18  19
ENDBRANCH  17  18
ENDBRANCH   1  17
TORSDOF 6
ENDMDL
MODEL 5
REMARK VINA RESULT:      -7.5      4.817     11.092
REMARK  Name = 
REMARK  7 active torsions:
REMARK  status: ('A' for Active; 'I' for Inactive)
REMARK    1  A    between atoms: C_1  and  N_2
REMARK    2  A    between atoms: C_8  and  S_9
REMARK    3  A    between atoms: S_9  and  N_12
REMARK    4  A    between atoms: N_12  and  C_13
REMARK    5  A    between atoms: C_13  and  C_14
REMARK    6  A    between atoms: C_14  and  N_15
REMARK    7  A    between atoms: N_18  and  C_19
REMARK                            x       y       z     vdW  Elec       q    Type
REMARK                         _______ _______ _______ _____ _____    ______ ____
ROOT
ATOM      1  N   UNL     1      -0.272  12.342  20.755  0.00  0.00    +0.000 NA
ATOM      2  H   UNL     1      -0.455  13.202  20.212  0.00  0.00    +0.000 HD
ENDROOT
BRANCH   1   3
ATOM      3  S   UNL     1      -0.798  12.442  22.360  0.00  0.00    +0.000 S 
ATOM      4  O   UNL     1      -0.327  13.710  22.891  0.00  0.00    +0.000 OA
ATOM      5  O   UNL     1      -0.513  11.196  23.020  0.00  0.00    +0.000 OA
BRANCH   3  13
ATOM      6  C   UNL     1      -7.648  13.085  21.238  0.00  0.00    +0.000 C 
ATOM      7  N   UNL     1      -6.636  12.883  22.231  0.00  0.00    +0.000 N 
ATOM      8  C   UNL     1      -6.838  12.724  23.589  0.00  0.00    +0.000 A 
ATOM      9  O   UNL     1      -7.916  12.728  24.166  0.00  0.00    +0.000 OA
ATOM     10  O   UNL     1      -5.621  12.544  24.260  0.00  0.00    +0.000 OA
ATOM     11  C   UNL     1      -4.695  12.595  23.219  0.00  0.00    +0.000 A 
ATOM     12  C   UNL     1      -3.334  12.467  23.377  0.00  0.00    +0.000 A 
ATOM     13  C   UNL     1      -2.556  12.551  22.202  0.00  0.00    +0.000 A 
ATOM     14  C   UNL     1      -3.164  12.753  20.940  0.00  0.00    +0.000 A 
ATOM     15  C   UNL     1      -4.550  12.888  20.824  0.00  0.00    +0.000 A 
ATOM     16  C   UNL     1      -5.287  12.795  21.998  0.00  0.00    +0.000 A 
ENDBRANCH   3  13
ENDBRANCH   1   3
BRANCH   1  17
ATOM     17  C   UNL     1       1.142  11.894  20.648  0.00  0.00    +0.000 C 
BRANCH  17  18
ATOM     18  C   UNL     1       1.489  11.195  19.317  0.00  0.00    +0.000 C 
BRANCH  18  19
ATOM     19  N   UNL     1       0.796   9.905  19.276  0.00  0.00    +0.000 NA
ATOM     20  C   UNL     1       1.125   9.089  18.093  0.00  0.00    +0.000 C 
ATOM     21  C   UNL     1       2.330   8.163  18.230  0.00  0.00    +0.000 C 
ATOM     22  N   UNL     1       2.119   7.282  19.368  0.00  0.00    +0.000 N 
ATOM     23  C   UNL     1       1.903   7.968  20.645  0.00  0.00    +0.000 C 
ATOM     24  C   UNL     1       0.832   9.095  20.513  0.00  0.00    +0.000 C 
BRANCH  22  25
ATOM     25  C   UNL     1       2.032   5.919  19.202  0.00  0.00    +0.000 A 
ATOM     26  C   UNL     1       1.537   5.079  20.206  0.00  0.00    +0.000 A 
ATOM     27  C   UNL     1       1.490   3.692  20.040  0.00  0.00    +0.000 A 
ATOM     28  C   UNL     1       1.923   3.114  18.849  0.00  0.00    +0.000 A 
ATOM     29  C   UNL     1       2.399   3.923  17.828  0.00  0.00    +0.000 A 
ATOM     30  C   UNL     1       2.452   5.302  18.011  0.00  0.00    +0.000 A 
ENDBRANCH  22  25
ENDBRANCH  18  19
ENDBRANCH  17  18
ENDBRANCH   1  17
TORSDOF 6
ENDMDL
MODEL 6
REMARK VINA RESULT:      -7.5      3.175      9.831
REMARK  Name = 
REMARK  7 active torsions:
REMARK  status: ('A' for Active; 'I' for Inactive)
REMARK    1  A    between atoms: C_1  and  N_2
REMARK    2  A    between atoms: C_8  and  S_9
REMARK    3  A    between atoms: S_9  and  N_12
REMARK    4  A    between atoms: N_12  and  C_13
REMARK    5  A    between atoms: C_13  and  C_14
REMARK    6  A    between atoms: C_14  and  N_15
REMARK    7  A    between atoms: N_18  and  C_19
REMARK                            x       y       z     vdW  Elec       q    Type
REMARK                         _______ _______ _______ _____ _____    ______ ____
ROOT
ATOM      1  N   UNL     1       3.632   3.842  20.079  0.00  0.00    +0.000 NA
ATOM      2  H   UNL     1       3.590   2.934  20.569  0.00  0.00    +0.000 HD
ENDROOT
BRANCH   1   3
ATOM      3  S   UNL     1       2.313   4.109  19.053  0.00  0.00    +0.000 S 
ATOM      4  O   UNL     1       1.172   3.414  19.627  0.00  0.00    +0.000 OA
ATOM      5  O   UNL     1       2.728   3.881  17.695  0.00  0.00    +0.000 OA
BRANCH   3  13
ATOM      6  C   UNL     1       1.426  11.020  19.238  0.00  0.00    +0.000 C 
ATOM      7  N   UNL     1       1.369   9.809  20.002  0.00  0.00    +0.000 N 
ATOM      8  C   UNL     1       1.028   9.695  21.336  0.00  0.00    +0.000 A 
ATOM      9  O   UNL     1       0.716  10.610  22.085  0.00  0.00    +0.000 OA
ATOM     10  O   UNL     1       1.073   8.358  21.753  0.00  0.00    +0.000 OA
ATOM     11  C   UNL     1       1.449   7.693  20.586  0.00  0.00    +0.000 A 
ATOM     12  C   UNL     1       1.632   6.332  20.486  0.00  0.00    +0.000 A 
ATOM     13  C   UNL     1       2.018   5.844  19.219  0.00  0.00    +0.000 A 
ATOM     14  C   UNL     1       2.199   6.723  18.124  0.00  0.00    +0.000 A 
ATOM     15  C   UNL     1       2.013   8.100  18.271  0.00  0.00    +0.000 A 
ATOM     16  C   UNL     1       1.627   8.548  19.528  0.00  0.00    +0.000 A 
ENDBRANCH   3  13
ENDBRANCH   1   3
BRANCH   1  17
ATOM     17  C   UNL     1       4.935   4.058  19.396  0.00  0.00    +0.000 C 
BRANCH  17  18
ATOM     18  C   UNL     1       5.422   5.523  19.401  0.00  0.00    +0.000 C 
BRANCH  18  19
ATOM     19  N   UNL     1       6.350   5.706  18.282  0.00  0.00    +0.000 NA
ATOM     20  C   UNL     1       6.823   4.443  17.687  0.00  0.00    +0.000 C 
ATOM     21  C   UNL     1       5.966   3.867  16.564  0.00  0.00    +0.000 C 
ATOM     22  N   UNL     1       5.834   4.864  15.514  0.00  0.00    +0.000 N 
ATOM     23  C   UNL     1       5.253   6.140  15.946  0.00  0.00    +0.000 C 
ATOM     24  C   UNL     1       5.946   6.673  17.238  0.00  0.00    +0.000 C 
BRANCH  22  25
ATOM     25  C   UNL     1       6.323   4.630  14.250  0.00  0.00    +0.000 A 
ATOM     26  C   UNL     1       7.380   5.375  13.713  0.00  0.00    +0.000 A 
ATOM     27  C   UNL     1       7.842   5.152  12.412  0.00  0.00    +0.000 A 
ATOM     28  C   UNL     1       7.265   4.161  11.624  0.00  0.00    +0.000 A 
ATOM     29  C   UNL     1       6.231   3.393  12.136  0.00  0.00    +0.000 A 
ATOM     30  C   UNL     1       5.771   3.632  13.429  0.00  0.00    +0.000 A 
ENDBRANCH  22  25
ENDBRANCH  18  19
ENDBRANCH  17  18
ENDBRANCH   1  17
TORSDOF 6
ENDMDL
MODEL 7
REMARK VINA RESULT:      -7.5      3.016      4.119
REMARK  Name = 
REMARK  7 active torsions:
REMARK  status: ('A' for Active; 'I' for Inactive)
REMARK    1  A    between atoms: C_1  and  N_2
REMARK    2  A    between atoms: C_8  and  S_9
REMARK    3  A    between atoms: S_9  and  N_12
REMARK    4  A    between atoms: N_12  and  C_13
REMARK    5  A    between atoms: C_13  and  C_14
REMARK    6  A    between atoms: C_14  and  N_15
REMARK    7  A    between atoms: N_18  and  C_19
REMARK                            x       y       z     vdW  Elec       q    Type
REMARK                         _______ _______ _______ _____ _____    ______ ____
ROOT
ATOM      1  N   UNL     1       4.349   5.793  19.477  0.00  0.00    +0.000 NA
ATOM      2  H   UNL     1       4.716   6.726  19.231  0.00  0.00    +0.000 HD
ENDROOT
BRANCH   1   3
ATOM      3  S   UNL     1       5.504   4.564  19.339  0.00  0.00    +0.000 S 
ATOM      4  O   UNL     1       4.884   3.334  19.803  0.00  0.00    +0.000 OA
ATOM      5  O   UNL     1       6.748   5.034  19.887  0.00  0.00    +0.000 OA
BRANCH   3  13
ATOM      6  C   UNL     1       6.129   3.519  12.475  0.00  0.00    +0.000 C 
ATOM      7  N   UNL     1       6.616   4.264  13.598  0.00  0.00    +0.000 N 
ATOM      8  C   UNL     1       7.610   5.224  13.577  0.00  0.00    +0.000 A 
ATOM      9  O   UNL     1       8.236   5.598  12.595  0.00  0.00    +0.000 OA
ATOM     10  O   UNL     1       7.826   5.750  14.857  0.00  0.00    +0.000 OA
ATOM     11  C   UNL     1       6.897   5.053  15.628  0.00  0.00    +0.000 A 
ATOM     12  C   UNL     1       6.722   5.221  16.984  0.00  0.00    +0.000 A 
ATOM     13  C   UNL     1       5.732   4.419  17.592  0.00  0.00    +0.000 A 
ATOM     14  C   UNL     1       4.970   3.501  16.829  0.00  0.00    +0.000 A 
ATOM     15  C   UNL     1       5.186   3.354  15.457  0.00  0.00    +0.000 A 
ATOM     16  C   UNL     1       6.162   4.161  14.889  0.00  0.00    +0.000 A 
ENDBRANCH   3  13
ENDBRANCH   1   3
BRANCH   1  17
ATOM     17  C   UNL     1       3.089   5.471  18.754  0.00  0.00    +0.000 C 
BRANCH  17  18
ATOM     18  C   UNL     1       1.862   6.282  19.220  0.00  0.00    +0.000 C 
BRANCH  18  19
ATOM     19  N   UNL     1       2.294   7.652  19.508  0.00  0.00    +0.000 NA
ATOM     20  C   UNL     1       2.413   8.503  18.311  0.00  0.00    +0.000 C 
ATOM     21  C   UNL     1       1.150   9.249  17.889  0.00  0.00    +0.000 C 
ATOM     22  N   UNL     1       0.690  10.062  19.004  0.00  0.00    +0.000 N 
ATOM     23  C   UNL     1       0.410   9.316  20.235  0.00  0.00    +0.000 C 
ATOM     24  C   UNL     1       1.583   8.355  20.598  0.00  0.00    +0.000 C 
BRANCH  22  25
ATOM     25  C   UNL     1       0.633  11.433  18.904  0.00  0.00    +0.000 A 
ATOM     26  C   UNL     1       1.766  12.203  18.616  0.00  0.00    +0.000 A 
ATOM     27  C   UNL     1       1.704  13.598  18.555  0.00  0.00    +0.000 A 
ATOM     28  C   UNL     1       0.495  14.255  18.765  0.00  0.00    +0.000 A 
ATOM     29  C   UNL     1      -0.649  13.517  19.031  0.00  0.00    +0.000 A 
ATOM     30  C   UNL     1      -0.571  12.129  19.101  0.00  0.00    +0.000 A 
ENDBRANCH  22  25
ENDBRANCH  18  19
ENDBRANCH  17  18
ENDBRANCH   1  17
TORSDOF 6
ENDMDL
MODEL 8
REMARK VINA RESULT:      -7.4      6.749      9.097
REMARK  Name = 
REMARK  7 active torsions:
REMARK  status: ('A' for Active; 'I' for Inactive)
REMARK    1  A    between atoms: C_1  and  N_2
REMARK    2  A    between atoms: C_8  and  S_9
REMARK    3  A    between atoms: S_9  and  N_12
REMARK    4  A    between atoms: N_12  and  C_13
REMARK    5  A    between atoms: C_13  and  C_14
REMARK    6  A    between atoms: C_14  and  N_15
REMARK    7  A    between atoms: N_18  and  C_19
REMARK                            x       y       z     vdW  Elec       q    Type
REMARK                         _______ _______ _______ _____ _____    ______ ____
ROOT
ATOM      1  N   UNL     1       7.616   6.722  18.037  0.00  0.00    +0.000 NA
ATOM      2  H   UNL     1       8.525   6.248  18.163  0.00  0.00    +0.000 HD
ENDROOT
BRANCH   1   3
ATOM      3  S   UNL     1       6.663   6.024  16.824  0.00  0.00    +0.000 S 
ATOM      4  O   UNL     1       7.452   4.969  16.210  0.00  0.00    +0.000 OA
ATOM      5  O   UNL     1       6.068   7.073  16.041  0.00  0.00    +0.000 OA
BRANCH   3  13
ATOM      6  C   UNL     1       1.828   3.023  20.848  0.00  0.00    +0.000 C 
ATOM      7  N   UNL     1       2.253   3.253  19.500  0.00  0.00    +0.000 N 
ATOM      8  C   UNL     1       1.627   2.806  18.353  0.00  0.00    +0.000 A 
ATOM      9  O   UNL     1       0.602   2.140  18.300  0.00  0.00    +0.000 OA
ATOM     10  O   UNL     1       2.318   3.222  17.208  0.00  0.00    +0.000 OA
ATOM     11  C   UNL     1       3.379   3.948  17.747  0.00  0.00    +0.000 A 
ATOM     12  C   UNL     1       4.359   4.568  17.005  0.00  0.00    +0.000 A 
ATOM     13  C   UNL     1       5.357   5.253  17.732  0.00  0.00    +0.000 A 
ATOM     14  C   UNL     1       5.330   5.289  19.147  0.00  0.00    +0.000 A 
ATOM     15  C   UNL     1       4.323   4.638  19.863  0.00  0.00    +0.000 A 
ATOM     16  C   UNL     1       3.354   3.978  19.118  0.00  0.00    +0.000 A 
ENDBRANCH   3  13
ENDBRANCH   1   3
BRANCH   1  17
ATOM     17  C   UNL     1       7.761   8.193  17.869  0.00  0.00    +0.000 C 
BRANCH  17  18
ATOM     18  C   UNL     1       8.839   8.833  18.768  0.00  0.00    +0.000 C 
BRANCH  18  19
ATOM     19  N   UNL     1       8.781  10.286  18.598  0.00  0.00    +0.000 NA
ATOM     20  C   UNL     1       8.552  11.024  19.853  0.00  0.00    +0.000 C 
ATOM     21  C   UNL     1       9.799  11.410  20.643  0.00  0.00    +0.000 C 
ATOM     22  N   UNL     1      10.674  12.195  19.787  0.00  0.00    +0.000 N 
ATOM     23  C   UNL     1      11.087  11.525  18.549  0.00  0.00    +0.000 C 
ATOM     24  C   UNL     1       9.865  10.904  17.803  0.00  0.00    +0.000 C 
BRANCH  22  25
ATOM     25  C   UNL     1      10.985  13.499  20.097  0.00  0.00    +0.000 A 
ATOM     26  C   UNL     1      11.985  14.205  19.418  0.00  0.00    +0.000 A 
ATOM     27  C   UNL     1      12.317  15.517  19.767  0.00  0.00    +0.000 A 
ATOM     28  C   UNL     1      11.639  16.160  20.800  0.00  0.00    +0.000 A 
ATOM     29  C   UNL     1      10.629  15.492  21.477  0.00  0.00    +0.000 A 
ATOM     30  C   UNL     1      10.316  14.182  21.126  0.00  0.00    +0.000 A 
ENDBRANCH  22  25
ENDBRANCH  18  19
ENDBRANCH  17  18
ENDBRANCH   1  17
TORSDOF 6
ENDMDL
MODEL 9
REMARK VINA RESULT:      -7.4      2.202      2.926
REMARK  Name = 
REMARK  7 active torsions:
REMARK  status: ('A' for Active; 'I' for Inactive)
REMARK    1  A    between atoms: C_1  and  N_2
REMARK    2  A    between atoms: C_8  and  S_9
REMARK    3  A    between atoms: S_9  and  N_12
REMARK    4  A    between atoms: N_12  and  C_13
REMARK    5  A    between atoms: C_13  and  C_14
REMARK    6  A    between atoms: C_14  and  N_15
REMARK    7  A    between atoms: N_18  and  C_19
REMARK                            x       y       z     vdW  Elec       q    Type
REMARK                         _______ _______ _______ _____ _____    ______ ____
ROOT
ATOM      1  N   UNL     1       0.849   4.698  20.490  0.00  0.00    +0.000 NA
ATOM      2  H   UNL     1       0.009   4.607  21.083  0.00  0.00    +0.000 HD
ENDROOT
BRANCH   1   3
ATOM      3  S   UNL     1       1.847   3.332  20.532  0.00  0.00    +0.000 S 
ATOM      4  O   UNL     1       1.023   2.185  20.191  0.00  0.00    +0.000 OA
ATOM      5  O   UNL     1       2.629   3.366  21.738  0.00  0.00    +0.000 OA
BRANCH   3  13
ATOM      6  C   UNL     1       5.865   4.182  14.900  0.00  0.00    +0.000 C 
ATOM      7  N   UNL     1       5.841   4.167  16.332  0.00  0.00    +0.000 N 
ATOM      8  C   UNL     1       6.916   4.376  17.174  0.00  0.00    +0.000 A 
ATOM      9  O   UNL     1       8.068   4.611  16.834  0.00  0.00    +0.000 OA
ATOM     10  O   UNL     1       6.527   4.293  18.517  0.00  0.00    +0.000 OA
ATOM     11  C   UNL     1       5.160   4.035  18.416  0.00  0.00    +0.000 A 
ATOM     12  C   UNL     1       4.315   3.865  19.490  0.00  0.00    +0.000 A 
ATOM     13  C   UNL     1       2.961   3.605  19.187  0.00  0.00    +0.000 A 
ATOM     14  C   UNL     1       2.518   3.530  17.845  0.00  0.00    +0.000 A 
ATOM     15  C   UNL     1       3.410   3.699  16.783  0.00  0.00    +0.000 A 
ATOM     16  C   UNL     1       4.733   3.958  17.115  0.00  0.00    +0.000 A 
ENDBRANCH   3  13
ENDBRANCH   1   3
BRANCH   1  17
ATOM     17  C   UNL     1       1.598   5.956  20.756  0.00  0.00    +0.000 C 
BRANCH  17  18
ATOM     18  C   UNL     1       0.704   7.176  21.064  0.00  0.00    +0.000 C 
BRANCH  18  19
ATOM     19  N   UNL     1       1.501   8.391  20.882  0.00  0.00    +0.000 NA
ATOM     20  C   UNL     1       1.472   8.922  19.507  0.00  0.00    +0.000 C 
ATOM     21  C   UNL     1       0.347   9.903  19.189  0.00  0.00    +0.000 C 
ATOM     22  N   UNL     1       0.414  11.015  20.124  0.00  0.00    +0.000 N 
ATOM     23  C   UNL     1       0.326  10.636  21.538  0.00  0.00    +0.000 C 
ATOM     24  C   UNL     1       1.302   9.468  21.877  0.00  0.00    +0.000 C 
BRANCH  22  25
ATOM     25  C   UNL     1       0.647  12.297  19.683  0.00  0.00    +0.000 A 
ATOM     26  C   UNL     1       1.943  12.804  19.525  0.00  0.00    +0.000 A 
ATOM     27  C   UNL     1       2.166  14.121  19.113  0.00  0.00    +0.000 A 
ATOM     28  C   UNL     1       1.090  14.959  18.831  0.00  0.00    +0.000 A 
ATOM     29  C   UNL     1      -0.204  14.478  18.958  0.00  0.00    +0.000 A 
ATOM     30  C   UNL     1      -0.414  13.168  19.380  0.00  0.00    +0.000 A 
ENDBRANCH  22  25
ENDBRANCH  18  19
ENDBRANCH  17  18
ENDBRANCH   1  17
TORSDOF 6
ENDMDL
