MODEL 1
REMARK VINA RESULT:      -6.7      0.000      0.000
REMARK  Name = 
REMARK  7 active torsions:
REMARK  status: ('A' for Active; 'I' for Inactive)
REMARK    1  A    between atoms: C_1  and  N_2
REMARK    2  A    between atoms: N_2  and  C_3
REMARK    3  A    between atoms: C_3  and  C_4
REMARK    4  A    between atoms: C_3  and  C_5
REMARK    5  A    between atoms: N_15  and  C_16
REMARK    6  A    between atoms: C_20  and  C_21
REMARK    7  A    between atoms: N_27  and  C_28
REMARK                            x       y       z     vdW  Elec       q    Type
REMARK                         _______ _______ _______ _____ _____    ______ ____
ROOT
ATOM      1  C   UNL     1       2.182  13.480  18.515  0.00  0.00    +0.000 C 
ATOM      2  O   UNL     1       2.792  12.617  17.881  0.00  0.00    +0.000 OA
ATOM      3  N   UNL     1       2.788  14.500  19.226  0.00  0.00    +0.000 N 
ATOM      4  C   UNL     1       4.170  14.634  19.316  0.00  0.00    +0.000 A 
ATOM      5  C   UNL     1       4.961  14.572  18.178  0.00  0.00    +0.000 A 
ATOM      6  C   UNL     1       6.337  14.747  18.302  0.00  0.00    +0.000 A 
ATOM      7  C   UNL     1       6.908  14.898  19.567  0.00  0.00    +0.000 A 
ATOM      8  C   UNL     1       6.033  14.933  20.653  0.00  0.00    +0.000 A 
ATOM      9  N   UNL     1       4.677  14.862  20.544  0.00  0.00    +0.000 NA
ATOM     10  C   UNL     1       6.609  15.036  22.036  0.00  0.00    +0.000 C 
ATOM     11  N   UNL     1       8.029  14.722  22.088  0.00  0.00    +0.000 N 
ATOM     12  C   UNL     1       8.864  15.173  21.070  0.00  0.00    +0.000 C 
ATOM     13  O   UNL     1      10.052  15.426  21.287  0.00  0.00    +0.000 OA
ATOM     14  N   UNL     1       8.305  15.097  19.782  0.00  0.00    +0.000 N 
ATOM     15  H   UNL     1       2.240  14.881  19.986  0.00  0.00    +0.000 HD
ENDROOT
BRANCH  11  16
ATOM     16  C   UNL     1       8.636  13.858  23.120  0.00  0.00    +0.000 C 
ATOM     17  C   UNL     1       8.243  12.384  22.970  0.00  0.00    +0.000 C 
ATOM     18  C   UNL     1       6.950  12.001  23.677  0.00  0.00    +0.000 C 
ATOM     19  N   UNL     1       6.837  12.548  25.029  0.00  0.00    +0.000 N 
ATOM     20  C   UNL     1       6.007  12.004  26.008  0.00  0.00    +0.000 C 
ATOM     21  C   UNL     1       5.217  10.760  25.686  0.00  0.00    +0.000 C 
ATOM     22  O   UNL     1       5.896  12.509  27.126  0.00  0.00    +0.000 OA
ATOM     23  C   UNL     1       7.212  13.950  25.223  0.00  0.00    +0.000 C 
ATOM     24  C   UNL     1       8.518  14.337  24.558  0.00  0.00    +0.000 C 
ENDBRANCH  11  16
BRANCH  14  25
ATOM     25  C   UNL     1       9.214  14.774  18.731  0.00  0.00    +0.000 A 
ATOM     26  C   UNL     1       9.817  15.795  17.984  0.00  0.00    +0.000 A 
ATOM     27  C   UNL     1      10.805  15.491  17.047  0.00  0.00    +0.000 A 
ATOM     28  C   UNL     1      11.220  14.171  16.868  0.00  0.00    +0.000 A 
ATOM     29  C   UNL     1      10.642  13.157  17.628  0.00  0.00    +0.000 A 
ATOM     30 CL   UNL     1      11.187  11.535  17.450  0.00  0.00    +0.000 Cl
ATOM     31  C   UNL     1       9.644  13.449  18.554  0.00  0.00    +0.000 A 
ENDBRANCH  14  25
BRANCH   1  32
ATOM     32  C   UNL     1       0.644  13.505  18.544  0.00  0.00    +0.000 C 
ATOM     33  C   UNL     1       0.241  14.026  19.918  0.00  0.00    +0.000 C 
BRANCH  32  35
ATOM     34  C   UNL     1      -0.896  11.719  19.190  0.00  0.00    +0.000 C 
ATOM     35  N   UNL     1       0.097  12.160  18.210  0.00  0.00    +0.000 NA
ATOM     36  H   UNL     1      -0.383  12.233  17.310  0.00  0.00    +0.000 HD
ENDBRANCH  32  35
ENDBRANCH   1  32
TORSDOF 4
ENDMDL
MODEL 2
REMARK VINA RESULT:      -6.7      3.514      6.961
REMARK  Name = 
REMARK  7 active torsions:
REMARK  status: ('A' for Active; 'I' for Inactive)
REMARK    1  A    between atoms: C_1  and  N_2
REMARK    2  A    between atoms: N_2  and  C_3
REMARK    3  A    between atoms: C_3  and  C_4
REMARK    4  A    between atoms: C_3  and  C_5
REMARK    5  A    between atoms: N_15  and  C_16
REMARK    6  A    between atoms: C_20  and  C_21
REMARK    7  A    between atoms: N_27  and  C_28
REMARK                            x       y       z     vdW  Elec       q    Type
REMARK                         _______ _______ _______ _____ _____    ______ ____
ROOT
ATOM      1  C   UNL     1       6.147  11.883  24.880  0.00  0.00    +0.000 C 
ATOM      2  O   UNL     1       5.582  11.300  23.953  0.00  0.00    +0.000 OA
ATOM      3  N   UNL     1       6.595  13.190  24.821  0.00  0.00    +0.000 N 
ATOM      4  C   UNL     1       6.472  13.976  23.679  0.00  0.00    +0.000 A 
ATOM      5  C   UNL     1       5.260  14.060  23.008  0.00  0.00    +0.000 A 
ATOM      6  C   UNL     1       5.164  14.885  21.891  0.00  0.00    +0.000 A 
ATOM      7  C   UNL     1       6.297  15.545  21.413  0.00  0.00    +0.000 A 
ATOM      8  C   UNL     1       7.473  15.387  22.146  0.00  0.00    +0.000 A 
ATOM      9  N   UNL     1       7.565  14.664  23.298  0.00  0.00    +0.000 NA
ATOM     10  C   UNL     1       8.730  16.033  21.636  0.00  0.00    +0.000 C 
ATOM     11  N   UNL     1       8.635  16.444  20.243  0.00  0.00    +0.000 N 
ATOM     12  C   UNL     1       7.452  17.015  19.780  0.00  0.00    +0.000 C 
ATOM     13  O   UNL     1       7.461  17.836  18.860  0.00  0.00    +0.000 OA
ATOM     14  N   UNL     1       6.283  16.419  20.285  0.00  0.00    +0.000 N 
ATOM     15  H   UNL     1       7.353  13.416  25.453  0.00  0.00    +0.000 HD
ENDROOT
BRANCH  11  16
ATOM     16  C   UNL     1       9.698  16.204  19.248  0.00  0.00    +0.000 C 
ATOM     17  C   UNL     1       9.227  15.347  18.068  0.00  0.00    +0.000 C 
ATOM     18  C   UNL     1       9.353  13.845  18.288  0.00  0.00    +0.000 C 
ATOM     19  N   UNL     1      10.626  13.446  18.887  0.00  0.00    +0.000 N 
ATOM     20  C   UNL     1      11.152  12.159  18.779  0.00  0.00    +0.000 C 
ATOM     21  C   UNL     1      10.406  11.131  17.966  0.00  0.00    +0.000 C 
ATOM     22  O   UNL     1      12.207  11.836  19.329  0.00  0.00    +0.000 OA
ATOM     23  C   UNL     1      11.123  14.242  20.011  0.00  0.00    +0.000 C 
ATOM     24  C   UNL     1      11.040  15.740  19.790  0.00  0.00    +0.000 C 
ENDBRANCH  11  16
BRANCH  14  25
ATOM     25  C   UNL     1       5.183  16.354  19.380  0.00  0.00    +0.000 A 
ATOM     26  C   UNL     1       5.178  15.412  18.342  0.00  0.00    +0.000 A 
ATOM     27  C   UNL     1       4.048  15.256  17.539  0.00  0.00    +0.000 A 
ATOM     28  C   UNL     1       2.904  16.017  17.782  0.00  0.00    +0.000 A 
ATOM     29  C   UNL     1       2.895  16.934  18.829  0.00  0.00    +0.000 A 
ATOM     30 CL   UNL     1       1.469  17.835  19.168  0.00  0.00    +0.000 Cl
ATOM     31  C   UNL     1       4.024  17.108  19.626  0.00  0.00    +0.000 A 
ENDBRANCH  14  25
BRANCH   1  32
ATOM     32  C   UNL     1       6.383  11.185  26.231  0.00  0.00    +0.000 C 
ATOM     33  C   UNL     1       5.036  11.139  26.941  0.00  0.00    +0.000 C 
BRANCH  32  35
ATOM     34  C   UNL     1       7.069  12.124  28.381  0.00  0.00    +0.000 C 
ATOM     35  N   UNL     1       7.459  11.881  26.992  0.00  0.00    +0.000 NA
ATOM     36  H   UNL     1       8.274  11.265  27.014  0.00  0.00    +0.000 HD
ENDBRANCH  32  35
ENDBRANCH   1  32
TORSDOF 4
ENDMDL
MODEL 3
REMARK VINA RESULT:      -6.7      1.842      2.079
REMARK  Name = 
REMARK  7 active torsions:
REMARK  status: ('A' for Active; 'I' for Inactive)
REMARK    1  A    between atoms: C_1  and  N_2
REMARK    2  A    between atoms: N_2  and  C_3
REMARK    3  A    between atoms: C_3  and  C_4
REMARK    4  A    between atoms: C_3  and  C_5
REMARK    5  A    between atoms: N_15  and  C_16
REMARK    6  A    between atoms: C_20  and  C_21
REMARK    7  A    between atoms: N_27  and  C_28
REMARK                            x       y       z     vdW  Elec       q    Type
REMARK                         _______ _______ _______ _____ _____    ______ ____
ROOT
ATOM      1  C   UNL     1       2.317  15.724  18.460  0.00  0.00    +0.000 C 
ATOM      2  O   UNL     1       2.434  14.502  18.363  0.00  0.00    +0.000 OA
ATOM      3  N   UNL     1       3.370  16.593  18.682  0.00  0.00    +0.000 N 
ATOM      4  C   UNL     1       4.681  16.157  18.848  0.00  0.00    +0.000 A 
ATOM      5  C   UNL     1       5.242  15.253  17.958  0.00  0.00    +0.000 A 
ATOM      6  C   UNL     1       6.568  14.868  18.134  0.00  0.00    +0.000 A 
ATOM      7  C   UNL     1       7.285  15.325  19.240  0.00  0.00    +0.000 A 
ATOM      8  C   UNL     1       6.632  16.220  20.088  0.00  0.00    +0.000 A 
ATOM      9  N   UNL     1       5.368  16.686  19.880  0.00  0.00    +0.000 NA
ATOM     10  C   UNL     1       7.346  16.692  21.322  0.00  0.00    +0.000 C 
ATOM     11  N   UNL     1       8.499  15.872  21.664  0.00  0.00    +0.000 N 
ATOM     12  C   UNL     1       9.329  15.406  20.648  0.00  0.00    +0.000 C 
ATOM     13  O   UNL     1      10.528  15.203  20.850  0.00  0.00    +0.000 OA
ATOM     14  N   UNL     1       8.651  14.991  19.488  0.00  0.00    +0.000 N 
ATOM     15  H   UNL     1       3.121  17.472  19.119  0.00  0.00    +0.000 HD
ENDROOT
BRANCH  11  16
ATOM     16  C   UNL     1       8.796  15.415  23.035  0.00  0.00    +0.000 C 
ATOM     17  C   UNL     1       9.055  13.906  23.117  0.00  0.00    +0.000 C 
ATOM     18  C   UNL     1       7.803  13.060  23.307  0.00  0.00    +0.000 C 
ATOM     19  N   UNL     1       6.881  13.595  24.308  0.00  0.00    +0.000 N 
ATOM     20  C   UNL     1       5.930  12.816  24.965  0.00  0.00    +0.000 C 
ATOM     21  C   UNL     1       5.871  11.337  24.676  0.00  0.00    +0.000 C 
ATOM     22  O   UNL     1       5.135  13.299  25.774  0.00  0.00    +0.000 OA
ATOM     23  C   UNL     1       6.610  15.034  24.276  0.00  0.00    +0.000 C 
ATOM     24  C   UNL     1       7.852  15.891  24.127  0.00  0.00    +0.000 C 
ENDBRANCH  11  16
BRANCH  14  25
ATOM     25  C   UNL     1       9.218  13.874  18.807  0.00  0.00    +0.000 A 
ATOM     26  C   UNL     1      10.162  14.074  17.791  0.00  0.00    +0.000 A 
ATOM     27  C   UNL     1      10.817  12.985  17.215  0.00  0.00    +0.000 A 
ATOM     28  C   UNL     1      10.557  11.691  17.667  0.00  0.00    +0.000 A 
ATOM     29  C   UNL     1       9.640  11.490  18.695  0.00  0.00    +0.000 A 
ATOM     30 CL   UNL     1       9.357   9.902  19.294  0.00  0.00    +0.000 Cl
ATOM     31  C   UNL     1       8.970  12.570  19.265  0.00  0.00    +0.000 A 
ENDBRANCH  14  25
BRANCH   1  32
ATOM     32  C   UNL     1       0.946  16.406  18.310  0.00  0.00    +0.000 C 
ATOM     33  C   UNL     1       1.127  17.855  18.744  0.00  0.00    +0.000 C 
BRANCH  32  35
ATOM     34  C   UNL     1      -0.426  16.328  20.332  0.00  0.00    +0.000 C 
ATOM     35  N   UNL     1      -0.091  15.658  19.075  0.00  0.00    +0.000 NA
ATOM     36  H   UNL     1      -0.943  15.639  18.510  0.00  0.00    +0.000 HD
ENDBRANCH  32  35
ENDBRANCH   1  32
TORSDOF 4
ENDMDL
MODEL 4
REMARK VINA RESULT:      -6.4      1.318      1.423
REMARK  Name = 
REMARK  7 active torsions:
REMARK  status: ('A' for Active; 'I' for Inactive)
REMARK    1  A    between atoms: C_1  and  N_2
REMARK    2  A    between atoms: N_2  and  C_3
REMARK    3  A    between atoms: C_3  and  C_4
REMARK    4  A    between atoms: C_3  and  C_5
REMARK    5  A    between atoms: N_15  and  C_16
REMARK    6  A    between atoms: C_20  and  C_21
REMARK    7  A    between atoms: N_27  and  C_28
REMARK                            x       y       z     vdW  Elec       q    Type
REMARK                         _______ _______ _______ _____ _____    ______ ____
ROOT
ATOM      1  C   UNL     1       1.869  14.516  18.653  0.00  0.00    +0.000 C 
ATOM      2  O   UNL     1       2.261  13.357  18.514  0.00  0.00    +0.000 OA
ATOM      3  N   UNL     1       2.700  15.601  18.864  0.00  0.00    +0.000 N 
ATOM      4  C   UNL     1       4.083  15.479  18.967  0.00  0.00    +0.000 A 
ATOM      5  C   UNL     1       4.798  14.750  18.028  0.00  0.00    +0.000 A 
ATOM      6  C   UNL     1       6.184  14.680  18.142  0.00  0.00    +0.000 A 
ATOM      7  C   UNL     1       6.823  15.267  19.235  0.00  0.00    +0.000 A 
ATOM      8  C   UNL     1       6.018  15.966  20.134  0.00  0.00    +0.000 A 
ATOM      9  N   UNL     1       4.673  16.130  19.988  0.00  0.00    +0.000 NA
ATOM     10  C   UNL     1       6.657  16.565  21.355  0.00  0.00    +0.000 C 
ATOM     11  N   UNL     1       7.982  16.028  21.627  0.00  0.00    +0.000 N 
ATOM     12  C   UNL     1       8.852  15.791  20.566  0.00  0.00    +0.000 C 
ATOM     13  O   UNL     1      10.073  15.868  20.717  0.00  0.00    +0.000 OA
ATOM     14  N   UNL     1       8.238  15.255  19.420  0.00  0.00    +0.000 N 
ATOM     15  H   UNL     1       2.273  16.388  19.337  0.00  0.00    +0.000 HD
ENDROOT
BRANCH  11  16
ATOM     16  C   UNL     1       8.437  15.622  22.971  0.00  0.00    +0.000 C 
ATOM     17  C   UNL     1       8.803  14.135  23.053  0.00  0.00    +0.000 C 
ATOM     18  C   UNL     1       7.634  13.214  23.375  0.00  0.00    +0.000 C 
ATOM     19  N   UNL     1       6.776  13.711  24.450  0.00  0.00    +0.000 N 
ATOM     20  C   UNL     1       5.945  12.886  25.208  0.00  0.00    +0.000 C 
ATOM     21  C   UNL     1       5.959  11.400  24.950  0.00  0.00    +0.000 C 
ATOM     22  O   UNL     1       5.199  13.334  26.081  0.00  0.00    +0.000 OA
ATOM     23  C   UNL     1       6.408  15.127  24.421  0.00  0.00    +0.000 C 
ATOM     24  C   UNL     1       7.570  16.061  24.140  0.00  0.00    +0.000 C 
ENDBRANCH  11  16
BRANCH  14  25
ATOM     25  C   UNL     1       9.019  14.316  18.683  0.00  0.00    +0.000 A 
ATOM     26  C   UNL     1       9.977  14.764  17.763  0.00  0.00    +0.000 A 
ATOM     27  C   UNL     1      10.832  13.855  17.140  0.00  0.00    +0.000 A 
ATOM     28  C   UNL     1      10.760  12.497  17.450  0.00  0.00    +0.000 A 
ATOM     29  C   UNL     1       9.828  12.051  18.384  0.00  0.00    +0.000 A 
ATOM     30 CL   UNL     1       9.770  10.385  18.810  0.00  0.00    +0.000 Cl
ATOM     31  C   UNL     1       8.958  12.948  18.999  0.00  0.00    +0.000 A 
ENDBRANCH  14  25
BRANCH   1  32
ATOM     32  C   UNL     1       0.372  14.863  18.576  0.00  0.00    +0.000 C 
ATOM     33  C   UNL     1       0.265  16.376  18.723  0.00  0.00    +0.000 C 
BRANCH  32  35
ATOM     34  C   UNL     1      -1.107  12.961  18.996  0.00  0.00    +0.000 C 
ATOM     35  N   UNL     1      -0.393  14.089  19.595  0.00  0.00    +0.000 NA
ATOM     36  H   UNL     1       0.279  13.697  20.259  0.00  0.00    +0.000 HD
ENDBRANCH  32  35
ENDBRANCH   1  32
TORSDOF 4
ENDMDL
MODEL 5
REMARK VINA RESULT:      -6.4      1.552      1.952
REMARK  Name = 
REMARK  7 active torsions:
REMARK  status: ('A' for Active; 'I' for Inactive)
REMARK    1  A    between atoms: C_1  and  N_2
REMARK    2  A    between atoms: N_2  and  C_3
REMARK    3  A    between atoms: C_3  and  C_4
REMARK    4  A    between atoms: C_3  and  C_5
REMARK    5  A    between atoms: N_15  and  C_16
REMARK    6  A    between atoms: C_20  and  C_21
REMARK    7  A    between atoms: N_27  and  C_28
REMARK                            x       y       z     vdW  Elec       q    Type
REMARK                         _______ _______ _______ _____ _____    ______ ____
ROOT
ATOM      1  C   UNL     1       1.278  12.448  19.388  0.00  0.00    +0.000 C 
ATOM      2  O   UNL     1       2.018  12.072  18.478  0.00  0.00    +0.000 OA
ATOM      3  N   UNL     1       1.656  13.321  20.391  0.00  0.00    +0.000 N 
ATOM      4  C   UNL     1       2.941  13.847  20.484  0.00  0.00    +0.000 A 
ATOM      5  C   UNL     1       3.557  14.406  19.373  0.00  0.00    +0.000 A 
ATOM      6  C   UNL     1       4.828  14.955  19.512  0.00  0.00    +0.000 A 
ATOM      7  C   UNL     1       5.497  14.863  20.733  0.00  0.00    +0.000 A 
ATOM      8  C   UNL     1       4.802  14.271  21.788  0.00  0.00    +0.000 A 
ATOM      9  N   UNL     1       3.521  13.816  21.700  0.00  0.00    +0.000 NA
ATOM     10  C   UNL     1       5.505  14.100  23.105  0.00  0.00    +0.000 C 
ATOM     11  N   UNL     1       6.949  14.250  23.005  0.00  0.00    +0.000 N 
ATOM     12  C   UNL     1       7.476  15.243  22.183  0.00  0.00    +0.000 C 
ATOM     13  O   UNL     1       8.559  15.772  22.441  0.00  0.00    +0.000 OA
ATOM     14  N   UNL     1       6.794  15.411  20.965  0.00  0.00    +0.000 N 
ATOM     15  H   UNL     1       1.129  13.246  21.252  0.00  0.00    +0.000 HD
ENDROOT
BRANCH  11  16
ATOM     16  C   UNL     1       7.910  13.338  23.656  0.00  0.00    +0.000 C 
ATOM     17  C   UNL     1       7.416  11.888  23.707  0.00  0.00    +0.000 C 
ATOM     18  C   UNL     1       6.562  11.555  24.923  0.00  0.00    +0.000 C 
ATOM     19  N   UNL     1       7.099  12.081  26.177  0.00  0.00    +0.000 N 
ATOM     20  C   UNL     1       6.772  11.559  27.428  0.00  0.00    +0.000 C 
ATOM     21  C   UNL     1       5.859  10.360  27.503  0.00  0.00    +0.000 C 
ATOM     22  O   UNL     1       7.204  12.047  28.474  0.00  0.00    +0.000 OA
ATOM     23  C   UNL     1       7.594  13.459  26.175  0.00  0.00    +0.000 C 
ATOM     24  C   UNL     1       8.478  13.795  24.990  0.00  0.00    +0.000 C 
ENDBRANCH  11  16
BRANCH  14  25
ATOM     25  C   UNL     1       7.608  15.747  19.842  0.00  0.00    +0.000 A 
ATOM     26  C   UNL     1       7.753  17.085  19.452  0.00  0.00    +0.000 A 
ATOM     27  C   UNL     1       8.650  17.430  18.441  0.00  0.00    +0.000 A 
ATOM     28  C   UNL     1       9.431  16.447  17.831  0.00  0.00    +0.000 A 
ATOM     29  C   UNL     1       9.311  15.120  18.236  0.00  0.00    +0.000 A 
ATOM     30 CL   UNL     1      10.310  13.913  17.526  0.00  0.00    +0.000 Cl
ATOM     31  C   UNL     1       8.406  14.764  19.233  0.00  0.00    +0.000 A 
ENDBRANCH  14  25
BRANCH   1  32
ATOM     32  C   UNL     1      -0.185  11.977  19.467  0.00  0.00    +0.000 C 
ATOM     33  C   UNL     1      -0.291  11.083  20.697  0.00  0.00    +0.000 C 
BRANCH  32  35
ATOM     34  C   UNL     1      -1.973  11.634  17.835  0.00  0.00    +0.000 C 
ATOM     35  N   UNL     1      -0.589  11.321  18.191  0.00  0.00    +0.000 NA
ATOM     36  H   UNL     1       0.003  11.696  17.447  0.00  0.00    +0.000 HD
ENDBRANCH  32  35
ENDBRANCH   1  32
TORSDOF 4
ENDMDL
MODEL 6
REMARK VINA RESULT:      -6.2      1.814      2.270
REMARK  Name = 
REMARK  7 active torsions:
REMARK  status: ('A' for Active; 'I' for Inactive)
REMARK    1  A    between atoms: C_1  and  N_2
REMARK    2  A    between atoms: N_2  and  C_3
REMARK    3  A    between atoms: C_3  and  C_4
REMARK    4  A    between atoms: C_3  and  C_5
REMARK    5  A    between atoms: N_15  and  C_16
REMARK    6  A    between atoms: C_20  and  C_21
REMARK    7  A    between atoms: N_27  and  C_28
REMARK                            x       y       z     vdW  Elec       q    Type
REMARK                         _______ _______ _______ _____ _____    ______ ____
ROOT
ATOM      1  C   UNL     1       1.183  13.542  19.227  0.00  0.00    +0.000 C 
ATOM      2  O   UNL     1       1.882  13.011  18.363  0.00  0.00    +0.000 OA
ATOM      3  N   UNL     1       1.677  14.308  20.268  0.00  0.00    +0.000 N 
ATOM      4  C   UNL     1       3.037  14.533  20.455  0.00  0.00    +0.000 A 
ATOM      5  C   UNL     1       3.837  14.941  19.397  0.00  0.00    +0.000 A 
ATOM      6  C   UNL     1       5.186  15.192  19.630  0.00  0.00    +0.000 A 
ATOM      7  C   UNL     1       5.732  14.952  20.892  0.00  0.00    +0.000 A 
ATOM      8  C   UNL     1       4.852  14.529  21.888  0.00  0.00    +0.000 A 
ATOM      9  N   UNL     1       3.510  14.372  21.706  0.00  0.00    +0.000 NA
ATOM     10  C   UNL     1       5.406  14.204  23.246  0.00  0.00    +0.000 C 
ATOM     11  N   UNL     1       6.851  14.027  23.245  0.00  0.00    +0.000 N 
ATOM     12  C   UNL     1       7.641  14.878  22.477  0.00  0.00    +0.000 C 
ATOM     13  O   UNL     1       8.795  15.151  22.815  0.00  0.00    +0.000 OA
ATOM     14  N   UNL     1       7.100  15.195  21.219  0.00  0.00    +0.000 N 
ATOM     15  H   UNL     1       1.088  14.352  21.090  0.00  0.00    +0.000 HD
ENDROOT
BRANCH  11  16
ATOM     16  C   UNL     1       7.537  12.923  23.944  0.00  0.00    +0.000 C 
ATOM     17  C   UNL     1       6.812  11.580  23.793  0.00  0.00    +0.000 C 
ATOM     18  C   UNL     1       5.736  11.323  24.840  0.00  0.00    +0.000 C 
ATOM     19  N   UNL     1       6.147  11.668  26.200  0.00  0.00    +0.000 N 
ATOM     20  C   UNL     1       5.547  11.132  27.339  0.00  0.00    +0.000 C 
ATOM     21  C   UNL     1       4.451  10.108  27.174  0.00  0.00    +0.000 C 
ATOM     22  O   UNL     1       5.883  11.470  28.475  0.00  0.00    +0.000 OA
ATOM     23  C   UNL     1       6.852  12.936  26.392  0.00  0.00    +0.000 C 
ATOM     24  C   UNL     1       7.955  13.188  25.381  0.00  0.00    +0.000 C 
ENDBRANCH  11  16
BRANCH  14  25
ATOM     25  C   UNL     1       8.043  15.341  20.159  0.00  0.00    +0.000 A 
ATOM     26  C   UNL     1       8.532  14.211  19.491  0.00  0.00    +0.000 A 
ATOM     27  C   UNL     1       9.350  14.355  18.370  0.00  0.00    +0.000 A 
ATOM     28  C   UNL     1       9.664  15.627  17.889  0.00  0.00    +0.000 A 
ATOM     29  C   UNL     1       9.157  16.753  18.534  0.00  0.00    +0.000 A 
ATOM     30 CL   UNL     1       9.495  18.322  17.914  0.00  0.00    +0.000 Cl
ATOM     31  C   UNL     1       8.353  16.619  19.663  0.00  0.00    +0.000 A 
ENDBRANCH  14  25
BRANCH   1  32
ATOM     32  C   UNL     1      -0.350  13.411  19.201  0.00  0.00    +0.000 C 
ATOM     33  C   UNL     1      -0.720  12.388  20.268  0.00  0.00    +0.000 C 
BRANCH  32  35
ATOM     34  C   UNL     1      -1.728  11.921  17.837  0.00  0.00    +0.000 C 
ATOM     35  N   UNL     1      -0.817  13.066  17.828  0.00  0.00    +0.000 NA
ATOM     36  H   UNL     1      -1.344  13.864  17.468  0.00  0.00    +0.000 HD
ENDBRANCH  32  35
ENDBRANCH   1  32
TORSDOF 4
ENDMDL
MODEL 7
REMARK VINA RESULT:      -6.2      1.024      1.047
REMARK  Name = 
REMARK  7 active torsions:
REMARK  status: ('A' for Active; 'I' for Inactive)
REMARK    1  A    between atoms: C_1  and  N_2
REMARK    2  A    between atoms: N_2  and  C_3
REMARK    3  A    between atoms: C_3  and  C_4
REMARK    4  A    between atoms: C_3  and  C_5
REMARK    5  A    between atoms: N_15  and  C_16
REMARK    6  A    between atoms: C_20  and  C_21
REMARK    7  A    between atoms: N_27  and  C_28
REMARK                            x       y       z     vdW  Elec       q    Type
REMARK                         _______ _______ _______ _____ _____    ______ ____
ROOT
ATOM      1  C   UNL     1       2.175  13.923  18.942  0.00  0.00    +0.000 C 
ATOM      2  O   UNL     1       2.781  13.168  18.181  0.00  0.00    +0.000 OA
ATOM      3  N   UNL     1       2.783  14.747  19.872  0.00  0.00    +0.000 N 
ATOM      4  C   UNL     1       4.162  14.781  20.057  0.00  0.00    +0.000 A 
ATOM      5  C   UNL     1       5.017  14.899  18.970  0.00  0.00    +0.000 A 
ATOM      6  C   UNL     1       6.389  14.967  19.196  0.00  0.00    +0.000 A 
ATOM      7  C   UNL     1       6.889  14.833  20.492  0.00  0.00    +0.000 A 
ATOM      8  C   UNL     1       5.952  14.704  21.518  0.00  0.00    +0.000 A 
ATOM      9  N   UNL     1       4.603  14.735  21.329  0.00  0.00    +0.000 NA
ATOM     10  C   UNL     1       6.448  14.500  22.921  0.00  0.00    +0.000 C 
ATOM     11  N   UNL     1       7.846  14.101  22.980  0.00  0.00    +0.000 N 
ATOM     12  C   UNL     1       8.761  14.695  22.116  0.00  0.00    +0.000 C 
ATOM     13  O   UNL     1       9.944  14.831  22.438  0.00  0.00    +0.000 OA
ATOM     14  N   UNL     1       8.278  14.905  20.812  0.00  0.00    +0.000 N 
ATOM     15  H   UNL     1       2.208  15.003  20.665  0.00  0.00    +0.000 HD
ENDROOT
BRANCH  11  16
ATOM     16  C   UNL     1       8.349  13.018  23.848  0.00  0.00    +0.000 C 
ATOM     17  C   UNL     1       7.627  11.686  23.618  0.00  0.00    +0.000 C 
ATOM     18  C   UNL     1       6.359  11.503  24.442  0.00  0.00    +0.000 C 
ATOM     19  N   UNL     1       6.508  11.905  25.840  0.00  0.00    +0.000 N 
ATOM     20  C   UNL     1       5.681  11.439  26.862  0.00  0.00    +0.000 C 
ATOM     21  C   UNL     1       4.608  10.432  26.530  0.00  0.00    +0.000 C 
ATOM     22  O   UNL     1       5.799  11.825  28.026  0.00  0.00    +0.000 OA
ATOM     23  C   UNL     1       7.201  13.166  26.111  0.00  0.00    +0.000 C 
ATOM     24  C   UNL     1       8.486  13.344  25.326  0.00  0.00    +0.000 C 
ENDBRANCH  11  16
BRANCH  14  25
ATOM     25  C   UNL     1       9.233  14.744  19.765  0.00  0.00    +0.000 A 
ATOM     26  C   UNL     1       9.988  15.840  19.326  0.00  0.00    +0.000 A 
ATOM     27  C   UNL     1      11.014  15.661  18.397  0.00  0.00    +0.000 A 
ATOM     28  C   UNL     1      11.314  14.384  17.922  0.00  0.00    +0.000 A 
ATOM     29  C   UNL     1      10.585  13.289  18.377  0.00  0.00    +0.000 A 
ATOM     30 CL   UNL     1      10.987  11.706  17.837  0.00  0.00    +0.000 Cl
ATOM     31  C   UNL     1       9.548  13.460  19.291  0.00  0.00    +0.000 A 
ENDBRANCH  14  25
BRANCH   1  32
ATOM     32  C   UNL     1       0.641  14.031  18.899  0.00  0.00    +0.000 C 
ATOM     33  C   UNL     1       0.266  15.268  19.706  0.00  0.00    +0.000 C 
BRANCH  32  35
ATOM     34  C   UNL     1      -1.278  13.007  20.017  0.00  0.00    +0.000 C 
ATOM     35  N   UNL     1       0.019  12.766  19.384  0.00  0.00    +0.000 NA
ATOM     36  H   UNL     1      -0.152  12.171  18.570  0.00  0.00    +0.000 HD
ENDBRANCH  32  35
ENDBRANCH   1  32
TORSDOF 4
ENDMDL
MODEL 8
REMARK VINA RESULT:      -6.2      3.012      7.255
REMARK  Name = 
REMARK  7 active torsions:
REMARK  status: ('A' for Active; 'I' for Inactive)
REMARK    1  A    between atoms: C_1  and  N_2
REMARK    2  A    between atoms: N_2  and  C_3
REMARK    3  A    between atoms: C_3  and  C_4
REMARK    4  A    between atoms: C_3  and  C_5
REMARK    5  A    between atoms: N_15  and  C_16
REMARK    6  A    between atoms: C_20  and  C_21
REMARK    7  A    between atoms: N_27  and  C_28
REMARK                            x       y       z     vdW  Elec       q    Type
REMARK                         _______ _______ _______ _____ _____    ______ ____
ROOT
ATOM      1  C   UNL     1       6.584  12.206  25.378  0.00  0.00    +0.000 C 
ATOM      2  O   UNL     1       5.785  11.547  24.712  0.00  0.00    +0.000 OA
ATOM      3  N   UNL     1       6.989  13.491  25.063  0.00  0.00    +0.000 N 
ATOM      4  C   UNL     1       6.545  14.161  23.927  0.00  0.00    +0.000 A 
ATOM      5  C   UNL     1       5.194  14.206  23.617  0.00  0.00    +0.000 A 
ATOM      6  C   UNL     1       4.783  14.916  22.494  0.00  0.00    +0.000 A 
ATOM      7  C   UNL     1       5.732  15.500  21.653  0.00  0.00    +0.000 A 
ATOM      8  C   UNL     1       7.068  15.389  22.039  0.00  0.00    +0.000 A 
ATOM      9  N   UNL     1       7.484  14.783  23.187  0.00  0.00    +0.000 NA
ATOM     10  C   UNL     1       8.126  15.952  21.134  0.00  0.00    +0.000 C 
ATOM     11  N   UNL     1       7.642  16.224  19.790  0.00  0.00    +0.000 N 
ATOM     12  C   UNL     1       6.373  16.772  19.620  0.00  0.00    +0.000 C 
ATOM     13  O   UNL     1       6.118  17.497  18.656  0.00  0.00    +0.000 OA
ATOM     14  N   UNL     1       5.396  16.256  20.490  0.00  0.00    +0.000 N 
ATOM     15  H   UNL     1       7.893  13.762  25.431  0.00  0.00    +0.000 HD
ENDROOT
BRANCH  11  16
ATOM     16  C   UNL     1       8.384  15.862  18.566  0.00  0.00    +0.000 C 
ATOM     17  C   UNL     1       7.757  14.680  17.817  0.00  0.00    +0.000 C 
ATOM     18  C   UNL     1       8.233  13.312  18.286  0.00  0.00    +0.000 C 
ATOM     19  N   UNL     1       9.678  13.232  18.490  0.00  0.00    +0.000 N 
ATOM     20  C   UNL     1      10.388  12.032  18.478  0.00  0.00    +0.000 C 
ATOM     21  C   UNL     1       9.647  10.748  18.194  0.00  0.00    +0.000 C 
ATOM     22  O   UNL     1      11.600  11.986  18.695  0.00  0.00    +0.000 OA
ATOM     23  C   UNL     1      10.324  14.343  19.192  0.00  0.00    +0.000 C 
ATOM     24  C   UNL     1       9.890  15.713  18.708  0.00  0.00    +0.000 C 
ENDBRANCH  11  16
BRANCH  14  25
ATOM     25  C   UNL     1       4.086  16.127  19.941  0.00  0.00    +0.000 A 
ATOM     26  C   UNL     1       3.230  17.235  19.893  0.00  0.00    +0.000 A 
ATOM     27  C   UNL     1       2.001  17.146  19.238  0.00  0.00    +0.000 A 
ATOM     28  C   UNL     1       1.629  15.961  18.602  0.00  0.00    +0.000 A 
ATOM     29  C   UNL     1       2.489  14.866  18.624  0.00  0.00    +0.000 A 
ATOM     30 CL   UNL     1       2.060  13.421  17.796  0.00  0.00    +0.000 Cl
ATOM     31  C   UNL     1       3.710  14.940  19.290  0.00  0.00    +0.000 A 
ENDBRANCH  14  25
BRANCH   1  32
ATOM     32  C   UNL     1       7.194  11.642  26.673  0.00  0.00    +0.000 C 
ATOM     33  C   UNL     1       6.074  10.914  27.404  0.00  0.00    +0.000 C 
BRANCH  32  35
ATOM     34  C   UNL     1       7.090  13.035  28.680  0.00  0.00    +0.000 C 
ATOM     35  N   UNL     1       7.839  12.731  27.460  0.00  0.00    +0.000 NA
ATOM     36  H   UNL     1       8.762  12.403  27.750  0.00  0.00    +0.000 HD
ENDBRANCH  32  35
ENDBRANCH   1  32
TORSDOF 4
ENDMDL
MODEL 9
REMARK VINA RESULT:      -6.1      1.592      2.027
REMARK  Name = 
REMARK  7 active torsions:
REMARK  status: ('A' for Active; 'I' for Inactive)
REMARK    1  A    between atoms: C_1  and  N_2
REMARK    2  A    between atoms: N_2  and  C_3
REMARK    3  A    between atoms: C_3  and  C_4
REMARK    4  A    between atoms: C_3  and  C_5
REMARK    5  A    between atoms: N_15  and  C_16
REMARK    6  A    between atoms: C_20  and  C_21
REMARK    7  A    between atoms: N_27  and  C_28
REMARK                            x       y       z     vdW  Elec       q    Type
REMARK                         _______ _______ _______ _____ _____    ______ ____
ROOT
ATOM      1  C   UNL     1       0.940  13.647  20.183  0.00  0.00    +0.000 C 
ATOM      2  O   UNL     1       1.505  12.940  19.347  0.00  0.00    +0.000 OA
ATOM      3  N   UNL     1       1.595  14.479  21.072  0.00  0.00    +0.000 N 
ATOM      4  C   UNL     1       2.983  14.578  21.125  0.00  0.00    +0.000 A 
ATOM      5  C   UNL     1       3.722  14.762  19.966  0.00  0.00    +0.000 A 
ATOM      6  C   UNL     1       5.104  14.893  20.061  0.00  0.00    +0.000 A 
ATOM      7  C   UNL     1       5.733  14.756  21.300  0.00  0.00    +0.000 A 
ATOM      8  C   UNL     1       4.907  14.558  22.406  0.00  0.00    +0.000 A 
ATOM      9  N   UNL     1       3.546  14.525  22.348  0.00  0.00    +0.000 NA
ATOM     10  C   UNL     1       5.545  14.347  23.750  0.00  0.00    +0.000 C 
ATOM     11  N   UNL     1       6.960  14.017  23.665  0.00  0.00    +0.000 N 
ATOM     12  C   UNL     1       7.758  14.675  22.733  0.00  0.00    +0.000 C 
ATOM     13  O   UNL     1       8.958  14.862  22.945  0.00  0.00    +0.000 OA
ATOM     14  N   UNL     1       7.142  14.890  21.488  0.00  0.00    +0.000 N 
ATOM     15  H   UNL     1       1.088  14.688  21.923  0.00  0.00    +0.000 HD
ENDROOT
BRANCH  11  16
ATOM     16  C   UNL     1       7.595  12.941  24.451  0.00  0.00    +0.000 C 
ATOM     17  C   UNL     1       6.967  11.566  24.196  0.00  0.00    +0.000 C 
ATOM     18  C   UNL     1       5.767  11.246  25.078  0.00  0.00    +0.000 C 
ATOM     19  N   UNL     1       5.964  11.597  26.484  0.00  0.00    +0.000 N 
ATOM     20  C   UNL     1       5.237  11.022  27.525  0.00  0.00    +0.000 C 
ATOM     21  C   UNL     1       4.228   9.947  27.204  0.00  0.00    +0.000 C 
ATOM     22  O   UNL     1       5.391  11.365  28.698  0.00  0.00    +0.000 OA
ATOM     23  C   UNL     1       6.571  12.897  26.777  0.00  0.00    +0.000 C 
ATOM     24  C   UNL     1       7.791  13.213  25.934  0.00  0.00    +0.000 C 
ENDBRANCH  11  16
BRANCH  14  25
ATOM     25  C   UNL     1       7.998  14.800  20.351  0.00  0.00    +0.000 A 
ATOM     26  C   UNL     1       8.491  15.964  19.747  0.00  0.00    +0.000 A 
ATOM     27  C   UNL     1       9.432  15.880  18.720  0.00  0.00    +0.000 A 
ATOM     28  C   UNL     1       9.910  14.635  18.307  0.00  0.00    +0.000 A 
ATOM     29  C   UNL     1       9.443  13.477  18.923  0.00  0.00    +0.000 A 
ATOM     30 CL   UNL     1      10.068  11.944  18.456  0.00  0.00    +0.000 Cl
ATOM     31  C   UNL     1       8.491  13.551  19.938  0.00  0.00    +0.000 A 
ENDBRANCH  14  25
BRANCH   1  32
ATOM     32  C   UNL     1      -0.594  13.679  20.289  0.00  0.00    +0.000 C 
ATOM     33  C   UNL     1      -0.934  14.612  21.445  0.00  0.00    +0.000 C 
BRANCH  32  35
ATOM     34  C   UNL     1      -1.864  11.872  19.239  0.00  0.00    +0.000 C 
ATOM     35  N   UNL     1      -1.133  12.297  20.433  0.00  0.00    +0.000 NA
ATOM     36  H   UNL     1      -0.339  11.662  20.538  0.00  0.00    +0.000 HD
ENDBRANCH  32  35
ENDBRANCH   1  32
TORSDOF 4
ENDMDL
