MODEL 1
REMARK VINA RESULT:      -7.9      0.000      0.000
REMARK  Name = 
REMARK  2 active torsions:
REMARK  status: ('A' for Active; 'I' for Inactive)
REMARK    1  A    between atoms: C_1  and  N_2
REMARK    2  A    between atoms: N_15  and  C_16
REMARK                            x       y       z     vdW  Elec       q    Type
REMARK                         _______ _______ _______ _____ _____    ______ ____
ROOT
ATOM      1  C   UNL     1       7.088   4.964  14.705  0.00  0.00    +0.000 C 
ATOM      2  N   UNL     1       6.487   5.301  15.981  0.00  0.00    +0.000 N 
ATOM      3  C   UNL     1       5.457   6.223  16.008  0.00  0.00    +0.000 C 
ATOM      4  O   UNL     1       5.148   6.930  15.046  0.00  0.00    +0.000 OA
ATOM      5  C   UNL     1       4.625   6.232  17.274  0.00  0.00    +0.000 C 
ATOM      6  C   UNL     1       3.559   5.180  17.077  0.00  0.00    +0.000 C 
ATOM      7  C   UNL     1       3.286   4.210  17.970  0.00  0.00    +0.000 C 
ATOM      8  C   UNL     1       2.199   3.199  17.694  0.00  0.00    +0.000 C 
ATOM      9  C   UNL     1       2.330   1.911  18.504  0.00  0.00    +0.000 C 
ATOM     10  C   UNL     1       2.465   2.247  19.983  0.00  0.00    +0.000 C 
ATOM     11  C   UNL     1       3.735   3.056  20.229  0.00  0.00    +0.000 C 
ATOM     12  C   UNL     1       3.997   4.169  19.242  0.00  0.00    +0.000 C 
ATOM     13  C   UNL     1       4.960   5.068  19.514  0.00  0.00    +0.000 C 
ATOM     14  C   UNL     1       5.502   6.080  18.529  0.00  0.00    +0.000 C 
ATOM     15  N   UNL     1       6.878   5.681  18.240  0.00  0.00    +0.000 N 
ATOM     16  C   UNL     1       7.880   5.751  19.291  0.00  0.00    +0.000 C 
ATOM     17  C   UNL     1       7.170   4.920  17.122  0.00  0.00    +0.000 C 
ATOM     18  O   UNL     1       8.073   4.086  17.115  0.00  0.00    +0.000 OA
ENDROOT
TORSDOF 0
ENDMDL
MODEL 2
REMARK VINA RESULT:      -7.4      1.565      3.198
REMARK  Name = 
REMARK  2 active torsions:
REMARK  status: ('A' for Active; 'I' for Inactive)
REMARK    1  A    between atoms: C_1  and  N_2
REMARK    2  A    between atoms: N_15  and  C_16
REMARK                            x       y       z     vdW  Elec       q    Type
REMARK                         _______ _______ _______ _____ _____    ______ ____
ROOT
ATOM      1  C   UNL     1       6.901   7.988  17.427  0.00  0.00    +0.000 C 
ATOM      2  N   UNL     1       6.434   6.617  17.354  0.00  0.00    +0.000 N 
ATOM      3  C   UNL     1       6.979   5.682  18.214  0.00  0.00    +0.000 C 
ATOM      4  O   UNL     1       7.979   5.890  18.903  0.00  0.00    +0.000 OA
ATOM      5  C   UNL     1       6.188   4.397  18.364  0.00  0.00    +0.000 C 
ATOM      6  C   UNL     1       5.165   4.663  19.443  0.00  0.00    +0.000 C 
ATOM      7  C   UNL     1       3.850   4.407  19.312  0.00  0.00    +0.000 C 
ATOM      8  C   UNL     1       2.897   4.701  20.445  0.00  0.00    +0.000 C 
ATOM      9  C   UNL     1       1.440   4.841  20.009  0.00  0.00    +0.000 C 
ATOM     10  C   UNL     1       1.031   3.625  19.190  0.00  0.00    +0.000 C 
ATOM     11  C   UNL     1       1.867   3.536  17.918  0.00  0.00    +0.000 C 
ATOM     12  C   UNL     1       3.347   3.782  18.095  0.00  0.00    +0.000 C 
ATOM     13  C   UNL     1       4.181   3.498  17.079  0.00  0.00    +0.000 C 
ATOM     14  C   UNL     1       5.635   3.912  17.013  0.00  0.00    +0.000 C 
ATOM     15  N   UNL     1       5.736   4.906  15.945  0.00  0.00    +0.000 N 
ATOM     16  C   UNL     1       5.497   4.504  14.568  0.00  0.00    +0.000 C 
ATOM     17  C   UNL     1       5.701   6.257  16.237  0.00  0.00    +0.000 C 
ATOM     18  O   UNL     1       5.193   7.079  15.475  0.00  0.00    +0.000 OA
ENDROOT
TORSDOF 0
ENDMDL
MODEL 3
REMARK VINA RESULT:      -6.9      3.167      5.342
REMARK  Name = 
REMARK  2 active torsions:
REMARK  status: ('A' for Active; 'I' for Inactive)
REMARK    1  A    between atoms: C_1  and  N_2
REMARK    2  A    between atoms: N_15  and  C_16
REMARK                            x       y       z     vdW  Elec       q    Type
REMARK                         _______ _______ _______ _____ _____    ______ ____
ROOT
ATOM      1  C   UNL     1       2.291   3.523  21.940  0.00  0.00    +0.000 C 
ATOM      2  N   UNL     1       2.502   3.330  20.518  0.00  0.00    +0.000 N 
ATOM      3  C   UNL     1       1.506   3.714  19.640  0.00  0.00    +0.000 C 
ATOM      4  O   UNL     1       0.367   4.027  19.994  0.00  0.00    +0.000 OA
ATOM      5  C   UNL     1       1.934   3.858  18.193  0.00  0.00    +0.000 C 
ATOM      6  C   UNL     1       2.474   5.262  18.057  0.00  0.00    +0.000 C 
ATOM      7  C   UNL     1       3.666   5.559  17.507  0.00  0.00    +0.000 C 
ATOM      8  C   UNL     1       4.127   6.993  17.408  0.00  0.00    +0.000 C 
ATOM      9  C   UNL     1       5.637   7.149  17.244  0.00  0.00    +0.000 C 
ATOM     10  C   UNL     1       6.118   6.290  16.082  0.00  0.00    +0.000 C 
ATOM     11  C   UNL     1       5.854   4.816  16.368  0.00  0.00    +0.000 C 
ATOM     12  C   UNL     1       4.493   4.500  16.942  0.00  0.00    +0.000 C 
ATOM     13  C   UNL     1       4.095   3.217  17.007  0.00  0.00    +0.000 C 
ATOM     14  C   UNL     1       2.884   2.724  17.768  0.00  0.00    +0.000 C 
ATOM     15  N   UNL     1       3.391   1.932  18.888  0.00  0.00    +0.000 N 
ATOM     16  C   UNL     1       4.082   0.680  18.624  0.00  0.00    +0.000 C 
ATOM     17  C   UNL     1       3.542   2.500  20.140  0.00  0.00    +0.000 C 
ATOM     18  O   UNL     1       4.446   2.167  20.905  0.00  0.00    +0.000 OA
ENDROOT
TORSDOF 0
ENDMDL
MODEL 4
REMARK VINA RESULT:      -6.4      1.834      2.726
REMARK  Name = 
REMARK  2 active torsions:
REMARK  status: ('A' for Active; 'I' for Inactive)
REMARK    1  A    between atoms: C_1  and  N_2
REMARK    2  A    between atoms: N_15  and  C_16
REMARK                            x       y       z     vdW  Elec       q    Type
REMARK                         _______ _______ _______ _____ _____    ______ ____
ROOT
ATOM      1  C   UNL     1       7.601   4.565  17.295  0.00  0.00    +0.000 C 
ATOM      2  N   UNL     1       6.162   4.747  17.283  0.00  0.00    +0.000 N 
ATOM      3  C   UNL     1       5.394   3.925  16.480  0.00  0.00    +0.000 C 
ATOM      4  O   UNL     1       5.864   3.178  15.620  0.00  0.00    +0.000 OA
ATOM      5  C   UNL     1       3.914   3.895  16.806  0.00  0.00    +0.000 C 
ATOM      6  C   UNL     1       3.748   2.851  17.884  0.00  0.00    +0.000 C 
ATOM      7  C   UNL     1       3.086   3.059  19.038  0.00  0.00    +0.000 C 
ATOM      8  C   UNL     1       2.965   1.955  20.061  0.00  0.00    +0.000 C 
ATOM      9  C   UNL     1       2.654   2.449  21.472  0.00  0.00    +0.000 C 
ATOM     10  C   UNL     1       1.436   3.363  21.438  0.00  0.00    +0.000 C 
ATOM     11  C   UNL     1       1.723   4.598  20.591  0.00  0.00    +0.000 C 
ATOM     12  C   UNL     1       2.425   4.336  19.279  0.00  0.00    +0.000 C 
ATOM     13  C   UNL     1       2.509   5.328  18.375  0.00  0.00    +0.000 C 
ATOM     14  C   UNL     1       3.379   5.300  17.138  0.00  0.00    +0.000 C 
ATOM     15  N   UNL     1       4.429   6.295  17.346  0.00  0.00    +0.000 N 
ATOM     16  C   UNL     1       4.078   7.705  17.407  0.00  0.00    +0.000 C 
ATOM     17  C   UNL     1       5.669   5.918  17.831  0.00  0.00    +0.000 C 
ATOM     18  O   UNL     1       6.334   6.648  18.563  0.00  0.00    +0.000 OA
ENDROOT
TORSDOF 0
ENDMDL
MODEL 5
REMARK VINA RESULT:      -6.4      3.254      5.243
REMARK  Name = 
REMARK  2 active torsions:
REMARK  status: ('A' for Active; 'I' for Inactive)
REMARK    1  A    between atoms: C_1  and  N_2
REMARK    2  A    between atoms: N_15  and  C_16
REMARK                            x       y       z     vdW  Elec       q    Type
REMARK                         _______ _______ _______ _____ _____    ______ ____
ROOT
ATOM      1  C   UNL     1       1.824   7.829  21.152  0.00  0.00    +0.000 C 
ATOM      2  N   UNL     1       2.088   7.012  19.983  0.00  0.00    +0.000 N 
ATOM      3  C   UNL     1       1.980   7.587  18.731  0.00  0.00    +0.000 C 
ATOM      4  O   UNL     1       1.480   8.695  18.530  0.00  0.00    +0.000 OA
ATOM      5  C   UNL     1       2.640   6.819  17.604  0.00  0.00    +0.000 C 
ATOM      6  C   UNL     1       4.083   7.265  17.587  0.00  0.00    +0.000 C 
ATOM      7  C   UNL     1       5.131   6.420  17.579  0.00  0.00    +0.000 C 
ATOM      8  C   UNL     1       6.544   6.952  17.559  0.00  0.00    +0.000 C 
ATOM      9  C   UNL     1       7.590   5.953  18.049  0.00  0.00    +0.000 C 
ATOM     10  C   UNL     1       7.440   4.641  17.291  0.00  0.00    +0.000 C 
ATOM     11  C   UNL     1       6.074   4.022  17.567  0.00  0.00    +0.000 C 
ATOM     12  C   UNL     1       4.907   4.980  17.525  0.00  0.00    +0.000 C 
ATOM     13  C   UNL     1       3.657   4.485  17.528  0.00  0.00    +0.000 C 
ATOM     14  C   UNL     1       2.402   5.304  17.734  0.00  0.00    +0.000 C 
ATOM     15  N   UNL     1       1.853   4.905  19.030  0.00  0.00    +0.000 N 
ATOM     16  C   UNL     1       1.337   3.557  19.204  0.00  0.00    +0.000 C 
ATOM     17  C   UNL     1       2.131   5.641  20.168  0.00  0.00    +0.000 C 
ATOM     18  O   UNL     1       2.248   5.116  21.274  0.00  0.00    +0.000 OA
ENDROOT
TORSDOF 0
ENDMDL
MODEL 6
REMARK VINA RESULT:      -6.4      2.745      5.165
REMARK  Name = 
REMARK  2 active torsions:
REMARK  status: ('A' for Active; 'I' for Inactive)
REMARK    1  A    between atoms: C_1  and  N_2
REMARK    2  A    between atoms: N_15  and  C_16
REMARK                            x       y       z     vdW  Elec       q    Type
REMARK                         _______ _______ _______ _____ _____    ______ ____
ROOT
ATOM      1  C   UNL     1       1.997   1.965  19.515  0.00  0.00    +0.000 C 
ATOM      2  N   UNL     1       2.869   3.115  19.371  0.00  0.00    +0.000 N 
ATOM      3  C   UNL     1       4.177   3.017  19.807  0.00  0.00    +0.000 C 
ATOM      4  O   UNL     1       4.600   2.084  20.493  0.00  0.00    +0.000 OA
ATOM      5  C   UNL     1       5.120   4.079  19.279  0.00  0.00    +0.000 C 
ATOM      6  C   UNL     1       5.618   3.566  17.948  0.00  0.00    +0.000 C 
ATOM      7  C   UNL     1       5.600   4.286  16.810  0.00  0.00    +0.000 C 
ATOM      8  C   UNL     1       6.122   3.696  15.522  0.00  0.00    +0.000 C 
ATOM      9  C   UNL     1       5.598   4.389  14.266  0.00  0.00    +0.000 C 
ATOM     10  C   UNL     1       5.837   5.889  14.371  0.00  0.00    +0.000 C 
ATOM     11  C   UNL     1       5.064   6.469  15.550  0.00  0.00    +0.000 C 
ATOM     12  C   UNL     1       5.135   5.668  16.829  0.00  0.00    +0.000 C 
ATOM     13  C   UNL     1       4.679   6.218  17.969  0.00  0.00    +0.000 C 
ATOM     14  C   UNL     1       4.459   5.468  19.264  0.00  0.00    +0.000 C 
ATOM     15  N   UNL     1       3.013   5.432  19.481  0.00  0.00    +0.000 N 
ATOM     16  C   UNL     1       2.299   6.669  19.751  0.00  0.00    +0.000 C 
ATOM     17  C   UNL     1       2.270   4.331  19.094  0.00  0.00    +0.000 C 
ATOM     18  O   UNL     1       1.115   4.432  18.686  0.00  0.00    +0.000 OA
ENDROOT
TORSDOF 0
ENDMDL
MODEL 7
REMARK VINA RESULT:      -6.3      3.576      5.084
REMARK  Name = 
REMARK  2 active torsions:
REMARK  status: ('A' for Active; 'I' for Inactive)
REMARK    1  A    between atoms: C_1  and  N_2
REMARK    2  A    between atoms: N_15  and  C_16
REMARK                            x       y       z     vdW  Elec       q    Type
REMARK                         _______ _______ _______ _____ _____    ______ ____
ROOT
ATOM      1  C   UNL     1       2.567   2.606  16.812  0.00  0.00    +0.000 C 
ATOM      2  N   UNL     1       2.810   3.489  17.937  0.00  0.00    +0.000 N 
ATOM      3  C   UNL     1       4.060   4.061  18.075  0.00  0.00    +0.000 C 
ATOM      4  O   UNL     1       5.045   3.716  17.419  0.00  0.00    +0.000 OA
ATOM      5  C   UNL     1       4.131   5.252  19.009  0.00  0.00    +0.000 C 
ATOM      6  C   UNL     1       3.769   6.457  18.173  0.00  0.00    +0.000 C 
ATOM      7  C   UNL     1       2.842   7.367  18.528  0.00  0.00    +0.000 C 
ATOM      8  C   UNL     1       2.544   8.545  17.632  0.00  0.00    +0.000 C 
ATOM      9  C   UNL     1       1.182   9.188  17.885  0.00  0.00    +0.000 C 
ATOM     10  C   UNL     1       1.037   9.516  19.365  0.00  0.00    +0.000 C 
ATOM     11  C   UNL     1       1.086   8.240  20.198  0.00  0.00    +0.000 C 
ATOM     12  C   UNL     1       2.163   7.254  19.813  0.00  0.00    +0.000 C 
ATOM     13  C   UNL     1       2.423   6.220  20.632  0.00  0.00    +0.000 C 
ATOM     14  C   UNL     1       3.287   5.030  20.276  0.00  0.00    +0.000 C 
ATOM     15  N   UNL     1       2.390   3.877  20.189  0.00  0.00    +0.000 N 
ATOM     16  C   UNL     1       1.730   3.393  21.390  0.00  0.00    +0.000 C 
ATOM     17  C   UNL     1       1.887   3.468  18.967  0.00  0.00    +0.000 C 
ATOM     18  O   UNL     1       0.764   2.981  18.852  0.00  0.00    +0.000 OA
ENDROOT
TORSDOF 0
ENDMDL
MODEL 8
REMARK VINA RESULT:      -6.2      3.007      5.331
REMARK  Name = 
REMARK  2 active torsions:
REMARK  status: ('A' for Active; 'I' for Inactive)
REMARK    1  A    between atoms: C_1  and  N_2
REMARK    2  A    between atoms: N_15  and  C_16
REMARK                            x       y       z     vdW  Elec       q    Type
REMARK                         _______ _______ _______ _____ _____    ______ ____
ROOT
ATOM      1  C   UNL     1       2.607   4.340  21.892  0.00  0.00    +0.000 C 
ATOM      2  N   UNL     1       2.572   4.364  20.442  0.00  0.00    +0.000 N 
ATOM      3  C   UNL     1       2.040   5.471  19.808  0.00  0.00    +0.000 C 
ATOM      4  O   UNL     1       1.411   6.356  20.392  0.00  0.00    +0.000 OA
ATOM      5  C   UNL     1       2.389   5.610  18.340  0.00  0.00    +0.000 C 
ATOM      6  C   UNL     1       3.715   6.330  18.294  0.00  0.00    +0.000 C 
ATOM      7  C   UNL     1       4.779   5.903  17.588  0.00  0.00    +0.000 C 
ATOM      8  C   UNL     1       6.068   6.688  17.596  0.00  0.00    +0.000 C 
ATOM      9  C   UNL     1       7.294   5.872  17.193  0.00  0.00    +0.000 C 
ATOM     10  C   UNL     1       7.032   5.175  15.864  0.00  0.00    +0.000 C 
ATOM     11  C   UNL     1       5.872   4.195  15.999  0.00  0.00    +0.000 C 
ATOM     12  C   UNL     1       4.671   4.710  16.756  0.00  0.00    +0.000 C 
ATOM     13  C   UNL     1       3.527   4.004  16.723  0.00  0.00    +0.000 C 
ATOM     14  C   UNL     1       2.330   4.254  17.614  0.00  0.00    +0.000 C 
ATOM     15  N   UNL     1       2.236   3.107  18.516  0.00  0.00    +0.000 N 
ATOM     16  C   UNL     1       1.914   1.796  17.977  0.00  0.00    +0.000 C 
ATOM     17  C   UNL     1       2.784   3.165  19.785  0.00  0.00    +0.000 C 
ATOM     18  O   UNL     1       3.275   2.179  20.332  0.00  0.00    +0.000 OA
ENDROOT
TORSDOF 0
ENDMDL
MODEL 9
REMARK VINA RESULT:      -6.2      3.220      4.785
REMARK  Name = 
REMARK  2 active torsions:
REMARK  status: ('A' for Active; 'I' for Inactive)
REMARK    1  A    between atoms: C_1  and  N_2
REMARK    2  A    between atoms: N_15  and  C_16
REMARK                            x       y       z     vdW  Elec       q    Type
REMARK                         _______ _______ _______ _____ _____    ______ ____
ROOT
ATOM      1  C   UNL     1       4.816   2.003  20.516  0.00  0.00    +0.000 C 
ATOM      2  N   UNL     1       4.104   2.840  19.569  0.00  0.00    +0.000 N 
ATOM      3  C   UNL     1       2.792   2.530  19.264  0.00  0.00    +0.000 C 
ATOM      4  O   UNL     1       2.246   1.474  19.589  0.00  0.00    +0.000 OA
ATOM      5  C   UNL     1       1.999   3.639  18.601  0.00  0.00    +0.000 C 
ATOM      6  C   UNL     1       1.446   4.483  19.725  0.00  0.00    +0.000 C 
ATOM      7  C   UNL     1       1.564   5.822  19.788  0.00  0.00    +0.000 C 
ATOM      8  C   UNL     1       0.977   6.589  20.949  0.00  0.00    +0.000 C 
ATOM      9  C   UNL     1       1.594   7.970  21.155  0.00  0.00    +0.000 C 
ATOM     10  C   UNL     1       1.553   8.750  19.848  0.00  0.00    +0.000 C 
ATOM     11  C   UNL     1       2.389   8.046  18.784  0.00  0.00    +0.000 C 
ATOM     12  C   UNL     1       2.207   6.549  18.700  0.00  0.00    +0.000 C 
ATOM     13  C   UNL     1       2.724   5.887  17.650  0.00  0.00    +0.000 C 
ATOM     14  C   UNL     1       2.838   4.382  17.547  0.00  0.00    +0.000 C 
ATOM     15  N   UNL     1       4.265   4.069  17.603  0.00  0.00    +0.000 N 
ATOM     16  C   UNL     1       5.134   4.489  16.516  0.00  0.00    +0.000 C 
ATOM     17  C   UNL     1       4.858   3.707  18.799  0.00  0.00    +0.000 C 
ATOM     18  O   UNL     1       6.020   4.007  19.071  0.00  0.00    +0.000 OA
ENDROOT
TORSDOF 0
ENDMDL
