MODEL 1
REMARK VINA RESULT:      -6.9      0.000      0.000
REMARK  Name = 
REMARK  10 active torsions:
REMARK  status: ('A' for Active; 'I' for Inactive)
REMARK    1  A    between atoms: C_1  and  O_2
REMARK    2  A    between atoms: O_2  and  C_3
REMARK    3  A    between atoms: C_3  and  C_4
REMARK    4  A    between atoms: C_4  and  O_5
REMARK    5  A    between atoms: C_4  and  C_6
REMARK    6  A    between atoms: C_6  and  N_7
REMARK    7  A    between atoms: N_7  and  C_8
REMARK    8  A    between atoms: C_9  and  C_11
REMARK    9  A    between atoms: C_15  and  C_16
REMARK   10  A    between atoms: C_19  and  C_20
REMARK                            x       y       z     vdW  Elec       q    Type
REMARK                         _______ _______ _______ _____ _____    ______ ____
ROOT
ATOM      1  C   UNL     1       5.080   4.303  17.999  0.00  0.00    +0.000 A 
ATOM      2  C   UNL     1       5.659   5.453  18.552  0.00  0.00    +0.000 A 
ATOM      3  C   UNL     1       6.392   6.332  17.749  0.00  0.00    +0.000 A 
ATOM      4  C   UNL     1       6.577   6.056  16.390  0.00  0.00    +0.000 A 
ATOM      5  C   UNL     1       5.975   4.926  15.818  0.00  0.00    +0.000 A 
ATOM      6  C   UNL     1       5.185   4.098  16.621  0.00  0.00    +0.000 A 
ENDROOT
BRANCH   5   7
ATOM      7  C   UNL     1       6.195   4.545  14.428  0.00  0.00    +0.000 A 
ATOM      8  C   UNL     1       7.348   4.799  13.713  0.00  0.00    +0.000 A 
ATOM      9  S   UNL     1       7.203   4.173  12.123  0.00  0.00    +0.000 S 
ATOM     10  C   UNL     1       5.622   3.613  12.497  0.00  0.00    +0.000 A 
ATOM     11  C   UNL     1       4.811   2.889  11.476  0.00  0.00    +0.000 C 
ATOM     12  N   UNL     1       5.205   3.875  13.716  0.00  0.00    +0.000 NA
ENDBRANCH   5   7
BRANCH   1  15
ATOM     13  N   UNL     1       2.981   3.110  18.752  0.00  0.00    +0.000 N 
ATOM     14  C   UNL     1       2.154   3.582  17.645  0.00  0.00    +0.000 C 
ATOM     15  C   UNL     1       4.352   3.361  18.908  0.00  0.00    +0.000 C 
ATOM     16  O   UNL     1       5.012   2.803  19.790  0.00  0.00    +0.000 OA
BRANCH  13  17
ATOM     17  C   UNL     1       2.332   2.197  19.703  0.00  0.00    +0.000 C 
BRANCH  17  18
ATOM     18  C   UNL     1       1.453   2.914  20.750  0.00  0.00    +0.000 C 
BRANCH  18  19
ATOM     19  O   UNL     1       0.165   3.221  20.181  0.00  0.00    +0.000 OA
ATOM     20  H   UNL     1      -0.516   2.935  20.809  0.00  0.00    +0.000 HD
ENDBRANCH  18  19
BRANCH  18  21
ATOM     21  C   UNL     1       2.132   4.216  21.225  0.00  0.00    +0.000 C 
BRANCH  21  23
ATOM     22  C   UNL     1       2.241   6.316  20.129  0.00  0.00    +0.000 C 
ATOM     23  O   UNL     1       1.401   5.345  20.735  0.00  0.00    +0.000 OA
ENDBRANCH  21  23
ENDBRANCH  18  21
ENDBRANCH  17  18
ENDBRANCH  13  17
ENDBRANCH   1  15
TORSDOF 7
ENDMDL
MODEL 2
REMARK VINA RESULT:      -6.7      1.135      1.867
REMARK  Name = 
REMARK  10 active torsions:
REMARK  status: ('A' for Active; 'I' for Inactive)
REMARK    1  A    between atoms: C_1  and  O_2
REMARK    2  A    between atoms: O_2  and  C_3
REMARK    3  A    between atoms: C_3  and  C_4
REMARK    4  A    between atoms: C_4  and  O_5
REMARK    5  A    between atoms: C_4  and  C_6
REMARK    6  A    between atoms: C_6  and  N_7
REMARK    7  A    between atoms: N_7  and  C_8
REMARK    8  A    between atoms: C_9  and  C_11
REMARK    9  A    between atoms: C_15  and  C_16
REMARK   10  A    between atoms: C_19  and  C_20
REMARK                            x       y       z     vdW  Elec       q    Type
REMARK                         _______ _______ _______ _____ _____    ______ ____
ROOT
ATOM      1  C   UNL     1       5.572   4.905  18.330  0.00  0.00    +0.000 A 
ATOM      2  C   UNL     1       6.526   5.802  18.828  0.00  0.00    +0.000 A 
ATOM      3  C   UNL     1       7.454   6.398  17.969  0.00  0.00    +0.000 A 
ATOM      4  C   UNL     1       7.455   6.084  16.606  0.00  0.00    +0.000 A 
ATOM      5  C   UNL     1       6.484   5.214  16.089  0.00  0.00    +0.000 A 
ATOM      6  C   UNL     1       5.519   4.684  16.952  0.00  0.00    +0.000 A 
ENDROOT
BRANCH   5   7
ATOM      7  C   UNL     1       6.481   4.788  14.695  0.00  0.00    +0.000 A 
ATOM      8  C   UNL     1       7.539   4.940  13.822  0.00  0.00    +0.000 A 
ATOM      9  S   UNL     1       7.131   4.293  12.286  0.00  0.00    +0.000 S 
ATOM     10  C   UNL     1       5.581   3.862  12.890  0.00  0.00    +0.000 A 
ATOM     11  C   UNL     1       4.587   3.179  12.013  0.00  0.00    +0.000 C 
ATOM     12  N   UNL     1       5.358   4.179  14.146  0.00  0.00    +0.000 NA
ENDBRANCH   5   7
BRANCH   1  15
ATOM     13  N   UNL     1       3.499   4.914  19.778  0.00  0.00    +0.000 N 
ATOM     14  C   UNL     1       3.013   6.209  19.309  0.00  0.00    +0.000 C 
ATOM     15  C   UNL     1       4.635   4.248  19.296  0.00  0.00    +0.000 C 
ATOM     16  O   UNL     1       4.896   3.091  19.637  0.00  0.00    +0.000 OA
BRANCH  13  17
ATOM     17  C   UNL     1       2.645   4.212  20.747  0.00  0.00    +0.000 C 
BRANCH  17  18
ATOM     18  C   UNL     1       1.206   3.969  20.242  0.00  0.00    +0.000 C 
BRANCH  18  19
ATOM     19  O   UNL     1       0.611   2.874  20.966  0.00  0.00    +0.000 OA
ATOM     20  H   UNL     1      -0.192   2.603  20.493  0.00  0.00    +0.000 HD
ENDBRANCH  18  19
BRANCH  18  21
ATOM     21  C   UNL     1       1.209   3.650  18.732  0.00  0.00    +0.000 C 
BRANCH  21  23
ATOM     22  C   UNL     1       2.467   1.958  17.646  0.00  0.00    +0.000 C 
ATOM     23  O   UNL     1       1.401   2.245  18.539  0.00  0.00    +0.000 OA
ENDBRANCH  21  23
ENDBRANCH  18  21
ENDBRANCH  17  18
ENDBRANCH  13  17
ENDBRANCH   1  15
TORSDOF 7
ENDMDL
MODEL 3
REMARK VINA RESULT:      -6.6      3.876      7.312
REMARK  Name = 
REMARK  10 active torsions:
REMARK  status: ('A' for Active; 'I' for Inactive)
REMARK    1  A    between atoms: C_1  and  O_2
REMARK    2  A    between atoms: O_2  and  C_3
REMARK    3  A    between atoms: C_3  and  C_4
REMARK    4  A    between atoms: C_4  and  O_5
REMARK    5  A    between atoms: C_4  and  C_6
REMARK    6  A    between atoms: C_6  and  N_7
REMARK    7  A    between atoms: N_7  and  C_8
REMARK    8  A    between atoms: C_9  and  C_11
REMARK    9  A    between atoms: C_15  and  C_16
REMARK   10  A    between atoms: C_19  and  C_20
REMARK                            x       y       z     vdW  Elec       q    Type
REMARK                         _______ _______ _______ _____ _____    ______ ____
ROOT
ATOM      1  C   UNL     1       3.594   4.661  18.781  0.00  0.00    +0.000 A 
ATOM      2  C   UNL     1       3.261   3.665  19.709  0.00  0.00    +0.000 A 
ATOM      3  C   UNL     1       2.387   3.944  20.763  0.00  0.00    +0.000 A 
ATOM      4  C   UNL     1       1.855   5.229  20.917  0.00  0.00    +0.000 A 
ATOM      5  C   UNL     1       2.153   6.225  19.975  0.00  0.00    +0.000 A 
ATOM      6  C   UNL     1       2.972   5.907  18.887  0.00  0.00    +0.000 A 
ENDROOT
BRANCH   5   7
ATOM      7  C   UNL     1       1.694   7.601  20.123  0.00  0.00    +0.000 A 
ATOM      8  C   UNL     1       1.158   8.134  21.278  0.00  0.00    +0.000 A 
ATOM      9  S   UNL     1       0.762   9.785  21.034  0.00  0.00    +0.000 S 
ATOM     10  C   UNL     1       1.327   9.672  19.415  0.00  0.00    +0.000 A 
ATOM     11  C   UNL     1       1.289  10.859  18.513  0.00  0.00    +0.000 C 
ATOM     12  N   UNL     1       1.775   8.489  19.056  0.00  0.00    +0.000 NA
ENDBRANCH   5   7
BRANCH   1  15
ATOM     13  N   UNL     1       5.916   4.744  17.782  0.00  0.00    +0.000 N 
ATOM     14  C   UNL     1       6.538   5.378  18.942  0.00  0.00    +0.000 C 
ATOM     15  C   UNL     1       4.578   4.332  17.700  0.00  0.00    +0.000 C 
ATOM     16  O   UNL     1       4.166   3.669  16.744  0.00  0.00    +0.000 OA
BRANCH  13  17
ATOM     17  C   UNL     1       6.813   4.408  16.667  0.00  0.00    +0.000 C 
BRANCH  17  18
ATOM     18  C   UNL     1       6.855   5.483  15.560  0.00  0.00    +0.000 C 
BRANCH  18  19
ATOM     19  O   UNL     1       5.623   6.230  15.556  0.00  0.00    +0.000 OA
ATOM     20  H   UNL     1       5.651   6.860  16.293  0.00  0.00    +0.000 HD
ENDBRANCH  18  19
BRANCH  18  21
ATOM     21  C   UNL     1       7.068   4.829  14.179  0.00  0.00    +0.000 C 
BRANCH  21  23
ATOM     22  C   UNL     1       6.050   3.411  12.574  0.00  0.00    +0.000 C 
ATOM     23  O   UNL     1       5.942   4.007  13.859  0.00  0.00    +0.000 OA
ENDBRANCH  21  23
ENDBRANCH  18  21
ENDBRANCH  17  18
ENDBRANCH  13  17
ENDBRANCH   1  15
TORSDOF 7
ENDMDL
MODEL 4
REMARK VINA RESULT:      -6.6      1.711      2.440
REMARK  Name = 
REMARK  10 active torsions:
REMARK  status: ('A' for Active; 'I' for Inactive)
REMARK    1  A    between atoms: C_1  and  O_2
REMARK    2  A    between atoms: O_2  and  C_3
REMARK    3  A    between atoms: C_3  and  C_4
REMARK    4  A    between atoms: C_4  and  O_5
REMARK    5  A    between atoms: C_4  and  C_6
REMARK    6  A    between atoms: C_6  and  N_7
REMARK    7  A    between atoms: N_7  and  C_8
REMARK    8  A    between atoms: C_9  and  C_11
REMARK    9  A    between atoms: C_15  and  C_16
REMARK   10  A    between atoms: C_19  and  C_20
REMARK                            x       y       z     vdW  Elec       q    Type
REMARK                         _______ _______ _______ _____ _____    ______ ____
ROOT
ATOM      1  C   UNL     1       5.318   4.878  18.929  0.00  0.00    +0.000 A 
ATOM      2  C   UNL     1       6.409   5.455  19.592  0.00  0.00    +0.000 A 
ATOM      3  C   UNL     1       7.552   5.828  18.880  0.00  0.00    +0.000 A 
ATOM      4  C   UNL     1       7.629   5.604  17.501  0.00  0.00    +0.000 A 
ATOM      5  C   UNL     1       6.530   5.058  16.821  0.00  0.00    +0.000 A 
ATOM      6  C   UNL     1       5.368   4.758  17.538  0.00  0.00    +0.000 A 
ENDROOT
BRANCH   5   7
ATOM      7  C   UNL     1       6.578   4.730  15.402  0.00  0.00    +0.000 A 
ATOM      8  C   UNL     1       5.835   3.736  14.796  0.00  0.00    +0.000 A 
ATOM      9  S   UNL     1       6.175   3.689  13.116  0.00  0.00    +0.000 S 
ATOM     10  C   UNL     1       7.284   4.987  13.313  0.00  0.00    +0.000 A 
ATOM     11  C   UNL     1       8.028   5.535  12.143  0.00  0.00    +0.000 C 
ATOM     12  N   UNL     1       7.416   5.433  14.542  0.00  0.00    +0.000 NA
ENDBRANCH   5   7
BRANCH   1  15
ATOM     13  N   UNL     1       3.026   5.280  19.921  0.00  0.00    +0.000 N 
ATOM     14  C   UNL     1       2.811   6.558  19.249  0.00  0.00    +0.000 C 
ATOM     15  C   UNL     1       4.136   4.442  19.740  0.00  0.00    +0.000 C 
ATOM     16  O   UNL     1       4.174   3.309  20.230  0.00  0.00    +0.000 OA
BRANCH  13  17
ATOM     17  C   UNL     1       1.920   4.791  20.756  0.00  0.00    +0.000 C 
BRANCH  17  18
ATOM     18  C   UNL     1       1.016   3.760  20.045  0.00  0.00    +0.000 C 
BRANCH  18  19
ATOM     19  O   UNL     1       1.272   2.442  20.567  0.00  0.00    +0.000 OA
ATOM     20  H   UNL     1       0.741   2.329  21.371  0.00  0.00    +0.000 HD
ENDBRANCH  18  19
BRANCH  18  21
ATOM     21  C   UNL     1       1.273   3.773  18.524  0.00  0.00    +0.000 C 
BRANCH  21  23
ATOM     22  C   UNL     1       2.632   2.214  17.365  0.00  0.00    +0.000 C 
ATOM     23  O   UNL     1       1.406   2.430  18.048  0.00  0.00    +0.000 OA
ENDBRANCH  21  23
ENDBRANCH  18  21
ENDBRANCH  17  18
ENDBRANCH  13  17
ENDBRANCH   1  15
TORSDOF 7
ENDMDL
MODEL 5
REMARK VINA RESULT:      -6.4      1.353      1.722
REMARK  Name = 
REMARK  10 active torsions:
REMARK  status: ('A' for Active; 'I' for Inactive)
REMARK    1  A    between atoms: C_1  and  O_2
REMARK    2  A    between atoms: O_2  and  C_3
REMARK    3  A    between atoms: C_3  and  C_4
REMARK    4  A    between atoms: C_4  and  O_5
REMARK    5  A    between atoms: C_4  and  C_6
REMARK    6  A    between atoms: C_6  and  N_7
REMARK    7  A    between atoms: N_7  and  C_8
REMARK    8  A    between atoms: C_9  and  C_11
REMARK    9  A    between atoms: C_15  and  C_16
REMARK   10  A    between atoms: C_19  and  C_20
REMARK                            x       y       z     vdW  Elec       q    Type
REMARK                         _______ _______ _______ _____ _____    ______ ____
ROOT
ATOM      1  C   UNL     1       4.871   5.426  17.704  0.00  0.00    +0.000 A 
ATOM      2  C   UNL     1       5.990   5.812  18.454  0.00  0.00    +0.000 A 
ATOM      3  C   UNL     1       7.254   5.869  17.861  0.00  0.00    +0.000 A 
ATOM      4  C   UNL     1       7.419   5.516  16.517  0.00  0.00    +0.000 A 
ATOM      5  C   UNL     1       6.302   5.161  15.747  0.00  0.00    +0.000 A 
ATOM      6  C   UNL     1       5.035   5.179  16.339  0.00  0.00    +0.000 A 
ENDROOT
BRANCH   5   7
ATOM      7  C   UNL     1       6.419   4.709  14.366  0.00  0.00    +0.000 A 
ATOM      8  C   UNL     1       7.509   4.936  13.551  0.00  0.00    +0.000 A 
ATOM      9  S   UNL     1       7.250   4.225  12.011  0.00  0.00    +0.000 S 
ATOM     10  C   UNL     1       5.711   3.670  12.537  0.00  0.00    +0.000 A 
ATOM     11  C   UNL     1       4.834   2.884  11.621  0.00  0.00    +0.000 C 
ATOM     12  N   UNL     1       5.387   3.991  13.769  0.00  0.00    +0.000 NA
ENDBRANCH   5   7
BRANCH   1  15
ATOM     13  N   UNL     1       2.708   4.216  18.208  0.00  0.00    +0.000 N 
ATOM     14  C   UNL     1       3.060   3.002  17.478  0.00  0.00    +0.000 C 
ATOM     15  C   UNL     1       3.546   5.325  18.396  0.00  0.00    +0.000 C 
ATOM     16  O   UNL     1       3.232   6.250  19.151  0.00  0.00    +0.000 OA
BRANCH  13  17
ATOM     17  C   UNL     1       1.411   4.206  18.899  0.00  0.00    +0.000 C 
BRANCH  17  18
ATOM     18  C   UNL     1       1.233   3.014  19.865  0.00  0.00    +0.000 C 
BRANCH  18  19
ATOM     19  O   UNL     1      -0.085   2.453  19.714  0.00  0.00    +0.000 OA
ATOM     20  H   UNL     1      -0.610   3.062  19.171  0.00  0.00    +0.000 HD
ENDBRANCH  18  19
BRANCH  18  21
ATOM     21  C   UNL     1       1.438   3.468  21.326  0.00  0.00    +0.000 C 
BRANCH  21  23
ATOM     22  C   UNL     1       3.482   2.288  21.095  0.00  0.00    +0.000 C 
ATOM     23  O   UNL     1       2.406   2.625  21.958  0.00  0.00    +0.000 OA
ENDBRANCH  21  23
ENDBRANCH  18  21
ENDBRANCH  17  18
ENDBRANCH  13  17
ENDBRANCH   1  15
TORSDOF 7
ENDMDL
MODEL 6
REMARK VINA RESULT:      -6.4      1.886      2.584
REMARK  Name = 
REMARK  10 active torsions:
REMARK  status: ('A' for Active; 'I' for Inactive)
REMARK    1  A    between atoms: C_1  and  O_2
REMARK    2  A    between atoms: O_2  and  C_3
REMARK    3  A    between atoms: C_3  and  C_4
REMARK    4  A    between atoms: C_4  and  O_5
REMARK    5  A    between atoms: C_4  and  C_6
REMARK    6  A    between atoms: C_6  and  N_7
REMARK    7  A    between atoms: N_7  and  C_8
REMARK    8  A    between atoms: C_9  and  C_11
REMARK    9  A    between atoms: C_15  and  C_16
REMARK   10  A    between atoms: C_19  and  C_20
REMARK                            x       y       z     vdW  Elec       q    Type
REMARK                         _______ _______ _______ _____ _____    ______ ____
ROOT
ATOM      1  C   UNL     1       5.224   5.369  18.767  0.00  0.00    +0.000 A 
ATOM      2  C   UNL     1       6.396   5.434  19.532  0.00  0.00    +0.000 A 
ATOM      3  C   UNL     1       7.647   5.288  18.924  0.00  0.00    +0.000 A 
ATOM      4  C   UNL     1       7.739   5.049  17.549  0.00  0.00    +0.000 A 
ATOM      5  C   UNL     1       6.575   5.016  16.767  0.00  0.00    +0.000 A 
ATOM      6  C   UNL     1       5.338   5.236  17.381  0.00  0.00    +0.000 A 
ENDROOT
BRANCH   5   7
ATOM      7  C   UNL     1       6.599   4.695  15.345  0.00  0.00    +0.000 A 
ATOM      8  C   UNL     1       5.852   3.699  14.748  0.00  0.00    +0.000 A 
ATOM      9  S   UNL     1       6.164   3.663  13.062  0.00  0.00    +0.000 S 
ATOM     10  C   UNL     1       7.267   4.967  13.246  0.00  0.00    +0.000 A 
ATOM     11  C   UNL     1       7.987   5.525  12.066  0.00  0.00    +0.000 C 
ATOM     12  N   UNL     1       7.418   5.408  14.476  0.00  0.00    +0.000 NA
ENDBRANCH   5   7
BRANCH   1  15
ATOM     13  N   UNL     1       3.355   4.383  20.156  0.00  0.00    +0.000 N 
ATOM     14  C   UNL     1       4.027   3.112  20.403  0.00  0.00    +0.000 C 
ATOM     15  C   UNL     1       3.905   5.475  19.469  0.00  0.00    +0.000 C 
ATOM     16  O   UNL     1       3.332   6.568  19.431  0.00  0.00    +0.000 OA
BRANCH  13  17
ATOM     17  C   UNL     1       2.042   4.558  20.793  0.00  0.00    +0.000 C 
BRANCH  17  18
ATOM     18  C   UNL     1       0.879   3.919  20.003  0.00  0.00    +0.000 C 
BRANCH  18  19
ATOM     19  O   UNL     1       0.601   2.604  20.519  0.00  0.00    +0.000 OA
ATOM     20  H   UNL     1       1.301   2.007  20.213  0.00  0.00    +0.000 HD
ENDBRANCH  18  19
BRANCH  18  21
ATOM     21  C   UNL     1       1.233   3.823  18.504  0.00  0.00    +0.000 C 
BRANCH  21  23
ATOM     22  C   UNL     1       2.573   2.172  17.453  0.00  0.00    +0.000 C 
ATOM     23  O   UNL     1       1.354   2.447  18.128  0.00  0.00    +0.000 OA
ENDBRANCH  21  23
ENDBRANCH  18  21
ENDBRANCH  17  18
ENDBRANCH  13  17
ENDBRANCH   1  15
TORSDOF 7
ENDMDL
MODEL 7
REMARK VINA RESULT:      -6.4      3.913      7.439
REMARK  Name = 
REMARK  10 active torsions:
REMARK  status: ('A' for Active; 'I' for Inactive)
REMARK    1  A    between atoms: C_1  and  O_2
REMARK    2  A    between atoms: O_2  and  C_3
REMARK    3  A    between atoms: C_3  and  C_4
REMARK    4  A    between atoms: C_4  and  O_5
REMARK    5  A    between atoms: C_4  and  C_6
REMARK    6  A    between atoms: C_6  and  N_7
REMARK    7  A    between atoms: N_7  and  C_8
REMARK    8  A    between atoms: C_9  and  C_11
REMARK    9  A    between atoms: C_15  and  C_16
REMARK   10  A    between atoms: C_19  and  C_20
REMARK                            x       y       z     vdW  Elec       q    Type
REMARK                         _______ _______ _______ _____ _____    ______ ____
ROOT
ATOM      1  C   UNL     1       3.505   5.001  18.651  0.00  0.00    +0.000 A 
ATOM      2  C   UNL     1       3.182   4.218  19.767  0.00  0.00    +0.000 A 
ATOM      3  C   UNL     1       2.351   4.726  20.771  0.00  0.00    +0.000 A 
ATOM      4  C   UNL     1       1.856   6.031  20.682  0.00  0.00    +0.000 A 
ATOM      5  C   UNL     1       2.144   6.812  19.553  0.00  0.00    +0.000 A 
ATOM      6  C   UNL     1       2.917   6.262  18.526  0.00  0.00    +0.000 A 
ENDROOT
BRANCH   5   7
ATOM      7  C   UNL     1       1.723   8.203  19.439  0.00  0.00    +0.000 A 
ATOM      8  C   UNL     1       1.858   8.978  18.305  0.00  0.00    +0.000 A 
ATOM      9  S   UNL     1       1.223  10.547  18.586  0.00  0.00    +0.000 S 
ATOM     10  C   UNL     1       0.818  10.085  20.191  0.00  0.00    +0.000 A 
ATOM     11  C   UNL     1       0.156  11.051  21.115  0.00  0.00    +0.000 C 
ATOM     12  N   UNL     1       1.136   8.853  20.520  0.00  0.00    +0.000 NA
ENDBRANCH   5   7
BRANCH   1  15
ATOM     13  N   UNL     1       5.780   4.855  17.555  0.00  0.00    +0.000 N 
ATOM     14  C   UNL     1       6.447   5.732  18.513  0.00  0.00    +0.000 C 
ATOM     15  C   UNL     1       4.444   4.436  17.629  0.00  0.00    +0.000 C 
ATOM     16  O   UNL     1       3.996   3.575  16.866  0.00  0.00    +0.000 OA
BRANCH  13  17
ATOM     17  C   UNL     1       6.630   4.275  16.505  0.00  0.00    +0.000 C 
BRANCH  17  18
ATOM     18  C   UNL     1       6.537   5.016  15.154  0.00  0.00    +0.000 C 
BRANCH  18  19
ATOM     19  O   UNL     1       5.863   6.277  15.332  0.00  0.00    +0.000 OA
ATOM     20  H   UNL     1       5.671   6.641  14.454  0.00  0.00    +0.000 HD
ENDBRANCH  18  19
BRANCH  18  21
ATOM     21  C   UNL     1       5.772   4.163  14.121  0.00  0.00    +0.000 C 
BRANCH  21  23
ATOM     22  C   UNL     1       5.976   3.109  12.006  0.00  0.00    +0.000 C 
ATOM     23  O   UNL     1       6.618   3.898  12.997  0.00  0.00    +0.000 OA
ENDBRANCH  21  23
ENDBRANCH  18  21
ENDBRANCH  17  18
ENDBRANCH  13  17
ENDBRANCH   1  15
TORSDOF 7
ENDMDL
MODEL 8
REMARK VINA RESULT:      -6.4      3.743      5.711
REMARK  Name = 
REMARK  10 active torsions:
REMARK  status: ('A' for Active; 'I' for Inactive)
REMARK    1  A    between atoms: C_1  and  O_2
REMARK    2  A    between atoms: O_2  and  C_3
REMARK    3  A    between atoms: C_3  and  C_4
REMARK    4  A    between atoms: C_4  and  O_5
REMARK    5  A    between atoms: C_4  and  C_6
REMARK    6  A    between atoms: C_6  and  N_7
REMARK    7  A    between atoms: N_7  and  C_8
REMARK    8  A    between atoms: C_9  and  C_11
REMARK    9  A    between atoms: C_15  and  C_16
REMARK   10  A    between atoms: C_19  and  C_20
REMARK                            x       y       z     vdW  Elec       q    Type
REMARK                         _______ _______ _______ _____ _____    ______ ____
ROOT
ATOM      1  C   UNL     1       2.235   6.430  20.080  0.00  0.00    +0.000 A 
ATOM      2  C   UNL     1       1.539   5.323  20.583  0.00  0.00    +0.000 A 
ATOM      3  C   UNL     1       1.974   4.025  20.301  0.00  0.00    +0.000 A 
ATOM      4  C   UNL     1       3.096   3.818  19.491  0.00  0.00    +0.000 A 
ATOM      5  C   UNL     1       3.822   4.918  19.010  0.00  0.00    +0.000 A 
ATOM      6  C   UNL     1       3.413   6.208  19.362  0.00  0.00    +0.000 A 
ENDROOT
BRANCH   5   7
ATOM      7  C   UNL     1       4.950   4.769  18.099  0.00  0.00    +0.000 A 
ATOM      8  C   UNL     1       6.274   4.951  18.447  0.00  0.00    +0.000 A 
ATOM      9  S   UNL     1       7.282   4.665  17.089  0.00  0.00    +0.000 S 
ATOM     10  C   UNL     1       5.892   4.322  16.140  0.00  0.00    +0.000 A 
ATOM     11  C   UNL     1       6.027   3.949  14.703  0.00  0.00    +0.000 C 
ATOM     12  N   UNL     1       4.742   4.421  16.769  0.00  0.00    +0.000 NA
ENDBRANCH   5   7
BRANCH   1  15
ATOM     13  N   UNL     1       1.550   8.749  19.339  0.00  0.00    +0.000 N 
ATOM     14  C   UNL     1       1.735   8.494  17.913  0.00  0.00    +0.000 C 
ATOM     15  C   UNL     1       1.699   7.800  20.361  0.00  0.00    +0.000 C 
ATOM     16  O   UNL     1       1.380   8.053  21.526  0.00  0.00    +0.000 OA
BRANCH  13  17
ATOM     17  C   UNL     1       1.046  10.081  19.700  0.00  0.00    +0.000 C 
BRANCH  17  18
ATOM     18  C   UNL     1       0.468  10.870  18.505  0.00  0.00    +0.000 C 
BRANCH  18  19
ATOM     19  O   UNL     1       1.220  12.084  18.310  0.00  0.00    +0.000 OA
ATOM     20  H   UNL     1       1.761  12.232  19.102  0.00  0.00    +0.000 HD
ENDBRANCH  18  19
BRANCH  18  21
ATOM     21  C   UNL     1      -1.016  11.215  18.751  0.00  0.00    +0.000 C 
BRANCH  21  23
ATOM     22  C   UNL     1      -1.997   9.906  17.034  0.00  0.00    +0.000 C 
ATOM     23  O   UNL     1      -1.830  10.082  18.433  0.00  0.00    +0.000 OA
ENDBRANCH  21  23
ENDBRANCH  18  21
ENDBRANCH  17  18
ENDBRANCH  13  17
ENDBRANCH   1  15
TORSDOF 7
ENDMDL
MODEL 9
REMARK VINA RESULT:      -6.4      3.702      5.644
REMARK  Name = 
REMARK  10 active torsions:
REMARK  status: ('A' for Active; 'I' for Inactive)
REMARK    1  A    between atoms: C_1  and  O_2
REMARK    2  A    between atoms: O_2  and  C_3
REMARK    3  A    between atoms: C_3  and  C_4
REMARK    4  A    between atoms: C_4  and  O_5
REMARK    5  A    between atoms: C_4  and  C_6
REMARK    6  A    between atoms: C_6  and  N_7
REMARK    7  A    between atoms: N_7  and  C_8
REMARK    8  A    between atoms: C_9  and  C_11
REMARK    9  A    between atoms: C_15  and  C_16
REMARK   10  A    between atoms: C_19  and  C_20
REMARK                            x       y       z     vdW  Elec       q    Type
REMARK                         _______ _______ _______ _____ _____    ______ ____
ROOT
ATOM      1  C   UNL     1       2.193   6.536  20.019  0.00  0.00    +0.000 A 
ATOM      2  C   UNL     1       1.442   5.453  20.494  0.00  0.00    +0.000 A 
ATOM      3  C   UNL     1       1.843   4.141  20.226  0.00  0.00    +0.000 A 
ATOM      4  C   UNL     1       2.986   3.898  19.456  0.00  0.00    +0.000 A 
ATOM      5  C   UNL     1       3.765   4.973  19.004  0.00  0.00    +0.000 A 
ATOM      6  C   UNL     1       3.387   6.276  19.344  0.00  0.00    +0.000 A 
ENDROOT
BRANCH   5   7
ATOM      7  C   UNL     1       4.920   4.787  18.135  0.00  0.00    +0.000 A 
ATOM      8  C   UNL     1       6.235   4.949  18.523  0.00  0.00    +0.000 A 
ATOM      9  S   UNL     1       7.282   4.620  17.205  0.00  0.00    +0.000 S 
ATOM     10  C   UNL     1       5.917   4.289  16.215  0.00  0.00    +0.000 A 
ATOM     11  C   UNL     1       6.093   3.888  14.790  0.00  0.00    +0.000 C 
ATOM     12  N   UNL     1       4.749   4.420  16.804  0.00  0.00    +0.000 NA
ENDBRANCH   5   7
BRANCH   1  15
ATOM     13  N   UNL     1       1.614   8.878  19.259  0.00  0.00    +0.000 N 
ATOM     14  C   UNL     1       1.842   8.619  17.840  0.00  0.00    +0.000 C 
ATOM     15  C   UNL     1       1.693   7.924  20.284  0.00  0.00    +0.000 C 
ATOM     16  O   UNL     1       1.340   8.186  21.437  0.00  0.00    +0.000 OA
BRANCH  13  17
ATOM     17  C   UNL     1       1.142  10.226  19.605  0.00  0.00    +0.000 C 
BRANCH  17  18
ATOM     18  C   UNL     1      -0.336  10.479  19.235  0.00  0.00    +0.000 C 
BRANCH  18  19
ATOM     19  O   UNL     1      -0.412  11.377  18.110  0.00  0.00    +0.000 OA
ATOM     20  H   UNL     1      -1.314  11.340  17.757  0.00  0.00    +0.000 HD
ENDBRANCH  18  19
BRANCH  18  21
ATOM     21  C   UNL     1      -1.097  11.085  20.432  0.00  0.00    +0.000 C 
BRANCH  21  23
ATOM     22  C   UNL     1      -0.873  10.894  22.786  0.00  0.00    +0.000 C 
ATOM     23  O   UNL     1      -0.220  11.183  21.558  0.00  0.00    +0.000 OA
ENDBRANCH  21  23
ENDBRANCH  18  21
ENDBRANCH  17  18
ENDBRANCH  13  17
ENDBRANCH   1  15
TORSDOF 7
ENDMDL
