MODEL 1
REMARK VINA RESULT:      -7.8      0.000      0.000
REMARK  Name = 
REMARK  10 active torsions:
REMARK  status: ('A' for Active; 'I' for Inactive)
REMARK    1  A    between atoms: C_1  and  C_2
REMARK    2  A    between atoms: C_5  and  S_6
REMARK    3  A    between atoms: S_6  and  N_9
REMARK    4  A    between atoms: N_9  and  C_10
REMARK    5  A    between atoms: C_13  and  C_14
REMARK    6  A    between atoms: C_14  and  C_15
REMARK    7  A    between atoms: C_20  and  C_21
REMARK    8  A    between atoms: C_21  and  C_22
REMARK    9  A    between atoms: C_31  and  C_32
REMARK   10  A    between atoms: C_32  and  O_33
REMARK                            x       y       z     vdW  Elec       q    Type
REMARK                         _______ _______ _______ _____ _____    ______ ____
ROOT
ATOM      1  C   UNL     1       0.471  10.166  19.458  0.00  0.00    +0.000 C 
ATOM      2  C   UNL     1       0.622   9.256  20.633  0.00  0.00    +0.000 C 
ATOM      3  C   UNL     1       1.418   8.185  20.621  0.00  0.00    +0.000 C 
ATOM      4  C   UNL     1       2.075   7.657  19.376  0.00  0.00    +0.000 C 
ATOM      5  O   UNL     1       1.388   8.187  18.219  0.00  0.00    +0.000 OA
ATOM      6  C   UNL     1       1.260   9.634  18.205  0.00  0.00    +0.000 C 
ENDROOT
BRANCH   1   7
ATOM      7  N   UNL     1       0.930  11.503  19.886  0.00  0.00    +0.000 NA
ATOM      8  H   UNL     1       1.893  11.771  19.697  0.00  0.00    +0.000 HD
BRANCH   7   9
ATOM      9  S   UNL     1      -0.052  12.857  19.666  0.00  0.00    +0.000 S 
ATOM     10  O   UNL     1      -0.784  12.682  18.430  0.00  0.00    +0.000 OA
ATOM     11  O   UNL     1       0.820  13.990  19.875  0.00  0.00    +0.000 OA
BRANCH   9  16
ATOM     12  C   UNL     1      -4.036  12.268  24.206  0.00  0.00    +0.000 C 
ATOM     13  C   UNL     1      -3.034  12.544  23.120  0.00  0.00    +0.000 A 
ATOM     14  C   UNL     1      -3.449  13.012  21.865  0.00  0.00    +0.000 A 
ATOM     15  C   UNL     1      -2.530  13.157  20.821  0.00  0.00    +0.000 A 
ATOM     16  C   UNL     1      -1.190  12.825  21.031  0.00  0.00    +0.000 A 
ATOM     17  C   UNL     1      -0.754  12.401  22.291  0.00  0.00    +0.000 A 
ATOM     18  C   UNL     1      -1.678  12.259  23.331  0.00  0.00    +0.000 A 
ENDBRANCH   9  16
ENDBRANCH   7   9
ENDBRANCH   1   7
BRANCH   4  19
ATOM     19  C   UNL     1       1.917   6.128  19.346  0.00  0.00    +0.000 C 
BRANCH  19  20
ATOM     20  C   UNL     1       3.216   5.416  19.701  0.00  0.00    +0.000 C 
ATOM     21  O   UNL     1       3.382   4.936  20.828  0.00  0.00    +0.000 OA
ATOM     22  N   UNL     1       4.204   5.313  18.715  0.00  0.00    +0.000 N 
ATOM     23  C   UNL     1       5.261   4.327  18.921  0.00  0.00    +0.000 C 
ATOM     24  C   UNL     1       6.587   4.719  18.271  0.00  0.00    +0.000 C 
ATOM     25  C   UNL     1       6.466   5.175  16.806  0.00  0.00    +0.000 C 
ATOM     26  C   UNL     1       5.348   6.234  16.724  0.00  0.00    +0.000 C 
ATOM     27  C   UNL     1       4.028   5.788  17.347  0.00  0.00    +0.000 C 
BRANCH  25  28
ATOM     28  C   UNL     1       6.233   4.038  15.783  0.00  0.00    +0.000 C 
BRANCH  28  29
ATOM     29  C   UNL     1       6.626   4.241  14.328  0.00  0.00    +0.000 A 
ATOM     30  C   UNL     1       7.524   5.213  13.874  0.00  0.00    +0.000 A 
ATOM     31  C   UNL     1       7.844   5.316  12.514  0.00  0.00    +0.000 A 
ATOM     32  C   UNL     1       7.253   4.462  11.581  0.00  0.00    +0.000 A 
ATOM     33  C   UNL     1       6.339   3.507  12.010  0.00  0.00    +0.000 A 
ATOM     34  C   UNL     1       6.033   3.393  13.371  0.00  0.00    +0.000 A 
ENDBRANCH  28  29
ENDBRANCH  25  28
ENDBRANCH  19  20
ENDBRANCH   4  19
BRANCH   6  35
ATOM     35  C   UNL     1       2.623  10.300  17.923  0.00  0.00    +0.000 C 
BRANCH  35  36
ATOM     36  O   UNL     1       2.468  11.583  17.309  0.00  0.00    +0.000 OA
ATOM     37  H   UNL     1       2.158  12.207  17.988  0.00  0.00    +0.000 HD
ENDBRANCH  35  36
ENDBRANCH   6  35
TORSDOF 9
ENDMDL
MODEL 2
REMARK VINA RESULT:      -7.6      1.802      2.480
REMARK  Name = 
REMARK  10 active torsions:
REMARK  status: ('A' for Active; 'I' for Inactive)
REMARK    1  A    between atoms: C_1  and  C_2
REMARK    2  A    between atoms: C_5  and  S_6
REMARK    3  A    between atoms: S_6  and  N_9
REMARK    4  A    between atoms: N_9  and  C_10
REMARK    5  A    between atoms: C_13  and  C_14
REMARK    6  A    between atoms: C_14  and  C_15
REMARK    7  A    between atoms: C_20  and  C_21
REMARK    8  A    between atoms: C_21  and  C_22
REMARK    9  A    between atoms: C_31  and  C_32
REMARK   10  A    between atoms: C_32  and  O_33
REMARK                            x       y       z     vdW  Elec       q    Type
REMARK                         _______ _______ _______ _____ _____    ______ ____
ROOT
ATOM      1  C   UNL     1      -0.059  12.001  19.978  0.00  0.00    +0.000 C 
ATOM      2  C   UNL     1      -0.346  11.389  18.646  0.00  0.00    +0.000 C 
ATOM      3  C   UNL     1       0.010  10.142  18.331  0.00  0.00    +0.000 C 
ATOM      4  C   UNL     1       0.915   9.300  19.185  0.00  0.00    +0.000 C 
ATOM      5  O   UNL     1       1.640  10.159  20.094  0.00  0.00    +0.000 OA
ATOM      6  C   UNL     1       0.802  11.044  20.884  0.00  0.00    +0.000 C 
ENDROOT
BRANCH   1   7
ATOM      7  N   UNL     1      -1.361  12.334  20.590  0.00  0.00    +0.000 NA
ATOM      8  H   UNL     1      -1.861  11.608  21.098  0.00  0.00    +0.000 HD
BRANCH   7   9
ATOM      9  S   UNL     1      -1.577  13.796  21.403  0.00  0.00    +0.000 S 
ATOM     10  O   UNL     1      -1.749  14.837  20.412  0.00  0.00    +0.000 OA
ATOM     11  O   UNL     1      -0.509  13.845  22.375  0.00  0.00    +0.000 OA
BRANCH   9  16
ATOM     12  C   UNL     1      -6.851  12.722  24.206  0.00  0.00    +0.000 C 
ATOM     13  C   UNL     1      -5.530  13.094  23.596  0.00  0.00    +0.000 A 
ATOM     14  C   UNL     1      -5.465  13.989  22.518  0.00  0.00    +0.000 A 
ATOM     15  C   UNL     1      -4.249  14.244  21.877  0.00  0.00    +0.000 A 
ATOM     16  C   UNL     1      -3.091  13.596  22.312  0.00  0.00    +0.000 A 
ATOM     17  C   UNL     1      -3.133  12.737  23.415  0.00  0.00    +0.000 A 
ATOM     18  C   UNL     1      -4.352  12.486  24.051  0.00  0.00    +0.000 A 
ENDBRANCH   9  16
ENDBRANCH   7   9
ENDBRANCH   1   7
BRANCH   4  19
ATOM     19  C   UNL     1       1.948   8.611  18.278  0.00  0.00    +0.000 C 
BRANCH  19  20
ATOM     20  C   UNL     1       2.456   7.308  18.882  0.00  0.00    +0.000 C 
ATOM     21  O   UNL     1       1.973   6.874  19.934  0.00  0.00    +0.000 OA
ATOM     22  N   UNL     1       3.469   6.618  18.209  0.00  0.00    +0.000 N 
ATOM     23  C   UNL     1       3.684   5.220  18.566  0.00  0.00    +0.000 C 
ATOM     24  C   UNL     1       5.130   4.762  18.374  0.00  0.00    +0.000 C 
ATOM     25  C   UNL     1       5.738   5.135  17.010  0.00  0.00    +0.000 C 
ATOM     26  C   UNL     1       5.477   6.634  16.763  0.00  0.00    +0.000 C 
ATOM     27  C   UNL     1       4.016   7.042  16.924  0.00  0.00    +0.000 C 
BRANCH  25  28
ATOM     28  C   UNL     1       5.246   4.280  15.818  0.00  0.00    +0.000 C 
BRANCH  28  29
ATOM     29  C   UNL     1       6.001   4.322  14.498  0.00  0.00    +0.000 A 
ATOM     30  C   UNL     1       7.153   5.081  14.264  0.00  0.00    +0.000 A 
ATOM     31  C   UNL     1       7.796   5.045  13.020  0.00  0.00    +0.000 A 
ATOM     32  C   UNL     1       7.283   4.266  11.981  0.00  0.00    +0.000 A 
ATOM     33  C   UNL     1       6.126   3.525  12.187  0.00  0.00    +0.000 A 
ATOM     34  C   UNL     1       5.493   3.549  13.436  0.00  0.00    +0.000 A 
ENDBRANCH  28  29
ENDBRANCH  25  28
ENDBRANCH  19  20
ENDBRANCH   4  19
BRANCH   6  35
ATOM     35  C   UNL     1       0.034  10.252  21.962  0.00  0.00    +0.000 C 
BRANCH  35  36
ATOM     36  O   UNL     1       0.865   9.942  23.084  0.00  0.00    +0.000 OA
ATOM     37  H   UNL     1       1.370   9.137  22.872  0.00  0.00    +0.000 HD
ENDBRANCH  35  36
ENDBRANCH   6  35
TORSDOF 9
ENDMDL
MODEL 3
REMARK VINA RESULT:      -7.5      3.122     10.390
REMARK  Name = 
REMARK  10 active torsions:
REMARK  status: ('A' for Active; 'I' for Inactive)
REMARK    1  A    between atoms: C_1  and  C_2
REMARK    2  A    between atoms: C_5  and  S_6
REMARK    3  A    between atoms: S_6  and  N_9
REMARK    4  A    between atoms: N_9  and  C_10
REMARK    5  A    between atoms: C_13  and  C_14
REMARK    6  A    between atoms: C_14  and  C_15
REMARK    7  A    between atoms: C_20  and  C_21
REMARK    8  A    between atoms: C_21  and  C_22
REMARK    9  A    between atoms: C_31  and  C_32
REMARK   10  A    between atoms: C_32  and  O_33
REMARK                            x       y       z     vdW  Elec       q    Type
REMARK                         _______ _______ _______ _____ _____    ______ ____
ROOT
ATOM      1  C   UNL     1       2.528   5.559  19.050  0.00  0.00    +0.000 C 
ATOM      2  C   UNL     1       2.539   7.053  19.048  0.00  0.00    +0.000 C 
ATOM      3  C   UNL     1       2.005   7.781  20.030  0.00  0.00    +0.000 C 
ATOM      4  C   UNL     1       1.154   7.199  21.123  0.00  0.00    +0.000 C 
ATOM      5  O   UNL     1       0.675   5.899  20.706  0.00  0.00    +0.000 OA
ATOM      6  C   UNL     1       1.716   4.985  20.270  0.00  0.00    +0.000 C 
ENDROOT
BRANCH   1   7
ATOM      7  N   UNL     1       3.937   5.116  19.054  0.00  0.00    +0.000 NA
ATOM      8  H   UNL     1       4.468   5.191  19.918  0.00  0.00    +0.000 HD
BRANCH   7   9
ATOM      9  S   UNL     1       4.389   3.691  18.273  0.00  0.00    +0.000 S 
ATOM     10  O   UNL     1       3.184   3.014  17.845  0.00  0.00    +0.000 OA
ATOM     11  O   UNL     1       5.334   3.060  19.164  0.00  0.00    +0.000 OA
BRANCH   9  16
ATOM     12  C   UNL     1       7.707   5.033  13.373  0.00  0.00    +0.000 C 
ATOM     13  C   UNL     1       6.843   4.831  14.585  0.00  0.00    +0.000 A 
ATOM     14  C   UNL     1       7.352   5.054  15.873  0.00  0.00    +0.000 A 
ATOM     15  C   UNL     1       6.585   4.753  17.003  0.00  0.00    +0.000 A 
ATOM     16  C   UNL     1       5.303   4.221  16.845  0.00  0.00    +0.000 A 
ATOM     17  C   UNL     1       4.766   4.036  15.566  0.00  0.00    +0.000 A 
ATOM     18  C   UNL     1       5.538   4.339  14.441  0.00  0.00    +0.000 A 
ENDBRANCH   9  16
ENDBRANCH   7   9
ENDBRANCH   1   7
BRANCH   4  19
ATOM     19  C   UNL     1      -0.074   8.100  21.326  0.00  0.00    +0.000 C 
BRANCH  19  20
ATOM     20  C   UNL     1       0.316   9.496  21.795  0.00  0.00    +0.000 C 
ATOM     21  O   UNL     1       0.979   9.649  22.827  0.00  0.00    +0.000 OA
ATOM     22  N   UNL     1      -0.086  10.590  21.021  0.00  0.00    +0.000 N 
ATOM     23  C   UNL     1       0.591  11.862  21.250  0.00  0.00    +0.000 C 
ATOM     24  C   UNL     1      -0.289  13.076  20.956  0.00  0.00    +0.000 C 
ATOM     25  C   UNL     1      -1.019  13.019  19.602  0.00  0.00    +0.000 C 
ATOM     26  C   UNL     1      -1.720  11.649  19.494  0.00  0.00    +0.000 C 
ATOM     27  C   UNL     1      -0.798  10.461  19.754  0.00  0.00    +0.000 C 
BRANCH  25  28
ATOM     28  C   UNL     1      -0.130  13.289  18.365  0.00  0.00    +0.000 C 
BRANCH  28  29
ATOM     29  C   UNL     1       1.129  14.129  18.511  0.00  0.00    +0.000 A 
ATOM     30  C   UNL     1       2.433  13.637  18.396  0.00  0.00    +0.000 A 
ATOM     31  C   UNL     1       3.537  14.489  18.526  0.00  0.00    +0.000 A 
ATOM     32  C   UNL     1       3.355  15.846  18.797  0.00  0.00    +0.000 A 
ATOM     33  C   UNL     1       2.068  16.349  18.939  0.00  0.00    +0.000 A 
ATOM     34  C   UNL     1       0.964  15.500  18.792  0.00  0.00    +0.000 A 
ENDBRANCH  28  29
ENDBRANCH  25  28
ENDBRANCH  19  20
ENDBRANCH   4  19
BRANCH   6  35
ATOM     35  C   UNL     1       2.548   4.490  21.471  0.00  0.00    +0.000 C 
BRANCH  35  36
ATOM     36  O   UNL     1       1.986   3.312  22.055  0.00  0.00    +0.000 OA
ATOM     37  H   UNL     1       1.735   2.708  21.334  0.00  0.00    +0.000 HD
ENDBRANCH  35  36
ENDBRANCH   6  35
TORSDOF 9
ENDMDL
MODEL 4
REMARK VINA RESULT:      -7.5      1.396      2.134
REMARK  Name = 
REMARK  10 active torsions:
REMARK  status: ('A' for Active; 'I' for Inactive)
REMARK    1  A    between atoms: C_1  and  C_2
REMARK    2  A    between atoms: C_5  and  S_6
REMARK    3  A    between atoms: S_6  and  N_9
REMARK    4  A    between atoms: N_9  and  C_10
REMARK    5  A    between atoms: C_13  and  C_14
REMARK    6  A    between atoms: C_14  and  C_15
REMARK    7  A    between atoms: C_20  and  C_21
REMARK    8  A    between atoms: C_21  and  C_22
REMARK    9  A    between atoms: C_31  and  C_32
REMARK   10  A    between atoms: C_32  and  O_33
REMARK                            x       y       z     vdW  Elec       q    Type
REMARK                         _______ _______ _______ _____ _____    ______ ____
ROOT
ATOM      1  C   UNL     1       0.374  10.556  19.714  0.00  0.00    +0.000 C 
ATOM      2  C   UNL     1       0.611   9.468  20.710  0.00  0.00    +0.000 C 
ATOM      3  C   UNL     1       1.432   8.442  20.479  0.00  0.00    +0.000 C 
ATOM      4  C   UNL     1       2.034   8.152  19.133  0.00  0.00    +0.000 C 
ATOM      5  O   UNL     1       1.274   8.845  18.116  0.00  0.00    +0.000 OA
ATOM      6  C   UNL     1       1.109  10.268  18.353  0.00  0.00    +0.000 C 
ENDROOT
BRANCH   1   7
ATOM      7  N   UNL     1       0.821  11.817  20.339  0.00  0.00    +0.000 NA
ATOM      8  H   UNL     1       1.812  12.046  20.319  0.00  0.00    +0.000 HD
BRANCH   7   9
ATOM      9  S   UNL     1      -0.058  13.241  20.119  0.00  0.00    +0.000 S 
ATOM     10  O   UNL     1       0.639  14.049  19.141  0.00  0.00    +0.000 OA
ATOM     11  O   UNL     1      -0.321  13.728  21.453  0.00  0.00    +0.000 OA
BRANCH   9  16
ATOM     12  C   UNL     1      -5.291  11.001  18.016  0.00  0.00    +0.000 C 
ATOM     13  C   UNL     1      -4.027  11.673  18.474  0.00  0.00    +0.000 A 
ATOM     14  C   UNL     1      -2.866  11.627  17.689  0.00  0.00    +0.000 A 
ATOM     15  C   UNL     1      -1.662  12.150  18.169  0.00  0.00    +0.000 A 
ATOM     16  C   UNL     1      -1.616  12.718  19.444  0.00  0.00    +0.000 A 
ATOM     17  C   UNL     1      -2.777  12.813  20.219  0.00  0.00    +0.000 A 
ATOM     18  C   UNL     1      -3.978  12.287  19.733  0.00  0.00    +0.000 A 
ENDBRANCH   9  16
ENDBRANCH   7   9
ENDBRANCH   1   7
BRANCH   4  19
ATOM     19  C   UNL     1       1.915   6.645  18.853  0.00  0.00    +0.000 C 
BRANCH  19  20
ATOM     20  C   UNL     1       3.120   5.873  19.373  0.00  0.00    +0.000 C 
ATOM     21  O   UNL     1       3.147   5.461  20.538  0.00  0.00    +0.000 OA
ATOM     22  N   UNL     1       4.183   5.636  18.494  0.00  0.00    +0.000 N 
ATOM     23  C   UNL     1       5.141   4.598  18.860  0.00  0.00    +0.000 C 
ATOM     24  C   UNL     1       6.546   4.854  18.316  0.00  0.00    +0.000 C 
ATOM     25  C   UNL     1       6.592   5.216  16.821  0.00  0.00    +0.000 C 
ATOM     26  C   UNL     1       5.567   6.340  16.567  0.00  0.00    +0.000 C 
ATOM     27  C   UNL     1       4.167   6.028  17.089  0.00  0.00    +0.000 C 
BRANCH  25  28
ATOM     28  C   UNL     1       6.369   4.030  15.852  0.00  0.00    +0.000 C 
BRANCH  28  29
ATOM     29  C   UNL     1       6.655   4.204  14.369  0.00  0.00    +0.000 A 
ATOM     30  C   UNL     1       6.021   3.492  13.346  0.00  0.00    +0.000 A 
ATOM     31  C   UNL     1       6.334   3.731  12.002  0.00  0.00    +0.000 A 
ATOM     32  C   UNL     1       7.307   4.672  11.660  0.00  0.00    +0.000 A 
ATOM     33  C   UNL     1       7.966   5.372  12.662  0.00  0.00    +0.000 A 
ATOM     34  C   UNL     1       7.640   5.144  14.005  0.00  0.00    +0.000 A 
ENDBRANCH  28  29
ENDBRANCH  25  28
ENDBRANCH  19  20
ENDBRANCH   4  19
BRANCH   6  35
ATOM     35  C   UNL     1       2.437  11.018  18.122  0.00  0.00    +0.000 C 
BRANCH  35  36
ATOM     36  O   UNL     1       2.233  12.261  17.445  0.00  0.00    +0.000 OA
ATOM     37  H   UNL     1       2.825  12.922  17.843  0.00  0.00    +0.000 HD
ENDBRANCH  35  36
ENDBRANCH   6  35
TORSDOF 9
ENDMDL
MODEL 5
REMARK VINA RESULT:      -7.5      3.896      5.717
REMARK  Name = 
REMARK  10 active torsions:
REMARK  status: ('A' for Active; 'I' for Inactive)
REMARK    1  A    between atoms: C_1  and  C_2
REMARK    2  A    between atoms: C_5  and  S_6
REMARK    3  A    between atoms: S_6  and  N_9
REMARK    4  A    between atoms: N_9  and  C_10
REMARK    5  A    between atoms: C_13  and  C_14
REMARK    6  A    between atoms: C_14  and  C_15
REMARK    7  A    between atoms: C_20  and  C_21
REMARK    8  A    between atoms: C_21  and  C_22
REMARK    9  A    between atoms: C_31  and  C_32
REMARK   10  A    between atoms: C_32  and  O_33
REMARK                            x       y       z     vdW  Elec       q    Type
REMARK                         _______ _______ _______ _____ _____    ______ ____
ROOT
ATOM      1  C   UNL     1      -3.241  12.238  19.952  0.00  0.00    +0.000 C 
ATOM      2  C   UNL     1      -2.122  13.190  20.222  0.00  0.00    +0.000 C 
ATOM      3  C   UNL     1      -1.014  13.231  19.479  0.00  0.00    +0.000 C 
ATOM      4  C   UNL     1      -0.675  12.200  18.441  0.00  0.00    +0.000 C 
ATOM      5  O   UNL     1      -1.460  11.010  18.684  0.00  0.00    +0.000 OA
ATOM      6  C   UNL     1      -2.890  11.242  18.786  0.00  0.00    +0.000 C 
ENDROOT
BRANCH   1   7
ATOM      7  N   UNL     1      -4.437  13.052  19.655  0.00  0.00    +0.000 NA
ATOM      8  H   UNL     1      -4.823  13.026  18.715  0.00  0.00    +0.000 HD
BRANCH   7   9
ATOM      9  S   UNL     1      -5.716  13.128  20.753  0.00  0.00    +0.000 S 
ATOM     10  O   UNL     1      -6.207  11.782  20.960  0.00  0.00    +0.000 OA
ATOM     11  O   UNL     1      -6.575  14.178  20.256  0.00  0.00    +0.000 OA
BRANCH   9  16
ATOM     12  C   UNL     1      -2.795  15.155  25.670  0.00  0.00    +0.000 C 
ATOM     13  C   UNL     1      -3.633  14.657  24.527  0.00  0.00    +0.000 A 
ATOM     14  C   UNL     1      -3.853  13.284  24.344  0.00  0.00    +0.000 A 
ATOM     15  C   UNL     1      -4.534  12.816  23.216  0.00  0.00    +0.000 A 
ATOM     16  C   UNL     1      -4.992  13.727  22.261  0.00  0.00    +0.000 A 
ATOM     17  C   UNL     1      -4.820  15.102  22.453  0.00  0.00    +0.000 A 
ATOM     18  C   UNL     1      -4.139  15.563  23.583  0.00  0.00    +0.000 A 
ENDBRANCH   9  16
ENDBRANCH   7   9
ENDBRANCH   1   7
BRANCH   4  19
ATOM     19  C   UNL     1       0.806  11.815  18.593  0.00  0.00    +0.000 C 
BRANCH  19  20
ATOM     20  C   UNL     1       1.005  10.716  19.629  0.00  0.00    +0.000 C 
ATOM     21  O   UNL     1       0.678  10.898  20.807  0.00  0.00    +0.000 OA
ATOM     22  N   UNL     1       1.553   9.500  19.206  0.00  0.00    +0.000 N 
ATOM     23  C   UNL     1       1.393   8.347  20.086  0.00  0.00    +0.000 C 
ATOM     24  C   UNL     1       2.527   7.331  19.962  0.00  0.00    +0.000 C 
ATOM     25  C   UNL     1       2.874   6.939  18.515  0.00  0.00    +0.000 C 
ATOM     26  C   UNL     1       3.051   8.234  17.697  0.00  0.00    +0.000 C 
ATOM     27  C   UNL     1       1.878   9.204  17.815  0.00  0.00    +0.000 C 
BRANCH  25  28
ATOM     28  C   UNL     1       1.864   5.985  17.834  0.00  0.00    +0.000 C 
BRANCH  28  29
ATOM     29  C   UNL     1       1.833   4.516  18.227  0.00  0.00    +0.000 A 
ATOM     30  C   UNL     1       2.313   3.469  17.434  0.00  0.00    +0.000 A 
ATOM     31  C   UNL     1       2.261   2.143  17.885  0.00  0.00    +0.000 A 
ATOM     32  C   UNL     1       1.706   1.841  19.129  0.00  0.00    +0.000 A 
ATOM     33  C   UNL     1       1.201   2.865  19.921  0.00  0.00    +0.000 A 
ATOM     34  C   UNL     1       1.269   4.191  19.477  0.00  0.00    +0.000 A 
ENDBRANCH  28  29
ENDBRANCH  25  28
ENDBRANCH  19  20
ENDBRANCH   4  19
BRANCH   6  35
ATOM     35  C   UNL     1      -3.490  11.571  17.403  0.00  0.00    +0.000 C 
BRANCH  35  36
ATOM     36  O   UNL     1      -4.895  11.305  17.358  0.00  0.00    +0.000 OA
ATOM     37  H   UNL     1      -5.229  11.293  18.272  0.00  0.00    +0.000 HD
ENDBRANCH  35  36
ENDBRANCH   6  35
TORSDOF 9
ENDMDL
MODEL 6
REMARK VINA RESULT:      -7.4      2.624     11.593
REMARK  Name = 
REMARK  10 active torsions:
REMARK  status: ('A' for Active; 'I' for Inactive)
REMARK    1  A    between atoms: C_1  and  C_2
REMARK    2  A    between atoms: C_5  and  S_6
REMARK    3  A    between atoms: S_6  and  N_9
REMARK    4  A    between atoms: N_9  and  C_10
REMARK    5  A    between atoms: C_13  and  C_14
REMARK    6  A    between atoms: C_14  and  C_15
REMARK    7  A    between atoms: C_20  and  C_21
REMARK    8  A    between atoms: C_21  and  C_22
REMARK    9  A    between atoms: C_31  and  C_32
REMARK   10  A    between atoms: C_32  and  O_33
REMARK                            x       y       z     vdW  Elec       q    Type
REMARK                         _______ _______ _______ _____ _____    ______ ____
ROOT
ATOM      1  C   UNL     1       4.529   5.547  17.479  0.00  0.00    +0.000 C 
ATOM      2  C   UNL     1       4.624   6.969  17.035  0.00  0.00    +0.000 C 
ATOM      3  C   UNL     1       3.821   7.928  17.500  0.00  0.00    +0.000 C 
ATOM      4  C   UNL     1       2.610   7.653  18.346  0.00  0.00    +0.000 C 
ATOM      5  O   UNL     1       2.235   6.264  18.197  0.00  0.00    +0.000 OA
ATOM      6  C   UNL     1       3.310   5.321  18.449  0.00  0.00    +0.000 C 
ENDROOT
BRANCH   1   7
ATOM      7  N   UNL     1       5.820   5.205  18.110  0.00  0.00    +0.000 NA
ATOM      8  H   UNL     1       5.852   4.425  18.762  0.00  0.00    +0.000 HD
BRANCH   7   9
ATOM      9  S   UNL     1       7.241   5.196  17.201  0.00  0.00    +0.000 S 
ATOM     10  O   UNL     1       8.173   4.289  17.838  0.00  0.00    +0.000 OA
ATOM     11  O   UNL     1       7.563   6.589  16.995  0.00  0.00    +0.000 OA
BRANCH   9  16
ATOM     12  C   UNL     1       5.285   3.312  11.774  0.00  0.00    +0.000 C 
ATOM     13  C   UNL     1       5.857   3.673  13.116  0.00  0.00    +0.000 A 
ATOM     14  C   UNL     1       5.312   3.142  14.294  0.00  0.00    +0.000 A 
ATOM     15  C   UNL     1       5.768   3.568  15.545  0.00  0.00    +0.000 A 
ATOM     16  C   UNL     1       6.771   4.537  15.619  0.00  0.00    +0.000 A 
ATOM     17  C   UNL     1       7.356   5.042  14.453  0.00  0.00    +0.000 A 
ATOM     18  C   UNL     1       6.895   4.612  13.205  0.00  0.00    +0.000 A 
ENDBRANCH   9  16
ENDBRANCH   7   9
ENDBRANCH   1   7
BRANCH   4  19
ATOM     19  C   UNL     1       1.440   8.505  17.825  0.00  0.00    +0.000 C 
BRANCH  19  20
ATOM     20  C   UNL     1       1.591   9.972  18.206  0.00  0.00    +0.000 C 
ATOM     21  O   UNL     1       2.200  10.754  17.467  0.00  0.00    +0.000 OA
ATOM     22  N   UNL     1       1.014  10.406  19.405  0.00  0.00    +0.000 N 
ATOM     23  C   UNL     1       0.829  11.842  19.582  0.00  0.00    +0.000 C 
ATOM     24  C   UNL     1       0.886  12.283  21.044  0.00  0.00    +0.000 C 
ATOM     25  C   UNL     1       0.016  11.443  21.995  0.00  0.00    +0.000 C 
ATOM     26  C   UNL     1       0.325   9.954  21.738  0.00  0.00    +0.000 C 
ATOM     27  C   UNL     1       0.216   9.545  20.272  0.00  0.00    +0.000 C 
BRANCH  25  28
ATOM     28  C   UNL     1      -1.504  11.719  21.910  0.00  0.00    +0.000 C 
BRANCH  28  29
ATOM     29  C   UNL     1      -2.167  12.615  22.944  0.00  0.00    +0.000 A 
ATOM     30  C   UNL     1      -3.428  12.387  23.505  0.00  0.00    +0.000 A 
ATOM     31  C   UNL     1      -3.954  13.257  24.468  0.00  0.00    +0.000 A 
ATOM     32  C   UNL     1      -3.236  14.384  24.870  0.00  0.00    +0.000 A 
ATOM     33  C   UNL     1      -1.992  14.641  24.307  0.00  0.00    +0.000 A 
ATOM     34  C   UNL     1      -1.460  13.762  23.357  0.00  0.00    +0.000 A 
ENDBRANCH  28  29
ENDBRANCH  25  28
ENDBRANCH  19  20
ENDBRANCH   4  19
BRANCH   6  35
ATOM     35  C   UNL     1       3.639   5.255  19.955  0.00  0.00    +0.000 C 
BRANCH  35  36
ATOM     36  O   UNL     1       2.454   5.263  20.756  0.00  0.00    +0.000 OA
ATOM     37  H   UNL     1       2.130   4.348  20.824  0.00  0.00    +0.000 HD
ENDBRANCH  35  36
ENDBRANCH   6  35
TORSDOF 9
ENDMDL
MODEL 7
REMARK VINA RESULT:      -7.4      6.066      7.432
REMARK  Name = 
REMARK  10 active torsions:
REMARK  status: ('A' for Active; 'I' for Inactive)
REMARK    1  A    between atoms: C_1  and  C_2
REMARK    2  A    between atoms: C_5  and  S_6
REMARK    3  A    between atoms: S_6  and  N_9
REMARK    4  A    between atoms: N_9  and  C_10
REMARK    5  A    between atoms: C_13  and  C_14
REMARK    6  A    between atoms: C_14  and  C_15
REMARK    7  A    between atoms: C_20  and  C_21
REMARK    8  A    between atoms: C_21  and  C_22
REMARK    9  A    between atoms: C_31  and  C_32
REMARK   10  A    between atoms: C_32  and  O_33
REMARK                            x       y       z     vdW  Elec       q    Type
REMARK                         _______ _______ _______ _____ _____    ______ ____
ROOT
ATOM      1  C   UNL     1       1.887  13.351  20.110  0.00  0.00    +0.000 C 
ATOM      2  C   UNL     1       1.769  14.194  21.338  0.00  0.00    +0.000 C 
ATOM      3  C   UNL     1       2.577  15.226  21.588  0.00  0.00    +0.000 C 
ATOM      4  C   UNL     1       3.814  15.520  20.787  0.00  0.00    +0.000 C 
ATOM      5  O   UNL     1       4.194  14.334  20.052  0.00  0.00    +0.000 OA
ATOM      6  C   UNL     1       3.134  13.761  19.242  0.00  0.00    +0.000 C 
ENDROOT
BRANCH   1   7
ATOM      7  N   UNL     1       0.617  13.488  19.369  0.00  0.00    +0.000 NA
ATOM      8  H   UNL     1       0.607  14.042  18.516  0.00  0.00    +0.000 HD
BRANCH   7   9
ATOM      9  S   UNL     1      -0.395  12.156  19.149  0.00  0.00    +0.000 S 
ATOM     10  O   UNL     1       0.431  10.967  19.128  0.00  0.00    +0.000 OA
ATOM     11  O   UNL     1      -1.241  12.508  18.033  0.00  0.00    +0.000 OA
BRANCH   9  16
ATOM     12  C   UNL     1      -3.747  12.501  24.195  0.00  0.00    +0.000 C 
ATOM     13  C   UNL     1      -2.972  12.292  22.926  0.00  0.00    +0.000 A 
ATOM     14  C   UNL     1      -1.708  11.683  22.950  0.00  0.00    +0.000 A 
ATOM     15  C   UNL     1      -0.938  11.595  21.786  0.00  0.00    +0.000 A 
ATOM     16  C   UNL     1      -1.432  12.124  20.591  0.00  0.00    +0.000 A 
ATOM     17  C   UNL     1      -2.710  12.692  20.543  0.00  0.00    +0.000 A 
ATOM     18  C   UNL     1      -3.474  12.777  21.710  0.00  0.00    +0.000 A 
ENDBRANCH   9  16
ENDBRANCH   7   9
ENDBRANCH   1   7
BRANCH   4  19
ATOM     19  C   UNL     1       4.961  15.852  21.754  0.00  0.00    +0.000 C 
BRANCH  19  20
ATOM     20  C   UNL     1       5.257  14.698  22.703  0.00  0.00    +0.000 C 
ATOM     21  O   UNL     1       4.451  14.391  23.589  0.00  0.00    +0.000 OA
ATOM     22  N   UNL     1       6.454  13.994  22.535  0.00  0.00    +0.000 N 
ATOM     23  C   UNL     1       6.562  12.686  23.172  0.00  0.00    +0.000 C 
ATOM     24  C   UNL     1       7.994  12.317  23.556  0.00  0.00    +0.000 C 
ATOM     25  C   UNL     1       9.027  12.526  22.434  0.00  0.00    +0.000 C 
ATOM     26  C   UNL     1       8.836  13.947  21.865  0.00  0.00    +0.000 C 
ATOM     27  C   UNL     1       7.400  14.261  21.456  0.00  0.00    +0.000 C 
BRANCH  25  28
ATOM     28  C   UNL     1       8.993  11.466  21.306  0.00  0.00    +0.000 C 
BRANCH  28  29
ATOM     29  C   UNL     1       9.898  11.626  20.095  0.00  0.00    +0.000 A 
ATOM     30  C   UNL     1       9.461  11.606  18.766  0.00  0.00    +0.000 A 
ATOM     31  C   UNL     1      10.364  11.781  17.709  0.00  0.00    +0.000 A 
ATOM     32  C   UNL     1      11.725  11.955  17.965  0.00  0.00    +0.000 A 
ATOM     33  C   UNL     1      12.182  11.953  19.277  0.00  0.00    +0.000 A 
ATOM     34  C   UNL     1      11.276  11.795  20.333  0.00  0.00    +0.000 A 
ENDBRANCH  28  29
ENDBRANCH  25  28
ENDBRANCH  19  20
ENDBRANCH   4  19
BRANCH   6  35
ATOM     35  C   UNL     1       2.848  14.646  18.011  0.00  0.00    +0.000 C 
BRANCH  35  36
ATOM     36  O   UNL     1       4.034  14.899  17.253  0.00  0.00    +0.000 OA
ATOM     37  H   UNL     1       4.800  14.752  17.834  0.00  0.00    +0.000 HD
ENDBRANCH  35  36
ENDBRANCH   6  35
TORSDOF 9
ENDMDL
MODEL 8
REMARK VINA RESULT:      -7.3      2.446      4.107
REMARK  Name = 
REMARK  10 active torsions:
REMARK  status: ('A' for Active; 'I' for Inactive)
REMARK    1  A    between atoms: C_1  and  C_2
REMARK    2  A    between atoms: C_5  and  S_6
REMARK    3  A    between atoms: S_6  and  N_9
REMARK    4  A    between atoms: N_9  and  C_10
REMARK    5  A    between atoms: C_13  and  C_14
REMARK    6  A    between atoms: C_14  and  C_15
REMARK    7  A    between atoms: C_20  and  C_21
REMARK    8  A    between atoms: C_21  and  C_22
REMARK    9  A    between atoms: C_31  and  C_32
REMARK   10  A    between atoms: C_32  and  O_33
REMARK                            x       y       z     vdW  Elec       q    Type
REMARK                         _______ _______ _______ _____ _____    ______ ____
ROOT
ATOM      1  C   UNL     1      -1.192  11.675  21.921  0.00  0.00    +0.000 C 
ATOM      2  C   UNL     1      -0.986  10.630  22.968  0.00  0.00    +0.000 C 
ATOM      3  C   UNL     1       0.069   9.813  22.977  0.00  0.00    +0.000 C 
ATOM      4  C   UNL     1       1.041   9.705  21.836  0.00  0.00    +0.000 C 
ATOM      5  O   UNL     1       0.431  10.252  20.644  0.00  0.00    +0.000 OA
ATOM      6  C   UNL     1      -0.092  11.598  20.798  0.00  0.00    +0.000 C 
ENDROOT
BRANCH   1   7
ATOM      7  N   UNL     1      -1.202  12.981  22.610  0.00  0.00    +0.000 NA
ATOM      8  H   UNL     1      -0.312  13.408  22.858  0.00  0.00    +0.000 HD
BRANCH   7   9
ATOM      9  S   UNL     1      -2.259  14.201  22.119  0.00  0.00    +0.000 S 
ATOM     10  O   UNL     1      -1.663  14.880  20.988  0.00  0.00    +0.000 OA
ATOM     11  O   UNL     1      -2.602  14.909  23.331  0.00  0.00    +0.000 OA
BRANCH   9  16
ATOM     12  C   UNL     1      -7.469  11.751  20.202  0.00  0.00    +0.000 C 
ATOM     13  C   UNL     1      -6.137  12.231  20.705  0.00  0.00    +0.000 A 
ATOM     14  C   UNL     1      -5.951  12.541  22.060  0.00  0.00    +0.000 A 
ATOM     15  C   UNL     1      -4.748  13.097  22.504  0.00  0.00    +0.000 A 
ATOM     16  C   UNL     1      -3.725  13.351  21.587  0.00  0.00    +0.000 A 
ATOM     17  C   UNL     1      -3.880  13.003  20.241  0.00  0.00    +0.000 A 
ATOM     18  C   UNL     1      -5.085  12.448  19.803  0.00  0.00    +0.000 A 
ENDBRANCH   9  16
ENDBRANCH   7   9
ENDBRANCH   1   7
BRANCH   4  19
ATOM     19  C   UNL     1       1.325   8.218  21.569  0.00  0.00    +0.000 C 
BRANCH  19  20
ATOM     20  C   UNL     1       1.650   7.956  20.104  0.00  0.00    +0.000 C 
ATOM     21  O   UNL     1       1.739   8.893  19.303  0.00  0.00    +0.000 OA
ATOM     22  N   UNL     1       1.856   6.632  19.700  0.00  0.00    +0.000 N 
ATOM     23  C   UNL     1       2.526   6.415  18.422  0.00  0.00    +0.000 C 
ATOM     24  C   UNL     1       2.106   5.117  17.733  0.00  0.00    +0.000 C 
ATOM     25  C   UNL     1       2.132   3.877  18.644  0.00  0.00    +0.000 C 
ATOM     26  C   UNL     1       1.369   4.218  19.940  0.00  0.00    +0.000 C 
ATOM     27  C   UNL     1       1.845   5.499  20.619  0.00  0.00    +0.000 C 
BRANCH  25  28
ATOM     28  C   UNL     1       3.543   3.324  18.959  0.00  0.00    +0.000 C 
BRANCH  28  29
ATOM     29  C   UNL     1       4.747   3.850  18.193  0.00  0.00    +0.000 A 
ATOM     30  C   UNL     1       4.967   3.658  16.825  0.00  0.00    +0.000 A 
ATOM     31  C   UNL     1       6.097   4.196  16.196  0.00  0.00    +0.000 A 
ATOM     32  C   UNL     1       7.039   4.917  16.932  0.00  0.00    +0.000 A 
ATOM     33  C   UNL     1       6.851   5.097  18.297  0.00  0.00    +0.000 A 
ATOM     34  C   UNL     1       5.713   4.573  18.921  0.00  0.00    +0.000 A 
ENDBRANCH  28  29
ENDBRANCH  25  28
ENDBRANCH  19  20
ENDBRANCH   4  19
BRANCH   6  35
ATOM     35  C   UNL     1       1.056  12.623  20.896  0.00  0.00    +0.000 C 
BRANCH  35  36
ATOM     36  O   UNL     1       0.780  13.802  20.135  0.00  0.00    +0.000 OA
ATOM     37  H   UNL     1       1.350  14.517  20.469  0.00  0.00    +0.000 HD
ENDBRANCH  35  36
ENDBRANCH   6  35
TORSDOF 9
ENDMDL
MODEL 9
REMARK VINA RESULT:      -7.3      1.735      2.304
REMARK  Name = 
REMARK  10 active torsions:
REMARK  status: ('A' for Active; 'I' for Inactive)
REMARK    1  A    between atoms: C_1  and  C_2
REMARK    2  A    between atoms: C_5  and  S_6
REMARK    3  A    between atoms: S_6  and  N_9
REMARK    4  A    between atoms: N_9  and  C_10
REMARK    5  A    between atoms: C_13  and  C_14
REMARK    6  A    between atoms: C_14  and  C_15
REMARK    7  A    between atoms: C_20  and  C_21
REMARK    8  A    between atoms: C_21  and  C_22
REMARK    9  A    between atoms: C_31  and  C_32
REMARK   10  A    between atoms: C_32  and  O_33
REMARK                            x       y       z     vdW  Elec       q    Type
REMARK                         _______ _______ _______ _____ _____    ______ ____
ROOT
ATOM      1  C   UNL     1       1.116  10.077  20.235  0.00  0.00    +0.000 C 
ATOM      2  C   UNL     1       1.457   9.113  19.146  0.00  0.00    +0.000 C 
ATOM      3  C   UNL     1       1.476   7.791  19.330  0.00  0.00    +0.000 C 
ATOM      4  C   UNL     1       1.373   7.143  20.682  0.00  0.00    +0.000 C 
ATOM      5  O   UNL     1       1.685   8.121  21.700  0.00  0.00    +0.000 OA
ATOM      6  C   UNL     1       0.910   9.347  21.614  0.00  0.00    +0.000 C 
ENDROOT
BRANCH   1   7
ATOM      7  N   UNL     1      -0.091  10.809  19.801  0.00  0.00    +0.000 NA
ATOM      8  H   UNL     1      -1.001  10.476  20.111  0.00  0.00    +0.000 HD
BRANCH   7   9
ATOM      9  S   UNL     1      -0.115  12.496  19.799  0.00  0.00    +0.000 S 
ATOM     10  O   UNL     1      -0.918  12.930  18.675  0.00  0.00    +0.000 OA
ATOM     11  O   UNL     1       1.268  12.890  19.937  0.00  0.00    +0.000 OA
BRANCH   9  16
ATOM     12  C   UNL     1      -3.187  14.351  24.692  0.00  0.00    +0.000 C 
ATOM     13  C   UNL     1      -2.353  13.813  23.564  0.00  0.00    +0.000 A 
ATOM     14  C   UNL     1      -1.160  14.446  23.190  0.00  0.00    +0.000 A 
ATOM     15  C   UNL     1      -0.446  14.014  22.068  0.00  0.00    +0.000 A 
ATOM     16  C   UNL     1      -0.932  12.945  21.311  0.00  0.00    +0.000 A 
ATOM     17  C   UNL     1      -2.096  12.274  21.700  0.00  0.00    +0.000 A 
ATOM     18  C   UNL     1      -2.805  12.712  22.823  0.00  0.00    +0.000 A 
ENDBRANCH   9  16
ENDBRANCH   7   9
ENDBRANCH   1   7
BRANCH   4  19
ATOM     19  C   UNL     1       2.426   6.027  20.775  0.00  0.00    +0.000 C 
BRANCH  19  20
ATOM     20  C   UNL     1       2.215   4.955  19.714  0.00  0.00    +0.000 C 
ATOM     21  O   UNL     1       1.160   4.313  19.671  0.00  0.00    +0.000 OA
ATOM     22  N   UNL     1       3.240   4.730  18.789  0.00  0.00    +0.000 N 
ATOM     23  C   UNL     1       2.902   3.998  17.573  0.00  0.00    +0.000 C 
ATOM     24  C   UNL     1       4.074   3.202  17.001  0.00  0.00    +0.000 C 
ATOM     25  C   UNL     1       5.384   4.001  16.877  0.00  0.00    +0.000 C 
ATOM     26  C   UNL     1       5.650   4.697  18.227  0.00  0.00    +0.000 C 
ATOM     27  C   UNL     1       4.470   5.515  18.743  0.00  0.00    +0.000 C 
BRANCH  25  28
ATOM     28  C   UNL     1       5.426   5.015  15.709  0.00  0.00    +0.000 C 
BRANCH  28  29
ATOM     29  C   UNL     1       6.068   4.619  14.389  0.00  0.00    +0.000 A 
ATOM     30  C   UNL     1       7.311   5.077  13.939  0.00  0.00    +0.000 A 
ATOM     31  C   UNL     1       7.836   4.644  12.715  0.00  0.00    +0.000 A 
ATOM     32  C   UNL     1       7.115   3.761  11.909  0.00  0.00    +0.000 A 
ATOM     33  C   UNL     1       5.868   3.314  12.327  0.00  0.00    +0.000 A 
ATOM     34  C   UNL     1       5.351   3.735  13.559  0.00  0.00    +0.000 A 
ENDBRANCH  28  29
ENDBRANCH  25  28
ENDBRANCH  19  20
ENDBRANCH   4  19
BRANCH   6  35
ATOM     35  C   UNL     1      -0.550   9.102  22.046  0.00  0.00    +0.000 C 
BRANCH  35  36
ATOM     36  O   UNL     1      -0.791   9.553  23.382  0.00  0.00    +0.000 OA
ATOM     37  H   UNL     1      -1.716   9.352  23.606  0.00  0.00    +0.000 HD
ENDBRANCH  35  36
ENDBRANCH   6  35
TORSDOF 9
ENDMDL
