MODEL 1
REMARK VINA RESULT:      -8.6      0.000      0.000
REMARK  Name = 
REMARK  11 active torsions:
REMARK  status: ('A' for Active; 'I' for Inactive)
REMARK    1  A    between atoms: C_1  and  C_2
REMARK    2  A    between atoms: C_2  and  C_3
REMARK    3  A    between atoms: C_3  and  O_4
REMARK    4  A    between atoms: O_4  and  C_5
REMARK    5  A    between atoms: C_8  and  C_9
REMARK    6  A    between atoms: N_11  and  C_12
REMARK    7  A    between atoms: C_15  and  S_16
REMARK    8  A    between atoms: S_16  and  N_19
REMARK    9  A    between atoms: N_19  and  C_20
REMARK   10  A    between atoms: C_23  and  C_24
REMARK   11  A    between atoms: C_25  and  C_26
REMARK                            x       y       z     vdW  Elec       q    Type
REMARK                         _______ _______ _______ _____ _____    ______ ____
ROOT
ATOM      1  C   UNL     1       1.872   6.270  20.338  0.00  0.00    +0.000 A 
ATOM      2  C   UNL     1       2.113   6.241  18.959  0.00  0.00    +0.000 A 
ATOM      3  C   UNL     1       2.665   5.121  18.343  0.00  0.00    +0.000 A 
ATOM      4  C   UNL     1       3.008   4.015  19.112  0.00  0.00    +0.000 A 
ATOM      5  C   UNL     1       2.772   4.012  20.490  0.00  0.00    +0.000 A 
ATOM      6  C   UNL     1       2.216   5.147  21.103  0.00  0.00    +0.000 A 
ENDROOT
BRANCH   1   9
ATOM      7  C   UNL     1       1.205   8.652  20.414  0.00  0.00    +0.000 C 
ATOM      8  O   UNL     1       1.561   8.951  19.276  0.00  0.00    +0.000 OA
ATOM      9  N   UNL     1       1.291   7.391  20.985  0.00  0.00    +0.000 N 
ATOM     10  H   UNL     1       0.782   7.222  21.841  0.00  0.00    +0.000 HD
BRANCH   7  14
ATOM     11  C   UNL     1      -0.947  11.541  22.743  0.00  0.00    +0.000 A 
ATOM     12  C   UNL     1      -0.863  10.199  23.111  0.00  0.00    +0.000 A 
ATOM     13  C   UNL     1      -0.124   9.303  22.347  0.00  0.00    +0.000 A 
ATOM     14  C   UNL     1       0.548   9.726  21.195  0.00  0.00    +0.000 A 
ATOM     15  C   UNL     1       0.476  11.066  20.812  0.00  0.00    +0.000 A 
ATOM     16  C   UNL     1      -0.277  11.971  21.589  0.00  0.00    +0.000 A 
BRANCH  11  17
ATOM     17  O   UNL     1      -1.667  12.486  23.439  0.00  0.00    +0.000 OA
BRANCH  17  18
ATOM     18  C   UNL     1      -3.061  12.533  23.105  0.00  0.00    +0.000 C 
BRANCH  18  20
ATOM     19  C   UNL     1      -5.348  12.959  24.021  0.00  0.00    +0.000 C 
ATOM     20  C   UNL     1      -3.930  12.512  24.355  0.00  0.00    +0.000 C 
ENDBRANCH  18  20
ENDBRANCH  17  18
ENDBRANCH  11  17
ENDBRANCH   7  14
ENDBRANCH   1   9
BRANCH   4  21
ATOM     21  S   UNL     1       3.667   2.599  18.285  0.00  0.00    +0.000 S 
ATOM     22  O   UNL     1       4.491   1.873  19.236  0.00  0.00    +0.000 OA
ATOM     23  O   UNL     1       2.604   1.920  17.577  0.00  0.00    +0.000 OA
BRANCH  21  24
ATOM     24  N   UNL     1       4.763   3.274  17.182  0.00  0.00    +0.000 N 
ATOM     25  H   UNL     1       4.212   3.593  16.388  0.00  0.00    +0.000 HD
BRANCH  24  26
ATOM     26  C   UNL     1       5.627   4.242  17.758  0.00  0.00    +0.000 A 
ATOM     27  O   UNL     1       6.283   4.071  18.935  0.00  0.00    +0.000 OA
ATOM     28  N   UNL     1       7.133   5.141  19.152  0.00  0.00    +0.000 NA
ATOM     29  C   UNL     1       6.953   5.963  18.111  0.00  0.00    +0.000 A 
ATOM     30  C   UNL     1       7.711   7.235  18.025  0.00  0.00    +0.000 C 
ATOM     31  C   UNL     1       5.991   5.448  17.199  0.00  0.00    +0.000 A 
ATOM     32  C   UNL     1       5.457   6.085  15.975  0.00  0.00    +0.000 C 
ENDBRANCH  24  26
ENDBRANCH  21  24
ENDBRANCH   4  21
TORSDOF 8
ENDMDL
MODEL 2
REMARK VINA RESULT:      -8.5      1.257      1.753
REMARK  Name = 
REMARK  11 active torsions:
REMARK  status: ('A' for Active; 'I' for Inactive)
REMARK    1  A    between atoms: C_1  and  C_2
REMARK    2  A    between atoms: C_2  and  C_3
REMARK    3  A    between atoms: C_3  and  O_4
REMARK    4  A    between atoms: O_4  and  C_5
REMARK    5  A    between atoms: C_8  and  C_9
REMARK    6  A    between atoms: N_11  and  C_12
REMARK    7  A    between atoms: C_15  and  S_16
REMARK    8  A    between atoms: S_16  and  N_19
REMARK    9  A    between atoms: N_19  and  C_20
REMARK   10  A    between atoms: C_23  and  C_24
REMARK   11  A    between atoms: C_25  and  C_26
REMARK                            x       y       z     vdW  Elec       q    Type
REMARK                         _______ _______ _______ _____ _____    ______ ____
ROOT
ATOM      1  C   UNL     1       2.164   6.766  20.030  0.00  0.00    +0.000 A 
ATOM      2  C   UNL     1       2.377   5.484  20.553  0.00  0.00    +0.000 A 
ATOM      3  C   UNL     1       3.042   4.504  19.822  0.00  0.00    +0.000 A 
ATOM      4  C   UNL     1       3.487   4.791  18.536  0.00  0.00    +0.000 A 
ATOM      5  C   UNL     1       3.297   6.064  17.991  0.00  0.00    +0.000 A 
ATOM      6  C   UNL     1       2.622   7.046  18.736  0.00  0.00    +0.000 A 
ENDROOT
BRANCH   1   9
ATOM      7  C   UNL     1       1.083   8.984  20.209  0.00  0.00    +0.000 C 
ATOM      8  O   UNL     1       1.166   9.296  19.023  0.00  0.00    +0.000 OA
ATOM      9  N   UNL     1       1.508   7.786  20.764  0.00  0.00    +0.000 N 
ATOM     10  H   UNL     1       1.201   7.563  21.701  0.00  0.00    +0.000 HD
BRANCH   7  14
ATOM     11  C   UNL     1      -1.148  11.529  22.846  0.00  0.00    +0.000 A 
ATOM     12  C   UNL     1      -0.851  10.203  23.161  0.00  0.00    +0.000 A 
ATOM     13  C   UNL     1      -0.094   9.424  22.294  0.00  0.00    +0.000 A 
ATOM     14  C   UNL     1       0.385   9.950  21.090  0.00  0.00    +0.000 A 
ATOM     15  C   UNL     1       0.099  11.275  20.758  0.00  0.00    +0.000 A 
ATOM     16  C   UNL     1      -0.672  12.061  21.639  0.00  0.00    +0.000 A 
BRANCH  11  17
ATOM     17  O   UNL     1      -1.900  12.361  23.645  0.00  0.00    +0.000 OA
BRANCH  17  18
ATOM     18  C   UNL     1      -3.271  12.488  23.241  0.00  0.00    +0.000 C 
BRANCH  18  20
ATOM     19  C   UNL     1      -4.733  14.399  23.920  0.00  0.00    +0.000 C 
ATOM     20  C   UNL     1      -4.124  13.073  24.358  0.00  0.00    +0.000 C 
ENDBRANCH  18  20
ENDBRANCH  17  18
ENDBRANCH  11  17
ENDBRANCH   7  14
ENDBRANCH   1   9
BRANCH   4  21
ATOM     21  S   UNL     1       4.365   3.532  17.660  0.00  0.00    +0.000 S 
ATOM     22  O   UNL     1       3.990   2.250  18.232  0.00  0.00    +0.000 OA
ATOM     23  O   UNL     1       4.235   3.759  16.238  0.00  0.00    +0.000 OA
BRANCH  21  24
ATOM     24  N   UNL     1       5.971   3.775  18.145  0.00  0.00    +0.000 N 
ATOM     25  H   UNL     1       6.489   2.950  17.850  0.00  0.00    +0.000 HD
BRANCH  24  26
ATOM     26  C   UNL     1       6.509   5.020  17.727  0.00  0.00    +0.000 A 
ATOM     27  O   UNL     1       6.303   5.565  16.500  0.00  0.00    +0.000 OA
ATOM     28  N   UNL     1       6.859   6.832  16.455  0.00  0.00    +0.000 NA
ATOM     29  C   UNL     1       7.424   7.021  17.653  0.00  0.00    +0.000 A 
ATOM     30  C   UNL     1       8.132   8.290  17.951  0.00  0.00    +0.000 C 
ATOM     31  C   UNL     1       7.247   5.891  18.499  0.00  0.00    +0.000 A 
ATOM     32  C   UNL     1       7.784   5.675  19.860  0.00  0.00    +0.000 C 
ENDBRANCH  24  26
ENDBRANCH  21  24
ENDBRANCH   4  21
TORSDOF 8
ENDMDL
MODEL 3
REMARK VINA RESULT:      -8.4      3.246      4.312
REMARK  Name = 
REMARK  11 active torsions:
REMARK  status: ('A' for Active; 'I' for Inactive)
REMARK    1  A    between atoms: C_1  and  C_2
REMARK    2  A    between atoms: C_2  and  C_3
REMARK    3  A    between atoms: C_3  and  O_4
REMARK    4  A    between atoms: O_4  and  C_5
REMARK    5  A    between atoms: C_8  and  C_9
REMARK    6  A    between atoms: N_11  and  C_12
REMARK    7  A    between atoms: C_15  and  S_16
REMARK    8  A    between atoms: S_16  and  N_19
REMARK    9  A    between atoms: N_19  and  C_20
REMARK   10  A    between atoms: C_23  and  C_24
REMARK   11  A    between atoms: C_25  and  C_26
REMARK                            x       y       z     vdW  Elec       q    Type
REMARK                         _______ _______ _______ _____ _____    ______ ____
ROOT
ATOM      1  C   UNL     1       2.294   7.688  18.099  0.00  0.00    +0.000 A 
ATOM      2  C   UNL     1       3.260   7.682  17.085  0.00  0.00    +0.000 A 
ATOM      3  C   UNL     1       4.443   6.959  17.214  0.00  0.00    +0.000 A 
ATOM      4  C   UNL     1       4.685   6.244  18.381  0.00  0.00    +0.000 A 
ATOM      5  C   UNL     1       3.736   6.224  19.407  0.00  0.00    +0.000 A 
ATOM      6  C   UNL     1       2.547   6.959  19.269  0.00  0.00    +0.000 A 
ENDROOT
BRANCH   1   9
ATOM      7  C   UNL     1       0.831   9.621  18.593  0.00  0.00    +0.000 C 
ATOM      8  O   UNL     1       1.639  10.264  19.259  0.00  0.00    +0.000 OA
ATOM      9  N   UNL     1       1.073   8.400  17.982  0.00  0.00    +0.000 N 
ATOM     10  H   UNL     1       0.406   8.071  17.298  0.00  0.00    +0.000 HD
BRANCH   7  14
ATOM     11  C   UNL     1      -3.010  11.504  18.262  0.00  0.00    +0.000 A 
ATOM     12  C   UNL     1      -2.074  11.880  19.225  0.00  0.00    +0.000 A 
ATOM     13  C   UNL     1      -0.827  11.269  19.274  0.00  0.00    +0.000 A 
ATOM     14  C   UNL     1      -0.484  10.265  18.362  0.00  0.00    +0.000 A 
ATOM     15  C   UNL     1      -1.407   9.876  17.391  0.00  0.00    +0.000 A 
ATOM     16  C   UNL     1      -2.672  10.497  17.347  0.00  0.00    +0.000 A 
BRANCH  11  17
ATOM     17  O   UNL     1      -4.268  12.053  18.155  0.00  0.00    +0.000 OA
BRANCH  17  18
ATOM     18  C   UNL     1      -5.228  11.209  17.502  0.00  0.00    +0.000 C 
BRANCH  18  20
ATOM     19  C   UNL     1      -6.815  10.090  19.076  0.00  0.00    +0.000 C 
ATOM     20  C   UNL     1      -6.591  11.298  18.174  0.00  0.00    +0.000 C 
ENDBRANCH  18  20
ENDBRANCH  17  18
ENDBRANCH  11  17
ENDBRANCH   7  14
ENDBRANCH   1   9
BRANCH   4  21
ATOM     21  S   UNL     1       6.179   5.305  18.485  0.00  0.00    +0.000 S 
ATOM     22  O   UNL     1       7.078   5.787  17.450  0.00  0.00    +0.000 OA
ATOM     23  O   UNL     1       6.618   5.254  19.862  0.00  0.00    +0.000 OA
BRANCH  21  24
ATOM     24  N   UNL     1       5.701   3.764  17.967  0.00  0.00    +0.000 N 
ATOM     25  H   UNL     1       6.551   3.208  17.895  0.00  0.00    +0.000 HD
BRANCH  24  26
ATOM     26  C   UNL     1       4.661   3.198  18.750  0.00  0.00    +0.000 A 
ATOM     27  O   UNL     1       4.830   2.725  20.012  0.00  0.00    +0.000 OA
ATOM     28  N   UNL     1       3.604   2.357  20.538  0.00  0.00    +0.000 NA
ATOM     29  C   UNL     1       2.711   2.584  19.567  0.00  0.00    +0.000 A 
ATOM     30  C   UNL     1       1.276   2.284  19.789  0.00  0.00    +0.000 C 
ATOM     31  C   UNL     1       3.332   3.105  18.398  0.00  0.00    +0.000 A 
ATOM     32  C   UNL     1       2.710   3.412  17.092  0.00  0.00    +0.000 C 
ENDBRANCH  24  26
ENDBRANCH  21  24
ENDBRANCH   4  21
TORSDOF 8
ENDMDL
MODEL 4
REMARK VINA RESULT:      -8.3      3.768     11.059
REMARK  Name = 
REMARK  11 active torsions:
REMARK  status: ('A' for Active; 'I' for Inactive)
REMARK    1  A    between atoms: C_1  and  C_2
REMARK    2  A    between atoms: C_2  and  C_3
REMARK    3  A    between atoms: C_3  and  O_4
REMARK    4  A    between atoms: O_4  and  C_5
REMARK    5  A    between atoms: C_8  and  C_9
REMARK    6  A    between atoms: N_11  and  C_12
REMARK    7  A    between atoms: C_15  and  S_16
REMARK    8  A    between atoms: S_16  and  N_19
REMARK    9  A    between atoms: N_19  and  C_20
REMARK   10  A    between atoms: C_23  and  C_24
REMARK   11  A    between atoms: C_25  and  C_26
REMARK                            x       y       z     vdW  Elec       q    Type
REMARK                         _______ _______ _______ _____ _____    ______ ____
ROOT
ATOM      1  C   UNL     1       1.483   9.701  18.030  0.00  0.00    +0.000 A 
ATOM      2  C   UNL     1       2.052  10.929  18.389  0.00  0.00    +0.000 A 
ATOM      3  C   UNL     1       1.268  11.985  18.847  0.00  0.00    +0.000 A 
ATOM      4  C   UNL     1      -0.111  11.830  18.929  0.00  0.00    +0.000 A 
ATOM      5  C   UNL     1      -0.707  10.613  18.585  0.00  0.00    +0.000 A 
ATOM      6  C   UNL     1       0.092   9.554  18.122  0.00  0.00    +0.000 A 
ENDROOT
BRANCH   1   9
ATOM      7  C   UNL     1       2.660   7.555  18.396  0.00  0.00    +0.000 C 
ATOM      8  O   UNL     1       2.355   7.407  19.577  0.00  0.00    +0.000 OA
ATOM      9  N   UNL     1       2.262   8.604  17.581  0.00  0.00    +0.000 N 
ATOM     10  H   UNL     1       2.403   8.511  16.585  0.00  0.00    +0.000 HD
BRANCH   7  14
ATOM     11  C   UNL     1       5.004   4.594  16.361  0.00  0.00    +0.000 A 
ATOM     12  C   UNL     1       5.337   5.947  16.349  0.00  0.00    +0.000 A 
ATOM     13  C   UNL     1       4.571   6.870  17.052  0.00  0.00    +0.000 A 
ATOM     14  C   UNL     1       3.452   6.461  17.785  0.00  0.00    +0.000 A 
ATOM     15  C   UNL     1       3.103   5.110  17.810  0.00  0.00    +0.000 A 
ATOM     16  C   UNL     1       3.881   4.179  17.093  0.00  0.00    +0.000 A 
BRANCH  11  17
ATOM     17  O   UNL     1       5.704   3.621  15.682  0.00  0.00    +0.000 OA
BRANCH  17  18
ATOM     18  C   UNL     1       6.418   4.100  14.533  0.00  0.00    +0.000 C 
BRANCH  18  20
ATOM     19  C   UNL     1       6.772   3.632  12.103  0.00  0.00    +0.000 C 
ATOM     20  C   UNL     1       5.758   3.639  13.241  0.00  0.00    +0.000 C 
ENDBRANCH  18  20
ENDBRANCH  17  18
ENDBRANCH  11  17
ENDBRANCH   7  14
ENDBRANCH   1   9
BRANCH   4  21
ATOM     21  S   UNL     1      -1.063  13.181  19.556  0.00  0.00    +0.000 S 
ATOM     22  O   UNL     1      -0.594  14.393  18.905  0.00  0.00    +0.000 OA
ATOM     23  O   UNL     1      -2.466  12.834  19.522  0.00  0.00    +0.000 OA
BRANCH  21  24
ATOM     24  N   UNL     1      -0.533  13.313  21.160  0.00  0.00    +0.000 N 
ATOM     25  H   UNL     1       0.144  14.073  21.178  0.00  0.00    +0.000 HD
BRANCH  24  26
ATOM     26  C   UNL     1      -1.589  13.409  22.103  0.00  0.00    +0.000 A 
ATOM     27  O   UNL     1      -2.359  14.515  22.272  0.00  0.00    +0.000 OA
ATOM     28  N   UNL     1      -3.371  14.242  23.176  0.00  0.00    +0.000 NA
ATOM     29  C   UNL     1      -3.177  12.977  23.565  0.00  0.00    +0.000 A 
ATOM     30  C   UNL     1      -4.088  12.353  24.556  0.00  0.00    +0.000 C 
ATOM     31  C   UNL     1      -2.044  12.401  22.926  0.00  0.00    +0.000 A 
ATOM     32  C   UNL     1      -1.454  11.062  23.141  0.00  0.00    +0.000 C 
ENDBRANCH  24  26
ENDBRANCH  21  24
ENDBRANCH   4  21
TORSDOF 8
ENDMDL
MODEL 5
REMARK VINA RESULT:      -8.3      1.149      1.314
REMARK  Name = 
REMARK  11 active torsions:
REMARK  status: ('A' for Active; 'I' for Inactive)
REMARK    1  A    between atoms: C_1  and  C_2
REMARK    2  A    between atoms: C_2  and  C_3
REMARK    3  A    between atoms: C_3  and  O_4
REMARK    4  A    between atoms: O_4  and  C_5
REMARK    5  A    between atoms: C_8  and  C_9
REMARK    6  A    between atoms: N_11  and  C_12
REMARK    7  A    between atoms: C_15  and  S_16
REMARK    8  A    between atoms: S_16  and  N_19
REMARK    9  A    between atoms: N_19  and  C_20
REMARK   10  A    between atoms: C_23  and  C_24
REMARK   11  A    between atoms: C_25  and  C_26
REMARK                            x       y       z     vdW  Elec       q    Type
REMARK                         _______ _______ _______ _____ _____    ______ ____
ROOT
ATOM      1  C   UNL     1       1.984   7.143  19.875  0.00  0.00    +0.000 A 
ATOM      2  C   UNL     1       2.185   6.904  18.510  0.00  0.00    +0.000 A 
ATOM      3  C   UNL     1       2.571   5.651  18.041  0.00  0.00    +0.000 A 
ATOM      4  C   UNL     1       2.785   4.617  18.946  0.00  0.00    +0.000 A 
ATOM      5  C   UNL     1       2.585   4.823  20.314  0.00  0.00    +0.000 A 
ATOM      6  C   UNL     1       2.198   6.092  20.777  0.00  0.00    +0.000 A 
ENDROOT
BRANCH   1   9
ATOM      7  C   UNL     1       0.393   8.609  21.074  0.00  0.00    +0.000 C 
ATOM      8  O   UNL     1      -0.410   7.738  21.400  0.00  0.00    +0.000 OA
ATOM      9  N   UNL     1       1.572   8.405  20.373  0.00  0.00    +0.000 N 
ATOM     10  H   UNL     1       2.244   9.158  20.346  0.00  0.00    +0.000 HD
BRANCH   7  14
ATOM     11  C   UNL     1      -0.764  12.466  22.556  0.00  0.00    +0.000 A 
ATOM     12  C   UNL     1      -1.156  11.280  23.175  0.00  0.00    +0.000 A 
ATOM     13  C   UNL     1      -0.729  10.052  22.683  0.00  0.00    +0.000 A 
ATOM     14  C   UNL     1       0.101   9.979  21.559  0.00  0.00    +0.000 A 
ATOM     15  C   UNL     1       0.505  11.156  20.927  0.00  0.00    +0.000 A 
ATOM     16  C   UNL     1       0.066  12.399  21.428  0.00  0.00    +0.000 A 
BRANCH  11  17
ATOM     17  O   UNL     1      -1.154  13.719  22.974  0.00  0.00    +0.000 OA
BRANCH  17  18
ATOM     18  C   UNL     1      -2.446  13.760  23.595  0.00  0.00    +0.000 C 
BRANCH  18  20
ATOM     19  C   UNL     1      -2.846  15.524  21.870  0.00  0.00    +0.000 C 
ATOM     20  C   UNL     1      -3.480  14.399  22.679  0.00  0.00    +0.000 C 
ENDBRANCH  18  20
ENDBRANCH  17  18
ENDBRANCH  11  17
ENDBRANCH   7  14
ENDBRANCH   1   9
BRANCH   4  21
ATOM     21  S   UNL     1       3.232   3.032  18.305  0.00  0.00    +0.000 S 
ATOM     22  O   UNL     1       3.689   2.217  19.418  0.00  0.00    +0.000 OA
ATOM     23  O   UNL     1       2.180   2.552  17.437  0.00  0.00    +0.000 OA
BRANCH  21  24
ATOM     24  N   UNL     1       4.628   3.362  17.402  0.00  0.00    +0.000 N 
ATOM     25  H   UNL     1       4.312   3.620  16.469  0.00  0.00    +0.000 HD
BRANCH  24  26
ATOM     26  C   UNL     1       5.507   4.283  18.030  0.00  0.00    +0.000 A 
ATOM     27  O   UNL     1       5.951   4.161  19.307  0.00  0.00    +0.000 OA
ATOM     28  N   UNL     1       6.884   5.148  19.571  0.00  0.00    +0.000 NA
ATOM     29  C   UNL     1       6.967   5.876  18.451  0.00  0.00    +0.000 A 
ATOM     30  C   UNL     1       7.880   7.043  18.386  0.00  0.00    +0.000 C 
ATOM     31  C   UNL     1       6.098   5.380  17.440  0.00  0.00    +0.000 A 
ATOM     32  C   UNL     1       5.839   5.945  16.098  0.00  0.00    +0.000 C 
ENDBRANCH  24  26
ENDBRANCH  21  24
ENDBRANCH   4  21
TORSDOF 8
ENDMDL
MODEL 6
REMARK VINA RESULT:      -8.1      1.359      1.830
REMARK  Name = 
REMARK  11 active torsions:
REMARK  status: ('A' for Active; 'I' for Inactive)
REMARK    1  A    between atoms: C_1  and  C_2
REMARK    2  A    between atoms: C_2  and  C_3
REMARK    3  A    between atoms: C_3  and  O_4
REMARK    4  A    between atoms: O_4  and  C_5
REMARK    5  A    between atoms: C_8  and  C_9
REMARK    6  A    between atoms: N_11  and  C_12
REMARK    7  A    between atoms: C_15  and  S_16
REMARK    8  A    between atoms: S_16  and  N_19
REMARK    9  A    between atoms: N_19  and  C_20
REMARK   10  A    between atoms: C_23  and  C_24
REMARK   11  A    between atoms: C_25  and  C_26
REMARK                            x       y       z     vdW  Elec       q    Type
REMARK                         _______ _______ _______ _____ _____    ______ ____
ROOT
ATOM      1  C   UNL     1       1.972   6.963  20.043  0.00  0.00    +0.000 A 
ATOM      2  C   UNL     1       2.204   5.875  20.894  0.00  0.00    +0.000 A 
ATOM      3  C   UNL     1       2.612   4.640  20.398  0.00  0.00    +0.000 A 
ATOM      4  C   UNL     1       2.771   4.470  19.028  0.00  0.00    +0.000 A 
ATOM      5  C   UNL     1       2.554   5.539  18.154  0.00  0.00    +0.000 A 
ATOM      6  C   UNL     1       2.141   6.782  18.663  0.00  0.00    +0.000 A 
ENDROOT
BRANCH   1   9
ATOM      7  C   UNL     1       0.357   8.484  21.138  0.00  0.00    +0.000 C 
ATOM      8  O   UNL     1      -0.505   7.644  21.389  0.00  0.00    +0.000 OA
ATOM      9  N   UNL     1       1.576   8.236  20.526  0.00  0.00    +0.000 N 
ATOM     10  H   UNL     1       2.280   8.960  20.561  0.00  0.00    +0.000 HD
BRANCH   7  14
ATOM     11  C   UNL     1      -0.745  12.369  22.587  0.00  0.00    +0.000 A 
ATOM     12  C   UNL     1      -1.220  11.193  23.166  0.00  0.00    +0.000 A 
ATOM     13  C   UNL     1      -0.809   9.954  22.689  0.00  0.00    +0.000 A 
ATOM     14  C   UNL     1       0.087   9.859  21.619  0.00  0.00    +0.000 A 
ATOM     15  C   UNL     1       0.574  11.025  21.027  0.00  0.00    +0.000 A 
ATOM     16  C   UNL     1       0.152  12.280  21.513  0.00  0.00    +0.000 A 
BRANCH  11  17
ATOM     17  O   UNL     1      -1.113  13.632  22.993  0.00  0.00    +0.000 OA
BRANCH  17  18
ATOM     18  C   UNL     1      -0.362  14.692  22.384  0.00  0.00    +0.000 C 
BRANCH  18  20
ATOM     19  C   UNL     1      -2.648  15.703  22.399  0.00  0.00    +0.000 C 
ATOM     20  C   UNL     1      -1.280  15.714  21.728  0.00  0.00    +0.000 C 
ENDBRANCH  18  20
ENDBRANCH  17  18
ENDBRANCH  11  17
ENDBRANCH   7  14
ENDBRANCH   1   9
BRANCH   4  21
ATOM     21  S   UNL     1       3.331   2.898  18.444  0.00  0.00    +0.000 S 
ATOM     22  O   UNL     1       3.888   2.178  19.577  0.00  0.00    +0.000 OA
ATOM     23  O   UNL     1       2.298   2.292  17.634  0.00  0.00    +0.000 OA
BRANCH  21  24
ATOM     24  N   UNL     1       4.666   3.300  17.481  0.00  0.00    +0.000 N 
ATOM     25  H   UNL     1       4.295   3.574  16.574  0.00  0.00    +0.000 HD
BRANCH  24  26
ATOM     26  C   UNL     1       5.548   4.231  18.090  0.00  0.00    +0.000 A 
ATOM     27  O   UNL     1       6.005   4.124  19.365  0.00  0.00    +0.000 OA
ATOM     28  N   UNL     1       6.937   5.118  19.609  0.00  0.00    +0.000 NA
ATOM     29  C   UNL     1       7.005   5.834  18.480  0.00  0.00    +0.000 A 
ATOM     30  C   UNL     1       7.913   7.004  18.394  0.00  0.00    +0.000 C 
ATOM     31  C   UNL     1       6.128   5.324  17.484  0.00  0.00    +0.000 A 
ATOM     32  C   UNL     1       5.854   5.873  16.138  0.00  0.00    +0.000 C 
ENDBRANCH  24  26
ENDBRANCH  21  24
ENDBRANCH   4  21
TORSDOF 8
ENDMDL
MODEL 7
REMARK VINA RESULT:      -8.1      3.079      4.379
REMARK  Name = 
REMARK  11 active torsions:
REMARK  status: ('A' for Active; 'I' for Inactive)
REMARK    1  A    between atoms: C_1  and  C_2
REMARK    2  A    between atoms: C_2  and  C_3
REMARK    3  A    between atoms: C_3  and  O_4
REMARK    4  A    between atoms: O_4  and  C_5
REMARK    5  A    between atoms: C_8  and  C_9
REMARK    6  A    between atoms: N_11  and  C_12
REMARK    7  A    between atoms: C_15  and  S_16
REMARK    8  A    between atoms: S_16  and  N_19
REMARK    9  A    between atoms: N_19  and  C_20
REMARK   10  A    between atoms: C_23  and  C_24
REMARK   11  A    between atoms: C_25  and  C_26
REMARK                            x       y       z     vdW  Elec       q    Type
REMARK                         _______ _______ _______ _____ _____    ______ ____
ROOT
ATOM      1  C   UNL     1       2.285   7.524  18.570  0.00  0.00    +0.000 A 
ATOM      2  C   UNL     1       2.677   6.636  19.579  0.00  0.00    +0.000 A 
ATOM      3  C   UNL     1       3.875   5.931  19.499  0.00  0.00    +0.000 A 
ATOM      4  C   UNL     1       4.692   6.092  18.386  0.00  0.00    +0.000 A 
ATOM      5  C   UNL     1       4.331   6.978  17.367  0.00  0.00    +0.000 A 
ATOM      6  C   UNL     1       3.119   7.683  17.455  0.00  0.00    +0.000 A 
ENDROOT
BRANCH   1   9
ATOM      7  C   UNL     1       1.004   9.637  18.434  0.00  0.00    +0.000 C 
ATOM      8  O   UNL     1       1.940  10.369  18.119  0.00  0.00    +0.000 OA
ATOM      9  N   UNL     1       1.079   8.268  18.639  0.00  0.00    +0.000 N 
ATOM     10  H   UNL     1       0.214   7.748  18.690  0.00  0.00    +0.000 HD
BRANCH   7  14
ATOM     11  C   UNL     1      -2.859  11.498  18.318  0.00  0.00    +0.000 A 
ATOM     12  C   UNL     1      -2.492  10.483  17.435  0.00  0.00    +0.000 A 
ATOM     13  C   UNL     1      -1.243   9.882  17.531  0.00  0.00    +0.000 A 
ATOM     14  C   UNL     1      -0.329  10.281  18.512  0.00  0.00    +0.000 A 
ATOM     15  C   UNL     1      -0.679  11.294  19.405  0.00  0.00    +0.000 A 
ATOM     16  C   UNL     1      -1.946  11.903  19.302  0.00  0.00    +0.000 A 
BRANCH  11  17
ATOM     17  O   UNL     1      -4.071  12.151  18.281  0.00  0.00    +0.000 OA
BRANCH  17  18
ATOM     18  C   UNL     1      -5.072  11.495  17.488  0.00  0.00    +0.000 C 
BRANCH  18  20
ATOM     19  C   UNL     1      -6.286  11.649  19.668  0.00  0.00    +0.000 C 
ATOM     20  C   UNL     1      -6.151  10.873  18.364  0.00  0.00    +0.000 C 
ENDBRANCH  18  20
ENDBRANCH  17  18
ENDBRANCH  11  17
ENDBRANCH   7  14
ENDBRANCH   1   9
BRANCH   4  21
ATOM     21  S   UNL     1       6.224   5.212  18.345  0.00  0.00    +0.000 S 
ATOM     22  O   UNL     1       7.090   5.873  17.383  0.00  0.00    +0.000 OA
ATOM     23  O   UNL     1       6.682   4.983  19.697  0.00  0.00    +0.000 OA
BRANCH  21  24
ATOM     24  N   UNL     1       5.802   3.741  17.616  0.00  0.00    +0.000 N 
ATOM     25  H   UNL     1       6.421   3.035  18.011  0.00  0.00    +0.000 HD
BRANCH  24  26
ATOM     26  C   UNL     1       4.415   3.449  17.684  0.00  0.00    +0.000 A 
ATOM     27  O   UNL     1       3.523   3.763  16.710  0.00  0.00    +0.000 OA
ATOM     28  N   UNL     1       2.283   3.235  17.028  0.00  0.00    +0.000 NA
ATOM     29  C   UNL     1       2.440   2.633  18.213  0.00  0.00    +0.000 A 
ATOM     30  C   UNL     1       1.290   1.962  18.865  0.00  0.00    +0.000 C 
ATOM     31  C   UNL     1       3.775   2.753  18.687  0.00  0.00    +0.000 A 
ATOM     32  C   UNL     1       4.331   2.296  19.979  0.00  0.00    +0.000 C 
ENDBRANCH  24  26
ENDBRANCH  21  24
ENDBRANCH   4  21
TORSDOF 8
ENDMDL
MODEL 8
REMARK VINA RESULT:      -8.1      3.004      4.260
REMARK  Name = 
REMARK  11 active torsions:
REMARK  status: ('A' for Active; 'I' for Inactive)
REMARK    1  A    between atoms: C_1  and  C_2
REMARK    2  A    between atoms: C_2  and  C_3
REMARK    3  A    between atoms: C_3  and  O_4
REMARK    4  A    between atoms: O_4  and  C_5
REMARK    5  A    between atoms: C_8  and  C_9
REMARK    6  A    between atoms: N_11  and  C_12
REMARK    7  A    between atoms: C_15  and  S_16
REMARK    8  A    between atoms: S_16  and  N_19
REMARK    9  A    between atoms: N_19  and  C_20
REMARK   10  A    between atoms: C_23  and  C_24
REMARK   11  A    between atoms: C_25  and  C_26
REMARK                            x       y       z     vdW  Elec       q    Type
REMARK                         _______ _______ _______ _____ _____    ______ ____
ROOT
ATOM      1  C   UNL     1       2.435   7.590  18.411  0.00  0.00    +0.000 A 
ATOM      2  C   UNL     1       3.309   7.681  17.321  0.00  0.00    +0.000 A 
ATOM      3  C   UNL     1       4.457   6.898  17.244  0.00  0.00    +0.000 A 
ATOM      4  C   UNL     1       4.761   6.023  18.281  0.00  0.00    +0.000 A 
ATOM      5  C   UNL     1       3.903   5.904  19.379  0.00  0.00    +0.000 A 
ATOM      6  C   UNL     1       2.747   6.700  19.448  0.00  0.00    +0.000 A 
ENDROOT
BRANCH   1   9
ATOM      7  C   UNL     1       1.206   9.736  18.316  0.00  0.00    +0.000 C 
ATOM      8  O   UNL     1       2.157  10.448  18.003  0.00  0.00    +0.000 OA
ATOM      9  N   UNL     1       1.249   8.362  18.501  0.00  0.00    +0.000 N 
ATOM     10  H   UNL     1       0.372   7.863  18.553  0.00  0.00    +0.000 HD
BRANCH   7  14
ATOM     11  C   UNL     1      -2.569  11.676  18.938  0.00  0.00    +0.000 A 
ATOM     12  C   UNL     1      -1.449  11.954  19.721  0.00  0.00    +0.000 A 
ATOM     13  C   UNL     1      -0.234  11.329  19.462  0.00  0.00    +0.000 A 
ATOM     14  C   UNL     1      -0.110  10.411  18.415  0.00  0.00    +0.000 A 
ATOM     15  C   UNL     1      -1.220  10.121  17.619  0.00  0.00    +0.000 A 
ATOM     16  C   UNL     1      -2.450  10.755  17.888  0.00  0.00    +0.000 A 
BRANCH  11  17
ATOM     17  O   UNL     1      -3.808  12.243  19.137  0.00  0.00    +0.000 OA
BRANCH  17  18
ATOM     18  C   UNL     1      -4.875  11.600  18.425  0.00  0.00    +0.000 C 
BRANCH  18  20
ATOM     19  C   UNL     1      -7.279  12.186  18.069  0.00  0.00    +0.000 C 
ATOM     20  C   UNL     1      -5.837  12.620  17.833  0.00  0.00    +0.000 C 
ENDBRANCH  18  20
ENDBRANCH  17  18
ENDBRANCH  11  17
ENDBRANCH   7  14
ENDBRANCH   1   9
BRANCH   4  21
ATOM     21  S   UNL     1       6.205   5.017  18.124  0.00  0.00    +0.000 S 
ATOM     22  O   UNL     1       7.070   5.636  17.134  0.00  0.00    +0.000 OA
ATOM     23  O   UNL     1       6.715   4.701  19.439  0.00  0.00    +0.000 OA
BRANCH  21  24
ATOM     24  N   UNL     1       5.617   3.614  17.375  0.00  0.00    +0.000 N 
ATOM     25  H   UNL     1       6.233   2.856  17.659  0.00  0.00    +0.000 HD
BRANCH  24  26
ATOM     26  C   UNL     1       4.231   3.393  17.589  0.00  0.00    +0.000 A 
ATOM     27  O   UNL     1       3.257   3.771  16.723  0.00  0.00    +0.000 OA
ATOM     28  N   UNL     1       2.033   3.302  17.166  0.00  0.00    +0.000 NA
ATOM     29  C   UNL     1       2.284   2.670  18.318  0.00  0.00    +0.000 A 
ATOM     30  C   UNL     1       1.177   2.046  19.083  0.00  0.00    +0.000 C 
ATOM     31  C   UNL     1       3.667   2.711  18.646  0.00  0.00    +0.000 A 
ATOM     32  C   UNL     1       4.335   2.202  19.864  0.00  0.00    +0.000 C 
ENDBRANCH  24  26
ENDBRANCH  21  24
ENDBRANCH   4  21
TORSDOF 8
ENDMDL
MODEL 9
REMARK VINA RESULT:      -8.0      3.435     11.212
REMARK  Name = 
REMARK  11 active torsions:
REMARK  status: ('A' for Active; 'I' for Inactive)
REMARK    1  A    between atoms: C_1  and  C_2
REMARK    2  A    between atoms: C_2  and  C_3
REMARK    3  A    between atoms: C_3  and  O_4
REMARK    4  A    between atoms: O_4  and  C_5
REMARK    5  A    between atoms: C_8  and  C_9
REMARK    6  A    between atoms: N_11  and  C_12
REMARK    7  A    between atoms: C_15  and  S_16
REMARK    8  A    between atoms: S_16  and  N_19
REMARK    9  A    between atoms: N_19  and  C_20
REMARK   10  A    between atoms: C_23  and  C_24
REMARK   11  A    between atoms: C_25  and  C_26
REMARK                            x       y       z     vdW  Elec       q    Type
REMARK                         _______ _______ _______ _____ _____    ______ ____
ROOT
ATOM      1  C   UNL     1       1.038   8.757  20.558  0.00  0.00    +0.000 A 
ATOM      2  C   UNL     1       0.323   9.731  19.851  0.00  0.00    +0.000 A 
ATOM      3  C   UNL     1      -0.407  10.716  20.510  0.00  0.00    +0.000 A 
ATOM      4  C   UNL     1      -0.449  10.724  21.900  0.00  0.00    +0.000 A 
ATOM      5  C   UNL     1       0.261   9.769  22.633  0.00  0.00    +0.000 A 
ATOM      6  C   UNL     1       0.994   8.777  21.959  0.00  0.00    +0.000 A 
ENDROOT
BRANCH   1   9
ATOM      7  C   UNL     1       2.307   7.882  18.622  0.00  0.00    +0.000 C 
ATOM      8  O   UNL     1       2.206   8.875  17.905  0.00  0.00    +0.000 OA
ATOM      9  N   UNL     1       1.805   7.756  19.909  0.00  0.00    +0.000 N 
ATOM     10  H   UNL     1       2.127   6.979  20.469  0.00  0.00    +0.000 HD
BRANCH   7  14
ATOM     11  C   UNL     1       4.707   4.843  16.776  0.00  0.00    +0.000 A 
ATOM     12  C   UNL     1       5.037   6.196  16.712  0.00  0.00    +0.000 A 
ATOM     13  C   UNL     1       4.251   7.145  17.356  0.00  0.00    +0.000 A 
ATOM     14  C   UNL     1       3.116   6.765  18.079  0.00  0.00    +0.000 A 
ATOM     15  C   UNL     1       2.770   5.415  18.155  0.00  0.00    +0.000 A 
ATOM     16  C   UNL     1       3.568   4.456  17.498  0.00  0.00    +0.000 A 
BRANCH  11  17
ATOM     17  O   UNL     1       5.426   3.845  16.157  0.00  0.00    +0.000 OA
BRANCH  17  18
ATOM     18  C   UNL     1       6.201   4.284  15.033  0.00  0.00    +0.000 C 
BRANCH  18  20
ATOM     19  C   UNL     1       6.221   3.480  12.665  0.00  0.00    +0.000 C 
ATOM     20  C   UNL     1       5.403   4.187  13.740  0.00  0.00    +0.000 C 
ENDBRANCH  18  20
ENDBRANCH  17  18
ENDBRANCH  11  17
ENDBRANCH   7  14
ENDBRANCH   1   9
BRANCH   4  21
ATOM     21  S   UNL     1      -1.352  12.017  22.698  0.00  0.00    +0.000 S 
ATOM     22  O   UNL     1      -2.319  11.398  23.588  0.00  0.00    +0.000 OA
ATOM     23  O   UNL     1      -0.426  13.006  23.203  0.00  0.00    +0.000 OA
BRANCH  21  24
ATOM     24  N   UNL     1      -2.276  12.674  21.437  0.00  0.00    +0.000 N 
ATOM     25  H   UNL     1      -2.143  12.062  20.634  0.00  0.00    +0.000 HD
BRANCH  24  26
ATOM     26  C   UNL     1      -3.624  12.933  21.795  0.00  0.00    +0.000 A 
ATOM     27  O   UNL     1      -4.654  12.082  21.551  0.00  0.00    +0.000 OA
ATOM     28  N   UNL     1      -5.810  12.573  22.131  0.00  0.00    +0.000 NA
ATOM     29  C   UNL     1      -5.466  13.738  22.693  0.00  0.00    +0.000 A 
ATOM     30  C   UNL     1      -6.482  14.552  23.404  0.00  0.00    +0.000 C 
ATOM     31  C   UNL     1      -4.088  14.027  22.495  0.00  0.00    +0.000 A 
ATOM     32  C   UNL     1      -3.341  15.241  22.890  0.00  0.00    +0.000 C 
ENDBRANCH  24  26
ENDBRANCH  21  24
ENDBRANCH   4  21
TORSDOF 8
ENDMDL
