MODEL 1
REMARK VINA RESULT:      -7.3      0.000      0.000
REMARK  Name = 
REMARK  7 active torsions:
REMARK  status: ('A' for Active; 'I' for Inactive)
REMARK    1  A    between atoms: C_1  and  C_2
REMARK    2  A    between atoms: C_6  and  C_7
REMARK    3  A    between atoms: C_8  and  C_9
REMARK    4  A    between atoms: C_9  and  O_10
REMARK    5  A    between atoms: C_9  and  C_11
REMARK    6  A    between atoms: C_13  and  C_14
REMARK    7  A    between atoms: C_19  and  C_20
REMARK                            x       y       z     vdW  Elec       q    Type
REMARK                         _______ _______ _______ _____ _____    ______ ____
ROOT
ATOM      1  C   UNL     1       1.783   8.971  18.293  0.00  0.00    +0.000 A 
ATOM      2  N   UNL     1       2.646   8.187  17.669  0.00  0.00    +0.000 NA
ATOM      3  C   UNL     1       2.839   7.100  18.482  0.00  0.00    +0.000 A 
ATOM      4  C   UNL     1       2.163   7.273  19.669  0.00  0.00    +0.000 A 
ATOM      5  N   UNL     1       1.618   8.520  19.578  0.00  0.00    +0.000 N 
ATOM      6  H   UNL     1       1.131   9.013  20.309  0.00  0.00    +0.000 HD
ENDROOT
BRANCH   3   7
ATOM      7  C   UNL     1       3.648   5.946  18.134  0.00  0.00    +0.000 A 
ATOM      8  C   UNL     1       5.043   6.134  17.974  0.00  0.00    +0.000 A 
ATOM      9  C   UNL     1       5.896   5.079  17.637  0.00  0.00    +0.000 A 
ATOM     10  C   UNL     1       5.362   3.815  17.432  0.00  0.00    +0.000 A 
ATOM     11  C   UNL     1       3.990   3.612  17.577  0.00  0.00    +0.000 A 
ATOM     12  C   UNL     1       3.110   4.659  17.947  0.00  0.00    +0.000 A 
BRANCH  12  13
ATOM     13  C   UNL     1       1.652   4.269  18.092  0.00  0.00    +0.000 C 
ATOM     14  F   UNL     1       1.046   4.414  19.295  0.00  0.00    +0.000 F 
ATOM     15  F   UNL     1       0.860   4.904  17.179  0.00  0.00    +0.000 F 
ATOM     16  F   UNL     1       1.491   2.933  17.816  0.00  0.00    +0.000 F 
ENDBRANCH  12  13
ENDBRANCH   3   7
BRANCH   1  17
ATOM     17  C   UNL     1       1.129  10.221  17.772  0.00  0.00    +0.000 C 
BRANCH  17  25
ATOM     18  C   UNL     1       1.733  11.964  20.309  0.00  0.00    +0.000 C 
ATOM     19  C   UNL     1       0.348  11.662  19.799  0.00  0.00    +0.000 A 
ATOM     20  C   UNL     1      -0.696  12.213  20.574  0.00  0.00    +0.000 A 
ATOM     21  C   UNL     1      -2.026  12.027  20.237  0.00  0.00    +0.000 A 
ATOM     22  C   UNL     1      -2.340  11.275  19.116  0.00  0.00    +0.000 A 
ATOM     23  C   UNL     1      -1.337  10.679  18.331  0.00  0.00    +0.000 A 
ATOM     24  C   UNL     1      -1.799   9.873  17.142  0.00  0.00    +0.000 C 
ATOM     25  C   UNL     1       0.048  10.852  18.663  0.00  0.00    +0.000 A 
ENDBRANCH  17  25
BRANCH  17  26
ATOM     26  O   UNL     1       2.169  11.168  17.501  0.00  0.00    +0.000 OA
ATOM     27  H   UNL     1       2.732  10.751  16.827  0.00  0.00    +0.000 HD
ENDBRANCH  17  26
ENDBRANCH   1  17
TORSDOF 5
ENDMDL
MODEL 2
REMARK VINA RESULT:      -7.3      2.854      7.248
REMARK  Name = 
REMARK  7 active torsions:
REMARK  status: ('A' for Active; 'I' for Inactive)
REMARK    1  A    between atoms: C_1  and  C_2
REMARK    2  A    between atoms: C_6  and  C_7
REMARK    3  A    between atoms: C_8  and  C_9
REMARK    4  A    between atoms: C_9  and  O_10
REMARK    5  A    between atoms: C_9  and  C_11
REMARK    6  A    between atoms: C_13  and  C_14
REMARK    7  A    between atoms: C_19  and  C_20
REMARK                            x       y       z     vdW  Elec       q    Type
REMARK                         _______ _______ _______ _____ _____    ______ ____
ROOT
ATOM      1  C   UNL     1       3.858   5.176  19.565  0.00  0.00    +0.000 A 
ATOM      2  N   UNL     1       3.533   6.457  19.504  0.00  0.00    +0.000 NA
ATOM      3  C   UNL     1       2.333   6.582  20.157  0.00  0.00    +0.000 A 
ATOM      4  C   UNL     1       1.868   5.341  20.532  0.00  0.00    +0.000 A 
ATOM      5  N   UNL     1       2.780   4.463  20.025  0.00  0.00    +0.000 N 
ATOM      6  H   UNL     1       2.707   3.459  20.032  0.00  0.00    +0.000 HD
ENDROOT
BRANCH   3   7
ATOM      7  C   UNL     1       1.659   7.845  20.403  0.00  0.00    +0.000 A 
ATOM      8  C   UNL     1       1.141   8.081  21.700  0.00  0.00    +0.000 A 
ATOM      9  C   UNL     1       0.476   9.268  22.024  0.00  0.00    +0.000 A 
ATOM     10  C   UNL     1       0.299  10.234  21.044  0.00  0.00    +0.000 A 
ATOM     11  C   UNL     1       0.795  10.015  19.760  0.00  0.00    +0.000 A 
ATOM     12  C   UNL     1       1.498   8.834  19.416  0.00  0.00    +0.000 A 
BRANCH  12  13
ATOM     13  C   UNL     1       1.999   8.762  17.987  0.00  0.00    +0.000 C 
ATOM     14  F   UNL     1       3.333   8.704  17.756  0.00  0.00    +0.000 F 
ATOM     15  F   UNL     1       1.440   7.722  17.301  0.00  0.00    +0.000 F 
ATOM     16  F   UNL     1       1.607   9.880  17.292  0.00  0.00    +0.000 F 
ENDBRANCH  12  13
ENDBRANCH   3   7
BRANCH   1  17
ATOM     17  C   UNL     1       5.142   4.531  19.125  0.00  0.00    +0.000 C 
BRANCH  17  25
ATOM     18  C   UNL     1       7.397   6.463  18.113  0.00  0.00    +0.000 C 
ATOM     19  C   UNL     1       6.574   5.577  17.214  0.00  0.00    +0.000 A 
ATOM     20  C   UNL     1       6.878   5.690  15.839  0.00  0.00    +0.000 A 
ATOM     21  C   UNL     1       6.212   4.941  14.884  0.00  0.00    +0.000 A 
ATOM     22  C   UNL     1       5.217   4.064  15.287  0.00  0.00    +0.000 A 
ATOM     23  C   UNL     1       4.857   3.939  16.641  0.00  0.00    +0.000 A 
ATOM     24  C   UNL     1       3.751   2.962  16.958  0.00  0.00    +0.000 C 
ATOM     25  C   UNL     1       5.528   4.708  17.649  0.00  0.00    +0.000 A 
ENDBRANCH  17  25
BRANCH  17  26
ATOM     26  O   UNL     1       6.184   5.022  19.976  0.00  0.00    +0.000 OA
ATOM     27  H   UNL     1       6.826   4.297  20.050  0.00  0.00    +0.000 HD
ENDBRANCH  17  26
ENDBRANCH   1  17
TORSDOF 5
ENDMDL
MODEL 3
REMARK VINA RESULT:      -7.3      1.873      2.399
REMARK  Name = 
REMARK  7 active torsions:
REMARK  status: ('A' for Active; 'I' for Inactive)
REMARK    1  A    between atoms: C_1  and  C_2
REMARK    2  A    between atoms: C_6  and  C_7
REMARK    3  A    between atoms: C_8  and  C_9
REMARK    4  A    between atoms: C_9  and  O_10
REMARK    5  A    between atoms: C_9  and  C_11
REMARK    6  A    between atoms: C_13  and  C_14
REMARK    7  A    between atoms: C_19  and  C_20
REMARK                            x       y       z     vdW  Elec       q    Type
REMARK                         _______ _______ _______ _____ _____    ______ ____
ROOT
ATOM      1  C   UNL     1       1.667   9.007  18.343  0.00  0.00    +0.000 A 
ATOM      2  N   UNL     1       2.088   7.997  17.600  0.00  0.00    +0.000 NA
ATOM      3  C   UNL     1       2.297   6.948  18.458  0.00  0.00    +0.000 A 
ATOM      4  C   UNL     1       2.100   7.354  19.758  0.00  0.00    +0.000 A 
ATOM      5  N   UNL     1       1.838   8.689  19.667  0.00  0.00    +0.000 N 
ATOM      6  H   UNL     1       1.735   9.330  20.436  0.00  0.00    +0.000 HD
ENDROOT
BRANCH   3   7
ATOM      7  C   UNL     1       2.679   5.609  18.041  0.00  0.00    +0.000 A 
ATOM      8  C   UNL     1       1.789   4.544  18.326  0.00  0.00    +0.000 A 
ATOM      9  C   UNL     1       2.078   3.225  17.963  0.00  0.00    +0.000 A 
ATOM     10  C   UNL     1       3.277   2.945  17.325  0.00  0.00    +0.000 A 
ATOM     11  C   UNL     1       4.169   3.980  17.043  0.00  0.00    +0.000 A 
ATOM     12  C   UNL     1       3.885   5.328  17.374  0.00  0.00    +0.000 A 
BRANCH  12  13
ATOM     13  C   UNL     1       4.943   6.337  16.974  0.00  0.00    +0.000 C 
ATOM     14  F   UNL     1       5.282   7.320  17.843  0.00  0.00    +0.000 F 
ATOM     15  F   UNL     1       6.109   5.733  16.597  0.00  0.00    +0.000 F 
ATOM     16  F   UNL     1       4.540   7.028  15.858  0.00  0.00    +0.000 F 
ENDBRANCH  12  13
ENDBRANCH   3   7
BRANCH   1  17
ATOM     17  C   UNL     1       1.165  10.346  17.878  0.00  0.00    +0.000 C 
BRANCH  17  25
ATOM     18  C   UNL     1       1.582  12.142  20.417  0.00  0.00    +0.000 C 
ATOM     19  C   UNL     1       0.236  11.803  19.831  0.00  0.00    +0.000 A 
ATOM     20  C   UNL     1      -0.864  12.345  20.533  0.00  0.00    +0.000 A 
ATOM     21  C   UNL     1      -2.167  12.126  20.121  0.00  0.00    +0.000 A 
ATOM     22  C   UNL     1      -2.399  11.350  18.997  0.00  0.00    +0.000 A 
ATOM     23  C   UNL     1      -1.339  10.762  18.283  0.00  0.00    +0.000 A 
ATOM     24  C   UNL     1      -1.714   9.927  17.083  0.00  0.00    +0.000 C 
ATOM     25  C   UNL     1       0.020  10.968  18.693  0.00  0.00    +0.000 A 
ENDBRANCH  17  25
BRANCH  17  26
ATOM     26  O   UNL     1       2.287  11.234  17.834  0.00  0.00    +0.000 OA
ATOM     27  H   UNL     1       2.439  11.508  18.754  0.00  0.00    +0.000 HD
ENDBRANCH  17  26
ENDBRANCH   1  17
TORSDOF 5
ENDMDL
MODEL 4
REMARK VINA RESULT:      -7.2      2.647      7.221
REMARK  Name = 
REMARK  7 active torsions:
REMARK  status: ('A' for Active; 'I' for Inactive)
REMARK    1  A    between atoms: C_1  and  C_2
REMARK    2  A    between atoms: C_6  and  C_7
REMARK    3  A    between atoms: C_8  and  C_9
REMARK    4  A    between atoms: C_9  and  O_10
REMARK    5  A    between atoms: C_9  and  C_11
REMARK    6  A    between atoms: C_13  and  C_14
REMARK    7  A    between atoms: C_19  and  C_20
REMARK                            x       y       z     vdW  Elec       q    Type
REMARK                         _______ _______ _______ _____ _____    ______ ____
ROOT
ATOM      1  C   UNL     1       2.898   6.897  19.161  0.00  0.00    +0.000 A 
ATOM      2  N   UNL     1       2.230   7.760  19.909  0.00  0.00    +0.000 NA
ATOM      3  C   UNL     1       1.693   8.682  19.047  0.00  0.00    +0.000 A 
ATOM      4  C   UNL     1       2.127   8.438  17.764  0.00  0.00    +0.000 A 
ATOM      5  N   UNL     1       2.994   7.392  17.885  0.00  0.00    +0.000 N 
ATOM      6  H   UNL     1       3.570   7.008  17.154  0.00  0.00    +0.000 HD
ENDROOT
BRANCH   3   7
ATOM      7  C   UNL     1       0.805   9.760  19.446  0.00  0.00    +0.000 A 
ATOM      8  C   UNL     1       0.674  10.871  18.578  0.00  0.00    +0.000 A 
ATOM      9  C   UNL     1      -0.157  11.953  18.884  0.00  0.00    +0.000 A 
ATOM     10  C   UNL     1      -0.859  11.950  20.080  0.00  0.00    +0.000 A 
ATOM     11  C   UNL     1      -0.738  10.868  20.951  0.00  0.00    +0.000 A 
ATOM     12  C   UNL     1       0.075   9.747  20.649  0.00  0.00    +0.000 A 
BRANCH  12  13
ATOM     13  C   UNL     1       0.076   8.641  21.685  0.00  0.00    +0.000 C 
ATOM     14  F   UNL     1      -0.212   7.374  21.300  0.00  0.00    +0.000 F 
ATOM     15  F   UNL     1       1.258   8.581  22.367  0.00  0.00    +0.000 F 
ATOM     16  F   UNL     1      -0.864   8.898  22.652  0.00  0.00    +0.000 F 
ENDBRANCH  12  13
ENDBRANCH   3   7
BRANCH   1  17
ATOM     17  C   UNL     1       3.555   5.617  19.597  0.00  0.00    +0.000 C 
BRANCH  17  25
ATOM     18  C   UNL     1       4.219   4.339  16.810  0.00  0.00    +0.000 C 
ATOM     19  C   UNL     1       3.267   3.739  17.811  0.00  0.00    +0.000 A 
ATOM     20  C   UNL     1       2.656   2.536  17.393  0.00  0.00    +0.000 A 
ATOM     21  C   UNL     1       1.757   1.860  18.201  0.00  0.00    +0.000 A 
ATOM     22  C   UNL     1       1.444   2.380  19.446  0.00  0.00    +0.000 A 
ATOM     23  C   UNL     1       2.002   3.591  19.894  0.00  0.00    +0.000 A 
ATOM     24  C   UNL     1       1.577   4.066  21.262  0.00  0.00    +0.000 C 
ATOM     25  C   UNL     1       2.931   4.314  19.074  0.00  0.00    +0.000 A 
ENDBRANCH  17  25
BRANCH  17  26
ATOM     26  O   UNL     1       4.936   5.694  19.224  0.00  0.00    +0.000 OA
ATOM     27  H   UNL     1       5.165   4.812  18.888  0.00  0.00    +0.000 HD
ENDBRANCH  17  26
ENDBRANCH   1  17
TORSDOF 5
ENDMDL
MODEL 5
REMARK VINA RESULT:      -7.1      1.365      2.152
REMARK  Name = 
REMARK  7 active torsions:
REMARK  status: ('A' for Active; 'I' for Inactive)
REMARK    1  A    between atoms: C_1  and  C_2
REMARK    2  A    between atoms: C_6  and  C_7
REMARK    3  A    between atoms: C_8  and  C_9
REMARK    4  A    between atoms: C_9  and  O_10
REMARK    5  A    between atoms: C_9  and  C_11
REMARK    6  A    between atoms: C_13  and  C_14
REMARK    7  A    between atoms: C_19  and  C_20
REMARK                            x       y       z     vdW  Elec       q    Type
REMARK                         _______ _______ _______ _____ _____    ______ ____
ROOT
ATOM      1  C   UNL     1       1.416   8.780  18.999  0.00  0.00    +0.000 A 
ATOM      2  N   UNL     1       2.204   8.326  18.038  0.00  0.00    +0.000 NA
ATOM      3  C   UNL     1       2.812   7.202  18.538  0.00  0.00    +0.000 A 
ATOM      4  C   UNL     1       2.469   7.028  19.860  0.00  0.00    +0.000 A 
ATOM      5  N   UNL     1       1.699   8.112  20.163  0.00  0.00    +0.000 N 
ATOM      6  H   UNL     1       1.349   8.358  21.074  0.00  0.00    +0.000 HD
ENDROOT
BRANCH   3   7
ATOM      7  C   UNL     1       3.693   6.337  17.774  0.00  0.00    +0.000 A 
ATOM      8  C   UNL     1       4.926   6.872  17.325  0.00  0.00    +0.000 A 
ATOM      9  C   UNL     1       5.833   6.110  16.582  0.00  0.00    +0.000 A 
ATOM     10  C   UNL     1       5.512   4.801  16.257  0.00  0.00    +0.000 A 
ATOM     11  C   UNL     1       4.300   4.259  16.684  0.00  0.00    +0.000 A 
ATOM     12  C   UNL     1       3.378   5.002  17.463  0.00  0.00    +0.000 A 
BRANCH  12  13
ATOM     13  C   UNL     1       2.121   4.260  17.872  0.00  0.00    +0.000 C 
ATOM     14  F   UNL     1       1.937   2.986  17.449  0.00  0.00    +0.000 F 
ATOM     15  F   UNL     1       1.954   4.247  19.228  0.00  0.00    +0.000 F 
ATOM     16  F   UNL     1       1.010   4.914  17.398  0.00  0.00    +0.000 F 
ENDBRANCH  12  13
ENDBRANCH   3   7
BRANCH   1  17
ATOM     17  C   UNL     1       0.424   9.907  18.919  0.00  0.00    +0.000 C 
BRANCH  17  25
ATOM     18  C   UNL     1       2.561  11.908  17.792  0.00  0.00    +0.000 C 
ATOM     19  C   UNL     1       1.782  12.128  19.062  0.00  0.00    +0.000 A 
ATOM     20  C   UNL     1       2.101  13.322  19.748  0.00  0.00    +0.000 A 
ATOM     21  C   UNL     1       1.472  13.670  20.931  0.00  0.00    +0.000 A 
ATOM     22  C   UNL     1       0.512  12.822  21.460  0.00  0.00    +0.000 A 
ATOM     23  C   UNL     1       0.182  11.608  20.831  0.00  0.00    +0.000 A 
ATOM     24  C   UNL     1      -0.870  10.761  21.506  0.00  0.00    +0.000 C 
ATOM     25  C   UNL     1       0.824  11.221  19.608  0.00  0.00    +0.000 A 
ENDBRANCH  17  25
BRANCH  17  26
ATOM     26  O   UNL     1       0.141  10.134  17.534  0.00  0.00    +0.000 OA
ATOM     27  H   UNL     1      -0.136  11.064  17.473  0.00  0.00    +0.000 HD
ENDBRANCH  17  26
ENDBRANCH   1  17
TORSDOF 5
ENDMDL
MODEL 6
REMARK VINA RESULT:      -7.1      1.316      2.036
REMARK  Name = 
REMARK  7 active torsions:
REMARK  status: ('A' for Active; 'I' for Inactive)
REMARK    1  A    between atoms: C_1  and  C_2
REMARK    2  A    between atoms: C_6  and  C_7
REMARK    3  A    between atoms: C_8  and  C_9
REMARK    4  A    between atoms: C_9  and  O_10
REMARK    5  A    between atoms: C_9  and  C_11
REMARK    6  A    between atoms: C_13  and  C_14
REMARK    7  A    between atoms: C_19  and  C_20
REMARK                            x       y       z     vdW  Elec       q    Type
REMARK                         _______ _______ _______ _____ _____    ______ ____
ROOT
ATOM      1  C   UNL     1       1.343   8.772  19.028  0.00  0.00    +0.000 A 
ATOM      2  N   UNL     1       2.100   8.261  18.070  0.00  0.00    +0.000 NA
ATOM      3  C   UNL     1       2.724   7.168  18.615  0.00  0.00    +0.000 A 
ATOM      4  C   UNL     1       2.424   7.072  19.955  0.00  0.00    +0.000 A 
ATOM      5  N   UNL     1       1.664   8.172  20.219  0.00  0.00    +0.000 N 
ATOM      6  H   UNL     1       1.344   8.472  21.125  0.00  0.00    +0.000 HD
ENDROOT
BRANCH   3   7
ATOM      7  C   UNL     1       3.582   6.258  17.875  0.00  0.00    +0.000 A 
ATOM      8  C   UNL     1       4.853   6.728  17.464  0.00  0.00    +0.000 A 
ATOM      9  C   UNL     1       5.741   5.921  16.746  0.00  0.00    +0.000 A 
ATOM     10  C   UNL     1       5.361   4.630  16.408  0.00  0.00    +0.000 A 
ATOM     11  C   UNL     1       4.110   4.153  16.798  0.00  0.00    +0.000 A 
ATOM     12  C   UNL     1       3.206   4.942  17.551  0.00  0.00    +0.000 A 
BRANCH  12  13
ATOM     13  C   UNL     1       1.900   4.267  17.922  0.00  0.00    +0.000 C 
ATOM     14  F   UNL     1       1.525   4.221  19.223  0.00  0.00    +0.000 F 
ATOM     15  F   UNL     1       0.842   4.787  17.231  0.00  0.00    +0.000 F 
ATOM     16  F   UNL     1       1.930   2.944  17.555  0.00  0.00    +0.000 F 
ENDBRANCH  12  13
ENDBRANCH   3   7
BRANCH   1  17
ATOM     17  C   UNL     1       0.349   9.894  18.915  0.00  0.00    +0.000 C 
BRANCH  17  25
ATOM     18  C   UNL     1      -0.974  10.828  21.601  0.00  0.00    +0.000 C 
ATOM     19  C   UNL     1       0.104  11.591  20.878  0.00  0.00    +0.000 A 
ATOM     20  C   UNL     1       0.479  12.805  21.496  0.00  0.00    +0.000 A 
ATOM     21  C   UNL     1       1.458  13.622  20.957  0.00  0.00    +0.000 A 
ATOM     22  C   UNL     1       2.079  13.243  19.777  0.00  0.00    +0.000 A 
ATOM     23  C   UNL     1       1.718  12.060  19.108  0.00  0.00    +0.000 A 
ATOM     24  C   UNL     1       2.455  11.757  17.826  0.00  0.00    +0.000 C 
ATOM     25  C   UNL     1       0.703  11.199  19.643  0.00  0.00    +0.000 A 
ENDBRANCH  17  25
BRANCH  17  26
ATOM     26  O   UNL     1       0.137  10.141  17.520  0.00  0.00    +0.000 OA
ATOM     27  H   UNL     1      -0.292  11.012  17.472  0.00  0.00    +0.000 HD
ENDBRANCH  17  26
ENDBRANCH   1  17
TORSDOF 5
ENDMDL
MODEL 7
REMARK VINA RESULT:      -7.0      1.797      2.955
REMARK  Name = 
REMARK  7 active torsions:
REMARK  status: ('A' for Active; 'I' for Inactive)
REMARK    1  A    between atoms: C_1  and  C_2
REMARK    2  A    between atoms: C_6  and  C_7
REMARK    3  A    between atoms: C_8  and  C_9
REMARK    4  A    between atoms: C_9  and  O_10
REMARK    5  A    between atoms: C_9  and  C_11
REMARK    6  A    between atoms: C_13  and  C_14
REMARK    7  A    between atoms: C_19  and  C_20
REMARK                            x       y       z     vdW  Elec       q    Type
REMARK                         _______ _______ _______ _____ _____    ______ ____
ROOT
ATOM      1  C   UNL     1       1.677   8.910  18.344  0.00  0.00    +0.000 A 
ATOM      2  N   UNL     1       2.026   7.859  17.621  0.00  0.00    +0.000 NA
ATOM      3  C   UNL     1       2.221   6.830  18.506  0.00  0.00    +0.000 A 
ATOM      4  C   UNL     1       2.091   7.286  19.798  0.00  0.00    +0.000 A 
ATOM      5  N   UNL     1       1.884   8.628  19.671  0.00  0.00    +0.000 N 
ATOM      6  H   UNL     1       1.838   9.297  20.422  0.00  0.00    +0.000 HD
ENDROOT
BRANCH   3   7
ATOM      7  C   UNL     1       2.529   5.463  18.121  0.00  0.00    +0.000 A 
ATOM      8  C   UNL     1       1.586   4.454  18.438  0.00  0.00    +0.000 A 
ATOM      9  C   UNL     1       1.802   3.113  18.108  0.00  0.00    +0.000 A 
ATOM     10  C   UNL     1       2.980   2.754  17.469  0.00  0.00    +0.000 A 
ATOM     11  C   UNL     1       3.923   3.732  17.155  0.00  0.00    +0.000 A 
ATOM     12  C   UNL     1       3.713   5.102  17.454  0.00  0.00    +0.000 A 
BRANCH  12  13
ATOM     13  C   UNL     1       4.820   6.043  17.021  0.00  0.00    +0.000 C 
ATOM     14  F   UNL     1       4.542   7.025  16.130  0.00  0.00    +0.000 F 
ATOM     15  F   UNL     1       5.424   6.645  18.087  0.00  0.00    +0.000 F 
ATOM     16  F   UNL     1       5.828   5.339  16.410  0.00  0.00    +0.000 F 
ENDBRANCH  12  13
ENDBRANCH   3   7
BRANCH   1  17
ATOM     17  C   UNL     1       1.216  10.255  17.853  0.00  0.00    +0.000 C 
BRANCH  17  25
ATOM     18  C   UNL     1      -1.776   9.849  17.003  0.00  0.00    +0.000 C 
ATOM     19  C   UNL     1      -1.337  10.659  18.194  0.00  0.00    +0.000 A 
ATOM     20  C   UNL     1      -2.391  11.262  18.916  0.00  0.00    +0.000 A 
ATOM     21  C   UNL     1      -2.153  12.037  20.037  0.00  0.00    +0.000 A 
ATOM     22  C   UNL     1      -0.847  12.233  20.458  0.00  0.00    +0.000 A 
ATOM     23  C   UNL     1       0.238  11.680  19.755  0.00  0.00    +0.000 A 
ATOM     24  C   UNL     1       1.616  11.972  20.300  0.00  0.00    +0.000 C 
ATOM     25  C   UNL     1       0.018  10.878  18.586  0.00  0.00    +0.000 A 
ENDBRANCH  17  25
BRANCH  17  26
ATOM     26  O   UNL     1       2.343  11.137  17.896  0.00  0.00    +0.000 OA
ATOM     27  H   UNL     1       1.976  12.033  17.818  0.00  0.00    +0.000 HD
ENDBRANCH  17  26
ENDBRANCH   1  17
TORSDOF 5
ENDMDL
MODEL 8
REMARK VINA RESULT:      -7.0      2.832      7.402
REMARK  Name = 
REMARK  7 active torsions:
REMARK  status: ('A' for Active; 'I' for Inactive)
REMARK    1  A    between atoms: C_1  and  C_2
REMARK    2  A    between atoms: C_6  and  C_7
REMARK    3  A    between atoms: C_8  and  C_9
REMARK    4  A    between atoms: C_9  and  O_10
REMARK    5  A    between atoms: C_9  and  C_11
REMARK    6  A    between atoms: C_13  and  C_14
REMARK    7  A    between atoms: C_19  and  C_20
REMARK                            x       y       z     vdW  Elec       q    Type
REMARK                         _______ _______ _______ _____ _____    ______ ____
ROOT
ATOM      1  C   UNL     1       3.804   5.164  19.600  0.00  0.00    +0.000 A 
ATOM      2  N   UNL     1       3.507   6.452  19.547  0.00  0.00    +0.000 NA
ATOM      3  C   UNL     1       2.306   6.597  20.194  0.00  0.00    +0.000 A 
ATOM      4  C   UNL     1       1.813   5.364  20.557  0.00  0.00    +0.000 A 
ATOM      5  N   UNL     1       2.709   4.470  20.049  0.00  0.00    +0.000 N 
ATOM      6  H   UNL     1       2.615   3.468  20.047  0.00  0.00    +0.000 HD
ENDROOT
BRANCH   3   7
ATOM      7  C   UNL     1       1.658   7.872  20.446  0.00  0.00    +0.000 A 
ATOM      8  C   UNL     1       1.217   8.146  21.764  0.00  0.00    +0.000 A 
ATOM      9  C   UNL     1       0.581   9.347  22.094  0.00  0.00    +0.000 A 
ATOM     10  C   UNL     1       0.356  10.290  21.102  0.00  0.00    +0.000 A 
ATOM     11  C   UNL     1       0.776  10.034  19.797  0.00  0.00    +0.000 A 
ATOM     12  C   UNL     1       1.449   8.838  19.444  0.00  0.00    +0.000 A 
BRANCH  12  13
ATOM     13  C   UNL     1       1.867   8.726  17.992  0.00  0.00    +0.000 C 
ATOM     14  F   UNL     1       1.583   7.591  17.308  0.00  0.00    +0.000 F 
ATOM     15  F   UNL     1       1.388   9.761  17.241  0.00  0.00    +0.000 F 
ATOM     16  F   UNL     1       3.232   8.827  17.883  0.00  0.00    +0.000 F 
ENDBRANCH  12  13
ENDBRANCH   3   7
BRANCH   1  17
ATOM     17  C   UNL     1       5.077   4.494  19.163  0.00  0.00    +0.000 C 
BRANCH  17  25
ATOM     18  C   UNL     1       3.439   3.271  16.784  0.00  0.00    +0.000 C 
ATOM     19  C   UNL     1       4.683   4.103  16.615  0.00  0.00    +0.000 A 
ATOM     20  C   UNL     1       5.091   4.286  15.275  0.00  0.00    +0.000 A 
ATOM     21  C   UNL     1       6.215   5.027  14.953  0.00  0.00    +0.000 A 
ATOM     22  C   UNL     1       6.963   5.597  15.971  0.00  0.00    +0.000 A 
ATOM     23  C   UNL     1       6.615   5.418  17.322  0.00  0.00    +0.000 A 
ATOM     24  C   UNL     1       7.511   6.076  18.343  0.00  0.00    +0.000 C 
ATOM     25  C   UNL     1       5.459   4.649  17.683  0.00  0.00    +0.000 A 
ENDBRANCH  17  25
BRANCH  17  26
ATOM     26  O   UNL     1       6.129   4.981  20.004  0.00  0.00    +0.000 OA
ATOM     27  H   UNL     1       6.878   4.378  19.861  0.00  0.00    +0.000 HD
ENDBRANCH  17  26
ENDBRANCH   1  17
TORSDOF 5
ENDMDL
MODEL 9
REMARK VINA RESULT:      -6.9      0.617      1.861
REMARK  Name = 
REMARK  7 active torsions:
REMARK  status: ('A' for Active; 'I' for Inactive)
REMARK    1  A    between atoms: C_1  and  C_2
REMARK    2  A    between atoms: C_6  and  C_7
REMARK    3  A    between atoms: C_8  and  C_9
REMARK    4  A    between atoms: C_9  and  O_10
REMARK    5  A    between atoms: C_9  and  C_11
REMARK    6  A    between atoms: C_13  and  C_14
REMARK    7  A    between atoms: C_19  and  C_20
REMARK                            x       y       z     vdW  Elec       q    Type
REMARK                         _______ _______ _______ _____ _____    ______ ____
ROOT
ATOM      1  C   UNL     1       1.678   8.824  18.565  0.00  0.00    +0.000 A 
ATOM      2  N   UNL     1       2.590   7.971  18.128  0.00  0.00    +0.000 NA
ATOM      3  C   UNL     1       2.683   6.987  19.079  0.00  0.00    +0.000 A 
ATOM      4  C   UNL     1       1.892   7.299  20.161  0.00  0.00    +0.000 A 
ATOM      5  N   UNL     1       1.377   8.528  19.870  0.00  0.00    +0.000 N 
ATOM      6  H   UNL     1       0.824   9.103  20.484  0.00  0.00    +0.000 HD
ENDROOT
BRANCH   3   7
ATOM      7  C   UNL     1       3.508   5.798  18.952  0.00  0.00    +0.000 A 
ATOM      8  C   UNL     1       4.905   5.933  19.146  0.00  0.00    +0.000 A 
ATOM      9  C   UNL     1       5.773   4.842  19.041  0.00  0.00    +0.000 A 
ATOM     10  C   UNL     1       5.258   3.595  18.718  0.00  0.00    +0.000 A 
ATOM     11  C   UNL     1       3.886   3.444  18.516  0.00  0.00    +0.000 A 
ATOM     12  C   UNL     1       2.983   4.529  18.646  0.00  0.00    +0.000 A 
BRANCH  12  13
ATOM     13  C   UNL     1       1.522   4.194  18.424  0.00  0.00    +0.000 C 
ATOM     14  F   UNL     1       0.651   4.317  19.455  0.00  0.00    +0.000 F 
ATOM     15  F   UNL     1       0.990   4.897  17.380  0.00  0.00    +0.000 F 
ATOM     16  F   UNL     1       1.389   2.879  18.053  0.00  0.00    +0.000 F 
ENDBRANCH  12  13
ENDBRANCH   3   7
BRANCH   1  17
ATOM     17  C   UNL     1       1.099  10.006  17.837  0.00  0.00    +0.000 C 
BRANCH  17  25
ATOM     18  C   UNL     1      -1.934   9.747  17.079  0.00  0.00    +0.000 C 
ATOM     19  C   UNL     1      -1.412  10.606  18.200  0.00  0.00    +0.000 A 
ATOM     20  C   UNL     1      -2.405  11.328  18.898  0.00  0.00    +0.000 A 
ATOM     21  C   UNL     1      -2.088  12.162  19.956  0.00  0.00    +0.000 A 
ATOM     22  C   UNL     1      -0.762  12.298  20.335  0.00  0.00    +0.000 A 
ATOM     23  C   UNL     1       0.266  11.624  19.651  0.00  0.00    +0.000 A 
ATOM     24  C   UNL     1       1.673  11.859  20.146  0.00  0.00    +0.000 C 
ATOM     25  C   UNL     1      -0.036  10.759  18.548  0.00  0.00    +0.000 A 
ENDBRANCH  17  25
BRANCH  17  26
ATOM     26  O   UNL     1       2.179  10.896  17.536  0.00  0.00    +0.000 OA
ATOM     27  H   UNL     1       2.751  10.888  18.322  0.00  0.00    +0.000 HD
ENDBRANCH  17  26
ENDBRANCH   1  17
TORSDOF 5
ENDMDL
