MODEL 1
REMARK VINA RESULT:      -7.6      0.000      0.000
REMARK  Name = 
REMARK  6 active torsions:
REMARK  status: ('A' for Active; 'I' for Inactive)
REMARK    1  A    between atoms: C_1  and  O_2
REMARK    2  A    between atoms: O_2  and  C_3
REMARK    3  A    between atoms: C_6  and  N_7
REMARK    4  A    between atoms: N_7  and  C_8
REMARK    5  A    between atoms: N_14  and  C_15
REMARK    6  A    between atoms: N_23  and  C_24
REMARK                            x       y       z     vdW  Elec       q    Type
REMARK                         _______ _______ _______ _____ _____    ______ ____
ROOT
ATOM      1  C   UNL     1       2.802   6.069  19.518  0.00  0.00    +0.000 A 
ATOM      2  N   UNL     1       3.803   6.024  18.591  0.00  0.00    +0.000 NA
ATOM      3  C   UNL     1       4.068   4.912  17.876  0.00  0.00    +0.000 A 
ATOM      4  N   UNL     1       5.029   4.968  16.888  0.00  0.00    +0.000 N 
ATOM      5  C   UNL     1       5.956   6.101  16.866  0.00  0.00    +0.000 C 
ATOM      6  C   UNL     1       6.531   6.250  15.436  0.00  0.00    +0.000 C 
ATOM      7  N   UNL     1       7.161   5.006  14.929  0.00  0.00    +0.000 NA
ATOM      8  C   UNL     1       7.610   5.186  13.550  0.00  0.00    +0.000 C 
ATOM      9  C   UNL     1       6.186   3.896  15.009  0.00  0.00    +0.000 C 
ATOM     10  C   UNL     1       5.611   3.705  16.429  0.00  0.00    +0.000 C 
ATOM     11  N   UNL     1       3.385   3.768  18.008  0.00  0.00    +0.000 NA
ATOM     12  C   UNL     1       2.413   3.821  18.921  0.00  0.00    +0.000 A 
ATOM     13  C   UNL     1       2.067   4.899  19.707  0.00  0.00    +0.000 A 
ATOM     14  C   UNL     1       0.996   4.421  20.490  0.00  0.00    +0.000 A 
ATOM     15  N   UNL     1       0.679   3.146  20.225  0.00  0.00    +0.000 NA
ATOM     16  N   UNL     1       1.565   2.807  19.260  0.00  0.00    +0.000 N 
ATOM     17  C   UNL     1       1.592   1.478  18.704  0.00  0.00    +0.000 C 
ENDROOT
BRANCH   1  18
ATOM     18  N   UNL     1       2.564   7.253  20.236  0.00  0.00    +0.000 N 
ATOM     19  H   UNL     1       2.631   7.164  21.241  0.00  0.00    +0.000 HD
BRANCH  18  23
ATOM     20  C   UNL     1       0.080  10.451  18.966  0.00  0.00    +0.000 A 
ATOM     21  C   UNL     1       0.851   9.721  18.049  0.00  0.00    +0.000 A 
ATOM     22  C   UNL     1       1.693   8.680  18.469  0.00  0.00    +0.000 A 
ATOM     23  C   UNL     1       1.762   8.338  19.824  0.00  0.00    +0.000 A 
ATOM     24  C   UNL     1       0.991   9.066  20.732  0.00  0.00    +0.000 A 
ATOM     25  C   UNL     1       0.149  10.105  20.320  0.00  0.00    +0.000 A 
ATOM     26 CL   UNL     1      -0.811  10.805  21.576  0.00  0.00    +0.000 Cl
BRANCH  20  28
ATOM     27  C   UNL     1      -2.020  10.989  17.974  0.00  0.00    +0.000 C 
ATOM     28  O   UNL     1      -0.716  11.397  18.376  0.00  0.00    +0.000 OA
ENDBRANCH  20  28
ENDBRANCH  18  23
ENDBRANCH   1  18
TORSDOF 3
ENDMDL
MODEL 2
REMARK VINA RESULT:      -7.2      4.960      9.794
REMARK  Name = 
REMARK  6 active torsions:
REMARK  status: ('A' for Active; 'I' for Inactive)
REMARK    1  A    between atoms: C_1  and  O_2
REMARK    2  A    between atoms: O_2  and  C_3
REMARK    3  A    between atoms: C_6  and  N_7
REMARK    4  A    between atoms: N_7  and  C_8
REMARK    5  A    between atoms: N_14  and  C_15
REMARK    6  A    between atoms: N_23  and  C_24
REMARK                            x       y       z     vdW  Elec       q    Type
REMARK                         _______ _______ _______ _____ _____    ______ ____
ROOT
ATOM      1  C   UNL     1      -0.450  11.047  18.975  0.00  0.00    +0.000 A 
ATOM      2  N   UNL     1      -0.681  11.896  20.019  0.00  0.00    +0.000 NA
ATOM      3  C   UNL     1      -1.898  12.426  20.256  0.00  0.00    +0.000 A 
ATOM      4  N   UNL     1      -2.080  13.198  21.384  0.00  0.00    +0.000 N 
ATOM      5  C   UNL     1      -0.902  13.697  22.098  0.00  0.00    +0.000 C 
ATOM      6  C   UNL     1      -1.304  14.027  23.557  0.00  0.00    +0.000 C 
ATOM      7  N   UNL     1      -2.449  14.966  23.648  0.00  0.00    +0.000 NA
ATOM      8  C   UNL     1      -2.831  15.172  25.044  0.00  0.00    +0.000 C 
ATOM      9  C   UNL     1      -3.592  14.421  22.881  0.00  0.00    +0.000 C 
ATOM     10  C   UNL     1      -3.231  14.104  21.414  0.00  0.00    +0.000 C 
ATOM     11  N   UNL     1      -2.974  12.173  19.502  0.00  0.00    +0.000 NA
ATOM     12  C   UNL     1      -2.736  11.346  18.481  0.00  0.00    +0.000 A 
ATOM     13  C   UNL     1      -1.535  10.759  18.148  0.00  0.00    +0.000 A 
ATOM     14  C   UNL     1      -1.833   9.998  16.998  0.00  0.00    +0.000 A 
ATOM     15  N   UNL     1      -3.118  10.086  16.630  0.00  0.00    +0.000 NA
ATOM     16  N   UNL     1      -3.645  10.919  17.557  0.00  0.00    +0.000 N 
ATOM     17  C   UNL     1      -5.030  11.314  17.506  0.00  0.00    +0.000 C 
ENDROOT
BRANCH   1  18
ATOM     18  N   UNL     1       0.837  10.519  18.772  0.00  0.00    +0.000 N 
ATOM     19  H   UNL     1       1.312  10.860  17.948  0.00  0.00    +0.000 HD
BRANCH  18  23
ATOM     20  C   UNL     1       2.163   6.703  20.069  0.00  0.00    +0.000 A 
ATOM     21  C   UNL     1       1.386   7.523  20.901  0.00  0.00    +0.000 A 
ATOM     22  C   UNL     1       0.968   8.797  20.484  0.00  0.00    +0.000 A 
ATOM     23  C   UNL     1       1.308   9.264  19.211  0.00  0.00    +0.000 A 
ATOM     24  C   UNL     1       2.080   8.443  18.387  0.00  0.00    +0.000 A 
ATOM     25  C   UNL     1       2.500   7.172  18.795  0.00  0.00    +0.000 A 
ATOM     26 CL   UNL     1       3.344   6.263  17.591  0.00  0.00    +0.000 Cl
BRANCH  20  28
ATOM     27  C   UNL     1       1.399   4.508  20.601  0.00  0.00    +0.000 C 
ATOM     28  O   UNL     1       2.441   5.479  20.620  0.00  0.00    +0.000 OA
ENDBRANCH  20  28
ENDBRANCH  18  23
ENDBRANCH   1  18
TORSDOF 3
ENDMDL
MODEL 3
REMARK VINA RESULT:      -7.0      4.782      9.714
REMARK  Name = 
REMARK  6 active torsions:
REMARK  status: ('A' for Active; 'I' for Inactive)
REMARK    1  A    between atoms: C_1  and  O_2
REMARK    2  A    between atoms: O_2  and  C_3
REMARK    3  A    between atoms: C_6  and  N_7
REMARK    4  A    between atoms: N_7  and  C_8
REMARK    5  A    between atoms: N_14  and  C_15
REMARK    6  A    between atoms: N_23  and  C_24
REMARK                            x       y       z     vdW  Elec       q    Type
REMARK                         _______ _______ _______ _____ _____    ______ ____
ROOT
ATOM      1  C   UNL     1       0.254  11.249  18.823  0.00  0.00    +0.000 A 
ATOM      2  N   UNL     1      -1.094  11.240  18.603  0.00  0.00    +0.000 NA
ATOM      3  C   UNL     1      -1.936  12.048  19.277  0.00  0.00    +0.000 A 
ATOM      4  N   UNL     1      -3.271  12.054  18.933  0.00  0.00    +0.000 N 
ATOM      5  C   UNL     1      -3.794  10.966  18.103  0.00  0.00    +0.000 C 
ATOM      6  C   UNL     1      -5.090  11.448  17.405  0.00  0.00    +0.000 C 
ATOM      7  N   UNL     1      -6.107  11.960  18.355  0.00  0.00    +0.000 NA
ATOM      8  C   UNL     1      -7.269  12.473  17.631  0.00  0.00    +0.000 C 
ATOM      9  C   UNL     1      -5.508  13.031  19.184  0.00  0.00    +0.000 C 
ATOM     10  C   UNL     1      -4.227  12.576  19.913  0.00  0.00    +0.000 C 
ATOM     11  N   UNL     1      -1.535  12.920  20.210  0.00  0.00    +0.000 NA
ATOM     12  C   UNL     1      -0.217  12.917  20.422  0.00  0.00    +0.000 A 
ATOM     13  C   UNL     1       0.725  12.130  19.796  0.00  0.00    +0.000 A 
ATOM     14  C   UNL     1       1.944  12.518  20.390  0.00  0.00    +0.000 A 
ATOM     15  N   UNL     1       1.796  13.477  21.314  0.00  0.00    +0.000 NA
ATOM     16  N   UNL     1       0.462  13.699  21.311  0.00  0.00    +0.000 N 
ATOM     17  C   UNL     1      -0.139  14.656  22.206  0.00  0.00    +0.000 C 
ENDROOT
BRANCH   1  18
ATOM     18  N   UNL     1       1.090  10.388  18.092  0.00  0.00    +0.000 N 
ATOM     19  H   UNL     1       0.960  10.416  17.090  0.00  0.00    +0.000 HD
BRANCH  18  23
ATOM     20  C   UNL     1       2.706   6.703  19.439  0.00  0.00    +0.000 A 
ATOM     21  C   UNL     1       1.827   7.447  20.241  0.00  0.00    +0.000 A 
ATOM     22  C   UNL     1       1.312   8.679  19.808  0.00  0.00    +0.000 A 
ATOM     23  C   UNL     1       1.656   9.180  18.548  0.00  0.00    +0.000 A 
ATOM     24  C   UNL     1       2.529   8.433  17.754  0.00  0.00    +0.000 A 
ATOM     25  C   UNL     1       3.046   7.204  18.178  0.00  0.00    +0.000 A 
ATOM     26 CL   UNL     1       4.013   6.378  17.006  0.00  0.00    +0.000 Cl
BRANCH  20  28
ATOM     27  C   UNL     1       2.106   4.851  20.815  0.00  0.00    +0.000 C 
ATOM     28  O   UNL     1       3.072   5.507  19.999  0.00  0.00    +0.000 OA
ENDBRANCH  20  28
ENDBRANCH  18  23
ENDBRANCH   1  18
TORSDOF 3
ENDMDL
MODEL 4
REMARK VINA RESULT:      -7.0      3.905      7.412
REMARK  Name = 
REMARK  6 active torsions:
REMARK  status: ('A' for Active; 'I' for Inactive)
REMARK    1  A    between atoms: C_1  and  O_2
REMARK    2  A    between atoms: O_2  and  C_3
REMARK    3  A    between atoms: C_6  and  N_7
REMARK    4  A    between atoms: N_7  and  C_8
REMARK    5  A    between atoms: N_14  and  C_15
REMARK    6  A    between atoms: N_23  and  C_24
REMARK                            x       y       z     vdW  Elec       q    Type
REMARK                         _______ _______ _______ _____ _____    ______ ____
ROOT
ATOM      1  C   UNL     1       4.753   5.763  18.132  0.00  0.00    +0.000 A 
ATOM      2  N   UNL     1       4.000   6.900  18.082  0.00  0.00    +0.000 NA
ATOM      3  C   UNL     1       2.868   7.042  18.800  0.00  0.00    +0.000 A 
ATOM      4  N   UNL     1       2.211   8.254  18.776  0.00  0.00    +0.000 N 
ATOM      5  C   UNL     1       2.554   9.224  17.734  0.00  0.00    +0.000 C 
ATOM      6  C   UNL     1       2.143  10.639  18.212  0.00  0.00    +0.000 C 
ATOM      7  N   UNL     1       0.715  10.728  18.607  0.00  0.00    +0.000 NA
ATOM      8  C   UNL     1       0.410  12.061  19.124  0.00  0.00    +0.000 C 
ATOM      9  C   UNL     1       0.427   9.703  19.635  0.00  0.00    +0.000 C 
ATOM     10  C   UNL     1       0.803   8.277  19.180  0.00  0.00    +0.000 C 
ATOM     11  N   UNL     1       2.386   6.095  19.614  0.00  0.00    +0.000 NA
ATOM     12  C   UNL     1       3.126   4.985  19.651  0.00  0.00    +0.000 A 
ATOM     13  C   UNL     1       4.289   4.737  18.955  0.00  0.00    +0.000 A 
ATOM     14  C   UNL     1       4.651   3.431  19.347  0.00  0.00    +0.000 A 
ATOM     15  N   UNL     1       3.794   2.891  20.225  0.00  0.00    +0.000 NA
ATOM     16  N   UNL     1       2.872   3.867  20.390  0.00  0.00    +0.000 N 
ATOM     17  C   UNL     1       1.730   3.678  21.249  0.00  0.00    +0.000 C 
ENDROOT
BRANCH   1  18
ATOM     18  N   UNL     1       5.928   5.665  17.366  0.00  0.00    +0.000 N 
ATOM     19  H   UNL     1       6.618   6.381  17.550  0.00  0.00    +0.000 HD
BRANCH  18  23
ATOM     20  C   UNL     1       6.221   3.994  13.478  0.00  0.00    +0.000 A 
ATOM     21  C   UNL     1       5.198   3.610  14.358  0.00  0.00    +0.000 A 
ATOM     22  C   UNL     1       5.114   4.142  15.654  0.00  0.00    +0.000 A 
ATOM     23  C   UNL     1       6.049   5.088  16.085  0.00  0.00    +0.000 A 
ATOM     24  C   UNL     1       7.064   5.467  15.204  0.00  0.00    +0.000 A 
ATOM     25  C   UNL     1       7.154   4.942  13.910  0.00  0.00    +0.000 A 
ATOM     26 CL   UNL     1       8.407   5.624  12.933  0.00  0.00    +0.000 Cl
BRANCH  20  28
ATOM     27  C   UNL     1       4.811   3.136  11.757  0.00  0.00    +0.000 C 
ATOM     28  O   UNL     1       6.122   3.409  12.242  0.00  0.00    +0.000 OA
ENDBRANCH  20  28
ENDBRANCH  18  23
ENDBRANCH   1  18
TORSDOF 3
ENDMDL
MODEL 5
REMARK VINA RESULT:      -6.9      5.101     10.034
REMARK  Name = 
REMARK  6 active torsions:
REMARK  status: ('A' for Active; 'I' for Inactive)
REMARK    1  A    between atoms: C_1  and  O_2
REMARK    2  A    between atoms: O_2  and  C_3
REMARK    3  A    between atoms: C_6  and  N_7
REMARK    4  A    between atoms: N_7  and  C_8
REMARK    5  A    between atoms: N_14  and  C_15
REMARK    6  A    between atoms: N_23  and  C_24
REMARK                            x       y       z     vdW  Elec       q    Type
REMARK                         _______ _______ _______ _____ _____    ______ ____
ROOT
ATOM      1  C   UNL     1      -1.233  11.569  18.509  0.00  0.00    +0.000 A 
ATOM      2  N   UNL     1      -1.356  12.272  19.673  0.00  0.00    +0.000 NA
ATOM      3  C   UNL     1      -2.549  12.715  20.119  0.00  0.00    +0.000 A 
ATOM      4  N   UNL     1      -2.611  13.333  21.350  0.00  0.00    +0.000 N 
ATOM      5  C   UNL     1      -1.369  13.789  21.977  0.00  0.00    +0.000 C 
ATOM      6  C   UNL     1      -1.596  13.918  23.503  0.00  0.00    +0.000 C 
ATOM      7  N   UNL     1      -2.746  14.789  23.850  0.00  0.00    +0.000 NA
ATOM      8  C   UNL     1      -2.958  14.805  25.296  0.00  0.00    +0.000 C 
ATOM      9  C   UNL     1      -3.959  14.295  23.160  0.00  0.00    +0.000 C 
ATOM     10  C   UNL     1      -3.774  14.178  21.633  0.00  0.00    +0.000 C 
ATOM     11  N   UNL     1      -3.702  12.512  19.472  0.00  0.00    +0.000 NA
ATOM     12  C   UNL     1      -3.570  11.829  18.332  0.00  0.00    +0.000 A 
ATOM     13  C   UNL     1      -2.404  11.340  17.786  0.00  0.00    +0.000 A 
ATOM     14  C   UNL     1      -2.821  10.715  16.592  0.00  0.00    +0.000 A 
ATOM     15  N   UNL     1      -4.144  10.793  16.393  0.00  0.00    +0.000 NA
ATOM     16  N   UNL     1      -4.574  11.481  17.476  0.00  0.00    +0.000 N 
ATOM     17  C   UNL     1      -5.965  11.820  17.641  0.00  0.00    +0.000 C 
ENDROOT
BRANCH   1  18
ATOM     18  N   UNL     1       0.032  11.125  18.087  0.00  0.00    +0.000 N 
ATOM     19  H   UNL     1       0.294  11.409  17.153  0.00  0.00    +0.000 HD
BRANCH  18  23
ATOM     20  C   UNL     1       2.150   7.699  19.422  0.00  0.00    +0.000 A 
ATOM     21  C   UNL     1       2.154   8.075  18.070  0.00  0.00    +0.000 A 
ATOM     22  C   UNL     1       1.433   9.193  17.622  0.00  0.00    +0.000 A 
ATOM     23  C   UNL     1       0.707   9.969  18.531  0.00  0.00    +0.000 A 
ATOM     24  C   UNL     1       0.708   9.591  19.875  0.00  0.00    +0.000 A 
ATOM     25  C   UNL     1       1.424   8.478  20.329  0.00  0.00    +0.000 A 
ATOM     26 CL   UNL     1       1.397   8.245  22.042  0.00  0.00    +0.000 Cl
BRANCH  20  28
ATOM     27  C   UNL     1       2.301   5.343  19.751  0.00  0.00    +0.000 C 
ATOM     28  O   UNL     1       2.943   6.613  19.686  0.00  0.00    +0.000 OA
ENDBRANCH  20  28
ENDBRANCH  18  23
ENDBRANCH   1  18
TORSDOF 3
ENDMDL
MODEL 6
REMARK VINA RESULT:      -6.9      1.938      2.589
REMARK  Name = 
REMARK  6 active torsions:
REMARK  status: ('A' for Active; 'I' for Inactive)
REMARK    1  A    between atoms: C_1  and  O_2
REMARK    2  A    between atoms: O_2  and  C_3
REMARK    3  A    between atoms: C_6  and  N_7
REMARK    4  A    between atoms: N_7  and  C_8
REMARK    5  A    between atoms: N_14  and  C_15
REMARK    6  A    between atoms: N_23  and  C_24
REMARK                            x       y       z     vdW  Elec       q    Type
REMARK                         _______ _______ _______ _____ _____    ______ ____
ROOT
ATOM      1  C   UNL     1       2.577   8.195  18.377  0.00  0.00    +0.000 A 
ATOM      2  N   UNL     1       3.415   7.555  17.510  0.00  0.00    +0.000 NA
ATOM      3  C   UNL     1       3.793   6.274  17.694  0.00  0.00    +0.000 A 
ATOM      4  N   UNL     1       4.563   5.661  16.727  0.00  0.00    +0.000 N 
ATOM      5  C   UNL     1       5.222   6.492  15.717  0.00  0.00    +0.000 C 
ATOM      6  C   UNL     1       5.534   5.618  14.477  0.00  0.00    +0.000 C 
ATOM      7  N   UNL     1       6.324   4.405  14.802  0.00  0.00    +0.000 NA
ATOM      8  C   UNL     1       6.514   3.584  13.608  0.00  0.00    +0.000 C 
ATOM      9  C   UNL     1       5.621   3.630  15.849  0.00  0.00    +0.000 C 
ATOM     10  C   UNL     1       5.317   4.466  17.110  0.00  0.00    +0.000 C 
ATOM     11  N   UNL     1       3.389   5.524  18.726  0.00  0.00    +0.000 NA
ATOM     12  C   UNL     1       2.574   6.162  19.571  0.00  0.00    +0.000 A 
ATOM     13  C   UNL     1       2.135   7.464  19.480  0.00  0.00    +0.000 A 
ATOM     14  C   UNL     1       1.315   7.629  20.615  0.00  0.00    +0.000 A 
ATOM     15  N   UNL     1       1.232   6.523  21.368  0.00  0.00    +0.000 NA
ATOM     16  N   UNL     1       2.014   5.642  20.702  0.00  0.00    +0.000 N 
ATOM     17  C   UNL     1       2.231   4.308  21.202  0.00  0.00    +0.000 C 
ENDROOT
BRANCH   1  18
ATOM     18  N   UNL     1       2.210   9.531  18.140  0.00  0.00    +0.000 N 
ATOM     19  H   UNL     1       2.978  10.188  18.122  0.00  0.00    +0.000 HD
BRANCH  18  23
ATOM     20  C   UNL     1      -1.495  11.407  19.011  0.00  0.00    +0.000 A 
ATOM     21  C   UNL     1      -0.309  11.816  19.639  0.00  0.00    +0.000 A 
ATOM     22  C   UNL     1       0.914  11.179  19.372  0.00  0.00    +0.000 A 
ATOM     23  C   UNL     1       0.971  10.129  18.450  0.00  0.00    +0.000 A 
ATOM     24  C   UNL     1      -0.213   9.728  17.827  0.00  0.00    +0.000 A 
ATOM     25  C   UNL     1      -1.435  10.358  18.088  0.00  0.00    +0.000 A 
ATOM     26 CL   UNL     1      -2.761   9.797  17.131  0.00  0.00    +0.000 Cl
BRANCH  20  28
ATOM     27  C   UNL     1      -2.420  13.075  20.441  0.00  0.00    +0.000 C 
ATOM     28  O   UNL     1      -2.582  12.168  19.355  0.00  0.00    +0.000 OA
ENDBRANCH  20  28
ENDBRANCH  18  23
ENDBRANCH   1  18
TORSDOF 3
ENDMDL
MODEL 7
REMARK VINA RESULT:      -6.8      4.538      8.178
REMARK  Name = 
REMARK  6 active torsions:
REMARK  status: ('A' for Active; 'I' for Inactive)
REMARK    1  A    between atoms: C_1  and  O_2
REMARK    2  A    between atoms: O_2  and  C_3
REMARK    3  A    between atoms: C_6  and  N_7
REMARK    4  A    between atoms: N_7  and  C_8
REMARK    5  A    between atoms: N_14  and  C_15
REMARK    6  A    between atoms: N_23  and  C_24
REMARK                            x       y       z     vdW  Elec       q    Type
REMARK                         _______ _______ _______ _____ _____    ______ ____
ROOT
ATOM      1  C   UNL     1       1.250   9.602  19.110  0.00  0.00    +0.000 A 
ATOM      2  N   UNL     1       1.655  10.878  18.842  0.00  0.00    +0.000 NA
ATOM      3  C   UNL     1       1.370  11.907  19.665  0.00  0.00    +0.000 A 
ATOM      4  N   UNL     1       1.893  13.151  19.381  0.00  0.00    +0.000 N 
ATOM      5  C   UNL     1       2.446  13.399  18.047  0.00  0.00    +0.000 C 
ATOM      6  C   UNL     1       3.435  14.588  18.128  0.00  0.00    +0.000 C 
ATOM      7  N   UNL     1       2.831  15.809  18.715  0.00  0.00    +0.000 NA
ATOM      8  C   UNL     1       3.832  16.866  18.840  0.00  0.00    +0.000 C 
ATOM      9  C   UNL     1       2.263  15.484  20.043  0.00  0.00    +0.000 C 
ATOM     10  C   UNL     1       1.254  14.318  19.993  0.00  0.00    +0.000 C 
ATOM     11  N   UNL     1       0.676  11.775  20.801  0.00  0.00    +0.000 NA
ATOM     12  C   UNL     1       0.280  10.524  21.051  0.00  0.00    +0.000 A 
ATOM     13  C   UNL     1       0.510   9.409  20.277  0.00  0.00    +0.000 A 
ATOM     14  C   UNL     1      -0.120   8.365  20.985  0.00  0.00    +0.000 A 
ATOM     15  N   UNL     1      -0.701   8.777  22.120  0.00  0.00    +0.000 NA
ATOM     16  N   UNL     1      -0.438  10.104  22.132  0.00  0.00    +0.000 N 
ATOM     17  C   UNL     1      -0.926  10.953  23.190  0.00  0.00    +0.000 C 
ENDROOT
BRANCH   1  18
ATOM     18  N   UNL     1       1.575   8.562  18.222  0.00  0.00    +0.000 N 
ATOM     19  H   UNL     1       0.820   8.266  17.618  0.00  0.00    +0.000 HD
BRANCH  18  23
ATOM     20  C   UNL     1       4.472   5.509  18.759  0.00  0.00    +0.000 A 
ATOM     21  C   UNL     1       3.404   5.662  19.656  0.00  0.00    +0.000 A 
ATOM     22  C   UNL     1       2.459   6.688  19.495  0.00  0.00    +0.000 A 
ATOM     23  C   UNL     1       2.559   7.570  18.414  0.00  0.00    +0.000 A 
ATOM     24  C   UNL     1       3.623   7.410  17.524  0.00  0.00    +0.000 A 
ATOM     25  C   UNL     1       4.568   6.391  17.677  0.00  0.00    +0.000 A 
ATOM     26 CL   UNL     1       5.738   6.285  16.408  0.00  0.00    +0.000 Cl
BRANCH  20  28
ATOM     27  C   UNL     1       4.614   3.217  19.402  0.00  0.00    +0.000 C 
ATOM     28  O   UNL     1       5.269   4.430  19.042  0.00  0.00    +0.000 OA
ENDBRANCH  20  28
ENDBRANCH  18  23
ENDBRANCH   1  18
TORSDOF 3
ENDMDL
MODEL 8
REMARK VINA RESULT:      -6.8      1.135      1.505
REMARK  Name = 
REMARK  6 active torsions:
REMARK  status: ('A' for Active; 'I' for Inactive)
REMARK    1  A    between atoms: C_1  and  O_2
REMARK    2  A    between atoms: O_2  and  C_3
REMARK    3  A    between atoms: C_6  and  N_7
REMARK    4  A    between atoms: N_7  and  C_8
REMARK    5  A    between atoms: N_14  and  C_15
REMARK    6  A    between atoms: N_23  and  C_24
REMARK                            x       y       z     vdW  Elec       q    Type
REMARK                         _______ _______ _______ _____ _____    ______ ____
ROOT
ATOM      1  C   UNL     1       2.856   5.967  19.659  0.00  0.00    +0.000 A 
ATOM      2  N   UNL     1       3.852   5.933  18.726  0.00  0.00    +0.000 NA
ATOM      3  C   UNL     1       4.044   4.868  17.922  0.00  0.00    +0.000 A 
ATOM      4  N   UNL     1       5.007   4.942  16.938  0.00  0.00    +0.000 N 
ATOM      5  C   UNL     1       6.006   6.011  17.004  0.00  0.00    +0.000 C 
ATOM      6  C   UNL     1       6.591   6.238  15.588  0.00  0.00    +0.000 C 
ATOM      7  N   UNL     1       7.139   5.002  14.978  0.00  0.00    +0.000 NA
ATOM      8  C   UNL     1       7.599   5.263  13.616  0.00  0.00    +0.000 C 
ATOM      9  C   UNL     1       6.093   3.954  14.972  0.00  0.00    +0.000 C 
ATOM     10  C   UNL     1       5.506   3.686  16.374  0.00  0.00    +0.000 C 
ATOM     11  N   UNL     1       3.289   3.765  17.964  0.00  0.00    +0.000 NA
ATOM     12  C   UNL     1       2.321   3.806  18.884  0.00  0.00    +0.000 A 
ATOM     13  C   UNL     1       2.046   4.836  19.756  0.00  0.00    +0.000 A 
ATOM     14  C   UNL     1       0.946   4.367  20.503  0.00  0.00    +0.000 A 
ATOM     15  N   UNL     1       0.547   3.141  20.136  0.00  0.00    +0.000 NA
ATOM     16  N   UNL     1       1.409   2.825  19.143  0.00  0.00    +0.000 N 
ATOM     17  C   UNL     1       1.349   1.546  18.481  0.00  0.00    +0.000 C 
ENDROOT
BRANCH   1  18
ATOM     18  N   UNL     1       2.695   7.102  20.472  0.00  0.00    +0.000 N 
ATOM     19  H   UNL     1       3.075   7.016  21.406  0.00  0.00    +0.000 HD
BRANCH  18  23
ATOM     20  C   UNL     1      -0.328  10.070  20.236  0.00  0.00    +0.000 A 
ATOM     21  C   UNL     1      -0.284   9.162  21.305  0.00  0.00    +0.000 A 
ATOM     22  C   UNL     1       0.700   8.162  21.371  0.00  0.00    +0.000 A 
ATOM     23  C   UNL     1       1.674   8.069  20.372  0.00  0.00    +0.000 A 
ATOM     24  C   UNL     1       1.625   8.977  19.313  0.00  0.00    +0.000 A 
ATOM     25  C   UNL     1       0.649   9.976  19.239  0.00  0.00    +0.000 A 
ATOM     26 CL   UNL     1       0.828  11.075  17.916  0.00  0.00    +0.000 Cl
BRANCH  20  28
ATOM     27  C   UNL     1      -1.010  12.199  21.064  0.00  0.00    +0.000 C 
ATOM     28  O   UNL     1      -1.325  11.003  20.358  0.00  0.00    +0.000 OA
ENDBRANCH  20  28
ENDBRANCH  18  23
ENDBRANCH   1  18
TORSDOF 3
ENDMDL
MODEL 9
REMARK VINA RESULT:      -6.8      1.745      2.300
REMARK  Name = 
REMARK  6 active torsions:
REMARK  status: ('A' for Active; 'I' for Inactive)
REMARK    1  A    between atoms: C_1  and  O_2
REMARK    2  A    between atoms: O_2  and  C_3
REMARK    3  A    between atoms: C_6  and  N_7
REMARK    4  A    between atoms: N_7  and  C_8
REMARK    5  A    between atoms: N_14  and  C_15
REMARK    6  A    between atoms: N_23  and  C_24
REMARK                            x       y       z     vdW  Elec       q    Type
REMARK                         _______ _______ _______ _____ _____    ______ ____
ROOT
ATOM      1  C   UNL     1       2.577   8.227  18.409  0.00  0.00    +0.000 A 
ATOM      2  N   UNL     1       3.412   7.583  17.541  0.00  0.00    +0.000 NA
ATOM      3  C   UNL     1       3.770   6.295  17.714  0.00  0.00    +0.000 A 
ATOM      4  N   UNL     1       4.537   5.681  16.746  0.00  0.00    +0.000 N 
ATOM      5  C   UNL     1       5.216   6.512  15.749  0.00  0.00    +0.000 C 
ATOM      6  C   UNL     1       5.523   5.646  14.502  0.00  0.00    +0.000 C 
ATOM      7  N   UNL     1       6.293   4.419  14.820  0.00  0.00    +0.000 NA
ATOM      8  C   UNL     1       6.479   3.606  13.620  0.00  0.00    +0.000 C 
ATOM      9  C   UNL     1       5.572   3.643  15.855  0.00  0.00    +0.000 C 
ATOM     10  C   UNL     1       5.272   4.471  17.122  0.00  0.00    +0.000 C 
ATOM     11  N   UNL     1       3.348   5.542  18.736  0.00  0.00    +0.000 NA
ATOM     12  C   UNL     1       2.537   6.182  19.582  0.00  0.00    +0.000 A 
ATOM     13  C   UNL     1       2.117   7.492  19.501  0.00  0.00    +0.000 A 
ATOM     14  C   UNL     1       1.292   7.657  20.633  0.00  0.00    +0.000 A 
ATOM     15  N   UNL     1       1.188   6.545  21.373  0.00  0.00    +0.000 NA
ATOM     16  N   UNL     1       1.962   5.660  20.704  0.00  0.00    +0.000 N 
ATOM     17  C   UNL     1       2.156   4.318  21.192  0.00  0.00    +0.000 C 
ENDROOT
BRANCH   1  18
ATOM     18  N   UNL     1       2.231   9.570  18.183  0.00  0.00    +0.000 N 
ATOM     19  H   UNL     1       2.992  10.229  18.278  0.00  0.00    +0.000 HD
BRANCH  18  23
ATOM     20  C   UNL     1      -1.615  11.247  18.814  0.00  0.00    +0.000 A 
ATOM     21  C   UNL     1      -1.420  10.201  17.899  0.00  0.00    +0.000 A 
ATOM     22  C   UNL     1      -0.145   9.663  17.669  0.00  0.00    +0.000 A 
ATOM     23  C   UNL     1       0.961  10.153  18.372  0.00  0.00    +0.000 A 
ATOM     24  C   UNL     1       0.760  11.192  19.283  0.00  0.00    +0.000 A 
ATOM     25  C   UNL     1      -0.509  11.734  19.518  0.00  0.00    +0.000 A 
ATOM     26 CL   UNL     1      -0.570  12.929  20.766  0.00  0.00    +0.000 Cl
BRANCH  20  28
ATOM     27  C   UNL     1      -3.762  11.464  17.799  0.00  0.00    +0.000 C 
ATOM     28  O   UNL     1      -2.929  11.617  18.944  0.00  0.00    +0.000 OA
ENDBRANCH  20  28
ENDBRANCH  18  23
ENDBRANCH   1  18
TORSDOF 3
ENDMDL
