MODEL 1
REMARK VINA RESULT:      -8.6      0.000      0.000
REMARK  Name = 
REMARK  5 active torsions:
REMARK  status: ('A' for Active; 'I' for Inactive)
REMARK    1  A    between atoms: C_1  and  N_2
REMARK    2  A    between atoms: N_5  and  C_6
REMARK    3  A    between atoms: N_15  and  C_16
REMARK    4  A    between atoms: N_15  and  C_17
REMARK    5  A    between atoms: N_20  and  C_21
REMARK                            x       y       z     vdW  Elec       q    Type
REMARK                         _______ _______ _______ _____ _____    ______ ____
ROOT
ATOM      1  C   UNL     1       2.584   7.057  18.742  0.00  0.00    +0.000 A 
ATOM      2  C   UNL     1       2.109   7.665  19.892  0.00  0.00    +0.000 A 
ATOM      3  C   UNL     1       1.587   8.960  19.856  0.00  0.00    +0.000 A 
ATOM      4  C   UNL     1       1.570   9.695  18.688  0.00  0.00    +0.000 A 
ATOM      5  N   UNL     1       1.043  10.996  18.625  0.00  0.00    +0.000 N 
ATOM      6  C   UNL     1       0.615  11.852  19.656  0.00  0.00    +0.000 A 
ATOM      7  C   UNL     1      -0.193  12.953  19.398  0.00  0.00    +0.000 A 
ATOM      8  C   UNL     1      -0.813  13.592  20.524  0.00  0.00    +0.000 A 
ATOM      9  C   UNL     1      -1.634  14.684  20.589  0.00  0.00    +0.000 A 
ATOM     10  N   UNL     1      -1.411  15.736  21.478  0.00  0.00    +0.000 N 
ATOM     11  C   UNL     1      -0.289  15.813  22.405  0.00  0.00    +0.000 C 
ATOM     12  C   UNL     1      -2.483  16.706  21.687  0.00  0.00    +0.000 C 
ATOM     13  N   UNL     1      -2.890  14.387  20.360  0.00  0.00    +0.000 NA
ATOM     14  C   UNL     1      -3.314  13.317  21.044  0.00  0.00    +0.000 A 
ATOM     15  N   UNL     1      -4.675  13.176  20.822  0.00  0.00    +0.000 N 
ATOM     16  N   UNL     1      -2.476  12.566  21.802  0.00  0.00    +0.000 NA
ATOM     17  C   UNL     1      -1.121  12.743  21.499  0.00  0.00    +0.000 A 
ATOM     18  C   UNL     1       0.010  12.023  21.854  0.00  0.00    +0.000 A 
ATOM     19  N   UNL     1       0.898  11.592  20.957  0.00  0.00    +0.000 NA
ATOM     20  N   UNL     1       2.046   9.155  17.554  0.00  0.00    +0.000 NA
ATOM     21  C   UNL     1       2.513   7.866  17.606  0.00  0.00    +0.000 A 
ATOM     22  H   UNL     1       1.168  11.399  17.706  0.00  0.00    +0.000 HD
ATOM     23  H   UNL     1      -4.891  13.987  20.251  0.00  0.00    +0.000 HD
ENDROOT
BRANCH   1  28
ATOM     24  C   UNL     1       3.198   1.520  18.268  0.00  0.00    +0.000 C 
ATOM     25  N   UNL     1       3.584   2.894  18.574  0.00  0.00    +0.000 NA
ATOM     26  C   UNL     1       2.710   3.453  19.629  0.00  0.00    +0.000 C 
ATOM     27  C   UNL     1       3.048   4.928  19.961  0.00  0.00    +0.000 C 
ATOM     28  N   UNL     1       2.999   5.737  18.730  0.00  0.00    +0.000 N 
ATOM     29  C   UNL     1       3.859   5.222  17.655  0.00  0.00    +0.000 C 
ATOM     30  C   UNL     1       3.487   3.748  17.366  0.00  0.00    +0.000 C 
ENDBRANCH   1  28
BRANCH  15  31
ATOM     31  C   UNL     1      -5.784  12.658  21.480  0.00  0.00    +0.000 A 
ATOM     32  C   UNL     1      -5.887  12.965  22.860  0.00  0.00    +0.000 A 
ATOM     33  C   UNL     1      -6.913  12.459  23.639  0.00  0.00    +0.000 A 
ATOM     34  C   UNL     1      -7.916  11.704  23.038  0.00  0.00    +0.000 A 
ATOM     35  C   UNL     1      -7.857  11.447  21.667  0.00  0.00    +0.000 A 
ATOM     36  C   UNL     1      -6.803  11.935  20.905  0.00  0.00    +0.000 A 
ENDBRANCH  15  31
TORSDOF 2
ENDMDL
MODEL 2
REMARK VINA RESULT:      -8.2      0.600      1.040
REMARK  Name = 
REMARK  5 active torsions:
REMARK  status: ('A' for Active; 'I' for Inactive)
REMARK    1  A    between atoms: C_1  and  N_2
REMARK    2  A    between atoms: N_5  and  C_6
REMARK    3  A    between atoms: N_15  and  C_16
REMARK    4  A    between atoms: N_15  and  C_17
REMARK    5  A    between atoms: N_20  and  C_21
REMARK                            x       y       z     vdW  Elec       q    Type
REMARK                         _______ _______ _______ _____ _____    ______ ____
ROOT
ATOM      1  C   UNL     1       2.277   6.772  18.987  0.00  0.00    +0.000 A 
ATOM      2  C   UNL     1       1.908   7.483  20.117  0.00  0.00    +0.000 A 
ATOM      3  C   UNL     1       1.451   8.798  20.019  0.00  0.00    +0.000 A 
ATOM      4  C   UNL     1       1.397   9.451  18.804  0.00  0.00    +0.000 A 
ATOM      5  N   UNL     1       0.933  10.772  18.679  0.00  0.00    +0.000 N 
ATOM      6  C   UNL     1       0.616  11.719  19.669  0.00  0.00    +0.000 A 
ATOM      7  C   UNL     1      -0.151  12.842  19.382  0.00  0.00    +0.000 A 
ATOM      8  C   UNL     1      -0.665  13.590  20.494  0.00  0.00    +0.000 A 
ATOM      9  C   UNL     1      -1.423  14.728  20.529  0.00  0.00    +0.000 A 
ATOM     10  N   UNL     1      -1.091  15.825  21.325  0.00  0.00    +0.000 N 
ATOM     11  C   UNL     1       0.090  15.903  22.175  0.00  0.00    +0.000 C 
ATOM     12  C   UNL     1      -2.097  16.865  21.527  0.00  0.00    +0.000 C 
ATOM     13  N   UNL     1      -2.705  14.485  20.398  0.00  0.00    +0.000 NA
ATOM     14  C   UNL     1      -3.138  13.490  21.181  0.00  0.00    +0.000 A 
ATOM     15  N   UNL     1      -4.516  13.409  21.052  0.00  0.00    +0.000 N 
ATOM     16  N   UNL     1      -2.293  12.748  21.940  0.00  0.00    +0.000 NA
ATOM     17  C   UNL     1      -0.952  12.829  21.544  0.00  0.00    +0.000 A 
ATOM     18  C   UNL     1       0.162  12.074  21.881  0.00  0.00    +0.000 A 
ATOM     19  N   UNL     1       0.967  11.534  20.966  0.00  0.00    +0.000 NA
ATOM     20  N   UNL     1       1.772   8.809  17.685  0.00  0.00    +0.000 NA
ATOM     21  C   UNL     1       2.176   7.503  17.802  0.00  0.00    +0.000 A 
ATOM     22  H   UNL     1       1.020  11.103  17.728  0.00  0.00    +0.000 HD
ATOM     23  H   UNL     1      -4.727  14.189  20.438  0.00  0.00    +0.000 HD
ENDROOT
BRANCH   1  28
ATOM     24  C   UNL     1       3.706   1.445  18.063  0.00  0.00    +0.000 C 
ATOM     25  N   UNL     1       3.375   2.632  18.846  0.00  0.00    +0.000 NA
ATOM     26  C   UNL     1       2.006   3.097  18.528  0.00  0.00    +0.000 C 
ATOM     27  C   UNL     1       1.621   4.382  19.300  0.00  0.00    +0.000 C 
ATOM     28  N   UNL     1       2.623   5.433  19.045  0.00  0.00    +0.000 N 
ATOM     29  C   UNL     1       3.998   5.018  19.354  0.00  0.00    +0.000 C 
ATOM     30  C   UNL     1       4.332   3.729  18.566  0.00  0.00    +0.000 C 
ENDBRANCH   1  28
BRANCH  15  31
ATOM     31  C   UNL     1      -5.606  12.999  21.810  0.00  0.00    +0.000 A 
ATOM     32  C   UNL     1      -6.590  12.242  21.126  0.00  0.00    +0.000 A 
ATOM     33  C   UNL     1      -7.751  11.828  21.756  0.00  0.00    +0.000 A 
ATOM     34  C   UNL     1      -7.917  12.082  23.115  0.00  0.00    +0.000 A 
ATOM     35  C   UNL     1      -6.925  12.774  23.812  0.00  0.00    +0.000 A 
ATOM     36  C   UNL     1      -5.781  13.212  23.158  0.00  0.00    +0.000 A 
ENDBRANCH  15  31
TORSDOF 2
ENDMDL
MODEL 3
REMARK VINA RESULT:      -8.1      0.857      1.255
REMARK  Name = 
REMARK  5 active torsions:
REMARK  status: ('A' for Active; 'I' for Inactive)
REMARK    1  A    between atoms: C_1  and  N_2
REMARK    2  A    between atoms: N_5  and  C_6
REMARK    3  A    between atoms: N_15  and  C_16
REMARK    4  A    between atoms: N_15  and  C_17
REMARK    5  A    between atoms: N_20  and  C_21
REMARK                            x       y       z     vdW  Elec       q    Type
REMARK                         _______ _______ _______ _____ _____    ______ ____
ROOT
ATOM      1  C   UNL     1       2.806   6.644  18.398  0.00  0.00    +0.000 A 
ATOM      2  C   UNL     1       2.243   7.157  19.554  0.00  0.00    +0.000 A 
ATOM      3  C   UNL     1       1.810   8.484  19.614  0.00  0.00    +0.000 A 
ATOM      4  C   UNL     1       1.971   9.340  18.543  0.00  0.00    +0.000 A 
ATOM      5  N   UNL     1       1.536  10.676  18.576  0.00  0.00    +0.000 N 
ATOM      6  C   UNL     1       1.048  11.444  19.648  0.00  0.00    +0.000 A 
ATOM      7  C   UNL     1       0.344  12.624  19.436  0.00  0.00    +0.000 A 
ATOM      8  C   UNL     1      -0.358  13.182  20.557  0.00  0.00    +0.000 A 
ATOM      9  C   UNL     1      -1.111  14.319  20.661  0.00  0.00    +0.000 A 
ATOM     10  N   UNL     1      -0.926  15.249  21.684  0.00  0.00    +0.000 N 
ATOM     11  C   UNL     1       0.086  15.141  22.727  0.00  0.00    +0.000 C 
ATOM     12  C   UNL     1      -1.953  16.268  21.890  0.00  0.00    +0.000 C 
ATOM     13  N   UNL     1      -2.350  14.143  20.268  0.00  0.00    +0.000 NA
ATOM     14  C   UNL     1      -2.914  13.039  20.774  0.00  0.00    +0.000 A 
ATOM     15  N   UNL     1      -4.247  13.025  20.395  0.00  0.00    +0.000 N 
ATOM     16  N   UNL     1      -2.216  12.151  21.524  0.00  0.00    +0.000 NA
ATOM     17  C   UNL     1      -0.827  12.258  21.389  0.00  0.00    +0.000 A 
ATOM     18  C   UNL     1       0.210  11.421  21.775  0.00  0.00    +0.000 A 
ATOM     19  N   UNL     1       1.165  11.025  20.933  0.00  0.00    +0.000 NA
ATOM     20  N   UNL     1       2.538   8.892  17.411  0.00  0.00    +0.000 NA
ATOM     21  C   UNL     1       2.915   7.574  17.363  0.00  0.00    +0.000 A 
ATOM     22  H   UNL     1       1.789  11.166  17.729  0.00  0.00    +0.000 HD
ATOM     23  H   UNL     1      -4.347  13.907  19.902  0.00  0.00    +0.000 HD
ENDROOT
BRANCH   1  28
ATOM     24  C   UNL     1       3.698   1.155  18.980  0.00  0.00    +0.000 C 
ATOM     25  N   UNL     1       3.701   2.454  18.315  0.00  0.00    +0.000 NA
ATOM     26  C   UNL     1       4.524   3.422  19.073  0.00  0.00    +0.000 C 
ATOM     27  C   UNL     1       4.524   4.832  18.434  0.00  0.00    +0.000 C 
ATOM     28  N   UNL     1       3.137   5.306  18.277  0.00  0.00    +0.000 N 
ATOM     29  C   UNL     1       2.284   4.378  17.522  0.00  0.00    +0.000 C 
ATOM     30  C   UNL     1       2.322   2.985  18.195  0.00  0.00    +0.000 C 
ENDBRANCH   1  28
BRANCH  15  31
ATOM     31  C   UNL     1      -5.454  12.523  20.867  0.00  0.00    +0.000 A 
ATOM     32  C   UNL     1      -6.085  11.551  20.051  0.00  0.00    +0.000 A 
ATOM     33  C   UNL     1      -7.319  11.019  20.382  0.00  0.00    +0.000 A 
ATOM     34  C   UNL     1      -7.915  11.379  21.588  0.00  0.00    +0.000 A 
ATOM     35  C   UNL     1      -7.273  12.291  22.428  0.00  0.00    +0.000 A 
ATOM     36  C   UNL     1      -6.050  12.841  22.066  0.00  0.00    +0.000 A 
ENDBRANCH  15  31
TORSDOF 2
ENDMDL
MODEL 4
REMARK VINA RESULT:      -8.1      0.775      1.143
REMARK  Name = 
REMARK  5 active torsions:
REMARK  status: ('A' for Active; 'I' for Inactive)
REMARK    1  A    between atoms: C_1  and  N_2
REMARK    2  A    between atoms: N_5  and  C_6
REMARK    3  A    between atoms: N_15  and  C_16
REMARK    4  A    between atoms: N_15  and  C_17
REMARK    5  A    between atoms: N_20  and  C_21
REMARK                            x       y       z     vdW  Elec       q    Type
REMARK                         _______ _______ _______ _____ _____    ______ ____
ROOT
ATOM      1  C   UNL     1       2.340   6.282  19.087  0.00  0.00    +0.000 A 
ATOM      2  C   UNL     1       1.852   6.913  20.219  0.00  0.00    +0.000 A 
ATOM      3  C   UNL     1       1.464   8.254  20.182  0.00  0.00    +0.000 A 
ATOM      4  C   UNL     1       1.600   9.009  19.034  0.00  0.00    +0.000 A 
ATOM      5  N   UNL     1       1.211  10.358  18.969  0.00  0.00    +0.000 N 
ATOM      6  C   UNL     1       0.801  11.233  19.992  0.00  0.00    +0.000 A 
ATOM      7  C   UNL     1       0.125  12.414  19.709  0.00  0.00    +0.000 A 
ATOM      8  C   UNL     1      -0.503  13.091  20.808  0.00  0.00    +0.000 A 
ATOM      9  C   UNL     1      -1.213  14.260  20.847  0.00  0.00    +0.000 A 
ATOM     10  N   UNL     1      -0.948  15.267  21.775  0.00  0.00    +0.000 N 
ATOM     11  C   UNL     1       0.111  15.213  22.775  0.00  0.00    +0.000 C 
ATOM     12  C   UNL     1      -1.930  16.337  21.938  0.00  0.00    +0.000 C 
ATOM     13  N   UNL     1      -2.474  14.096  20.529  0.00  0.00    +0.000 NA
ATOM     14  C   UNL     1      -3.048  13.061  21.155  0.00  0.00    +0.000 A 
ATOM     15  N   UNL     1      -4.398  13.062  20.840  0.00  0.00    +0.000 N 
ATOM     16  N   UNL     1      -2.343  12.216  21.947  0.00  0.00    +0.000 NA
ATOM     17  C   UNL     1      -0.959  12.261  21.739  0.00  0.00    +0.000 A 
ATOM     18  C   UNL     1       0.068  11.423  22.149  0.00  0.00    +0.000 A 
ATOM     19  N   UNL     1       0.967  10.922  21.301  0.00  0.00    +0.000 NA
ATOM     20  N   UNL     1       2.096   8.445  17.920  0.00  0.00    +0.000 NA
ATOM     21  C   UNL     1       2.428   7.115  17.970  0.00  0.00    +0.000 A 
ATOM     22  H   UNL     1       1.437  10.763  18.072  0.00  0.00    +0.000 HD
ATOM     23  H   UNL     1      -4.494  13.901  20.278  0.00  0.00    +0.000 HD
ENDROOT
BRANCH   1  28
ATOM     24  C   UNL     1       4.564   1.154  19.246  0.00  0.00    +0.000 C 
ATOM     25  N   UNL     1       3.517   2.162  19.107  0.00  0.00    +0.000 NA
ATOM     26  C   UNL     1       3.811   3.061  17.969  0.00  0.00    +0.000 C 
ATOM     27  C   UNL     1       2.752   4.179  17.805  0.00  0.00    +0.000 C 
ATOM     28  N   UNL     1       2.622   4.927  19.069  0.00  0.00    +0.000 N 
ATOM     29  C   UNL     1       2.322   4.074  20.227  0.00  0.00    +0.000 C 
ATOM     30  C   UNL     1       3.402   2.972  20.343  0.00  0.00    +0.000 C 
ENDBRANCH   1  28
BRANCH  15  31
ATOM     31  C   UNL     1      -5.596  12.647  21.411  0.00  0.00    +0.000 A 
ATOM     32  C   UNL     1      -5.770  12.956  22.783  0.00  0.00    +0.000 A 
ATOM     33  C   UNL     1      -6.893  12.544  23.481  0.00  0.00    +0.000 A 
ATOM     34  C   UNL     1      -7.915  11.888  22.800  0.00  0.00    +0.000 A 
ATOM     35  C   UNL     1      -7.780  11.633  21.434  0.00  0.00    +0.000 A 
ATOM     36  C   UNL     1      -6.632  12.024  20.756  0.00  0.00    +0.000 A 
ENDBRANCH  15  31
TORSDOF 2
ENDMDL
MODEL 5
REMARK VINA RESULT:      -7.9      2.349      5.412
REMARK  Name = 
REMARK  5 active torsions:
REMARK  status: ('A' for Active; 'I' for Inactive)
REMARK    1  A    between atoms: C_1  and  N_2
REMARK    2  A    between atoms: N_5  and  C_6
REMARK    3  A    between atoms: N_15  and  C_16
REMARK    4  A    between atoms: N_15  and  C_17
REMARK    5  A    between atoms: N_20  and  C_21
REMARK                            x       y       z     vdW  Elec       q    Type
REMARK                         _______ _______ _______ _____ _____    ______ ____
ROOT
ATOM      1  C   UNL     1       3.295   6.653  18.207  0.00  0.00    +0.000 A 
ATOM      2  C   UNL     1       2.691   7.820  17.771  0.00  0.00    +0.000 A 
ATOM      3  C   UNL     1       1.853   8.553  18.615  0.00  0.00    +0.000 A 
ATOM      4  C   UNL     1       1.559   8.116  19.891  0.00  0.00    +0.000 A 
ATOM      5  N   UNL     1       0.725   8.838  20.761  0.00  0.00    +0.000 N 
ATOM      6  C   UNL     1      -0.077   9.968  20.517  0.00  0.00    +0.000 A 
ATOM      7  C   UNL     1      -0.559  10.755  21.557  0.00  0.00    +0.000 A 
ATOM      8  C   UNL     1      -1.115  12.032  21.213  0.00  0.00    +0.000 A 
ATOM      9  C   UNL     1      -1.671  13.004  21.998  0.00  0.00    +0.000 A 
ATOM     10  N   UNL     1      -2.903  13.590  21.704  0.00  0.00    +0.000 N 
ATOM     11  C   UNL     1      -3.741  13.229  20.569  0.00  0.00    +0.000 C 
ATOM     12  C   UNL     1      -3.279  14.809  22.417  0.00  0.00    +0.000 C 
ATOM     13  N   UNL     1      -0.775  13.798  22.531  0.00  0.00    +0.000 NA
ATOM     14  C   UNL     1       0.138  14.231  21.654  0.00  0.00    +0.000 A 
ATOM     15  N   UNL     1       0.950  15.152  22.296  0.00  0.00    +0.000 N 
ATOM     16  N   UNL     1       0.175  13.787  20.372  0.00  0.00    +0.000 NA
ATOM     17  C   UNL     1      -0.522  12.591  20.163  0.00  0.00    +0.000 A 
ATOM     18  C   UNL     1      -0.538  11.701  19.100  0.00  0.00    +0.000 A 
ATOM     19  N   UNL     1      -0.344  10.391  19.257  0.00  0.00    +0.000 NA
ATOM     20  N   UNL     1       2.101   6.974  20.345  0.00  0.00    +0.000 NA
ATOM     21  C   UNL     1       2.955   6.296  19.513  0.00  0.00    +0.000 A 
ATOM     22  H   UNL     1       0.577   8.339  21.627  0.00  0.00    +0.000 HD
ATOM     23  H   UNL     1       0.523  15.222  23.214  0.00  0.00    +0.000 HD
ENDROOT
BRANCH   1  28
ATOM     24  C   UNL     1       6.137   3.807  14.322  0.00  0.00    +0.000 C 
ATOM     25  N   UNL     1       5.923   4.520  15.578  0.00  0.00    +0.000 NA
ATOM     26  C   UNL     1       4.893   3.835  16.392  0.00  0.00    +0.000 C 
ATOM     27  C   UNL     1       4.593   4.576  17.718  0.00  0.00    +0.000 C 
ATOM     28  N   UNL     1       4.217   5.973  17.431  0.00  0.00    +0.000 N 
ATOM     29  C   UNL     1       5.215   6.695  16.630  0.00  0.00    +0.000 C 
ATOM     30  C   UNL     1       5.484   5.913  15.323  0.00  0.00    +0.000 C 
ENDBRANCH   1  28
BRANCH  15  31
ATOM     31  C   UNL     1       1.724  16.259  21.967  0.00  0.00    +0.000 A 
ATOM     32  C   UNL     1       2.954  16.385  22.660  0.00  0.00    +0.000 A 
ATOM     33  C   UNL     1       3.785  17.475  22.466  0.00  0.00    +0.000 A 
ATOM     34  C   UNL     1       3.450  18.425  21.504  0.00  0.00    +0.000 A 
ATOM     35  C   UNL     1       2.269  18.278  20.773  0.00  0.00    +0.000 A 
ATOM     36  C   UNL     1       1.430  17.196  21.004  0.00  0.00    +0.000 A 
ENDBRANCH  15  31
TORSDOF 2
ENDMDL
MODEL 6
REMARK VINA RESULT:      -7.8      2.723      5.260
REMARK  Name = 
REMARK  5 active torsions:
REMARK  status: ('A' for Active; 'I' for Inactive)
REMARK    1  A    between atoms: C_1  and  N_2
REMARK    2  A    between atoms: N_5  and  C_6
REMARK    3  A    between atoms: N_15  and  C_16
REMARK    4  A    between atoms: N_15  and  C_17
REMARK    5  A    between atoms: N_20  and  C_21
REMARK                            x       y       z     vdW  Elec       q    Type
REMARK                         _______ _______ _______ _____ _____    ______ ____
ROOT
ATOM      1  C   UNL     1       3.208   6.644  18.222  0.00  0.00    +0.000 A 
ATOM      2  C   UNL     1       2.281   7.441  17.571  0.00  0.00    +0.000 A 
ATOM      3  C   UNL     1       1.453   8.309  18.287  0.00  0.00    +0.000 A 
ATOM      4  C   UNL     1       1.495   8.369  19.665  0.00  0.00    +0.000 A 
ATOM      5  N   UNL     1       0.679   9.239  20.406  0.00  0.00    +0.000 N 
ATOM      6  C   UNL     1      -0.396  10.047  19.992  0.00  0.00    +0.000 A 
ATOM      7  C   UNL     1      -0.862  11.095  20.777  0.00  0.00    +0.000 A 
ATOM      8  C   UNL     1      -1.753  12.035  20.157  0.00  0.00    +0.000 A 
ATOM      9  C   UNL     1      -2.378  13.140  20.666  0.00  0.00    +0.000 A 
ATOM     10  N   UNL     1      -3.744  13.370  20.503  0.00  0.00    +0.000 N 
ATOM     11  C   UNL     1      -4.658  12.469  19.812  0.00  0.00    +0.000 C 
ATOM     12  C   UNL     1      -4.266  14.698  20.815  0.00  0.00    +0.000 C 
ATOM     13  N   UNL     1      -1.614  14.206  20.648  0.00  0.00    +0.000 NA
ATOM     14  C   UNL     1      -0.994  14.392  19.477  0.00  0.00    +0.000 A 
ATOM     15  N   UNL     1      -0.322  15.604  19.533  0.00  0.00    +0.000 N 
ATOM     16  N   UNL     1      -1.076  13.493  18.465  0.00  0.00    +0.000 NA
ATOM     17  C   UNL     1      -1.499  12.220  18.867  0.00  0.00    +0.000 A 
ATOM     18  C   UNL     1      -1.489  10.992  18.221  0.00  0.00    +0.000 A 
ATOM     19  N   UNL     1      -0.968   9.896  18.772  0.00  0.00    +0.000 NA
ATOM     20  N   UNL     1       2.360   7.593  20.340  0.00  0.00    +0.000 NA
ATOM     21  C   UNL     1       3.193   6.781  19.612  0.00  0.00    +0.000 A 
ATOM     22  H   UNL     1       0.804   9.104  21.400  0.00  0.00    +0.000 HD
ATOM     23  H   UNL     1      -0.589  15.962  20.445  0.00  0.00    +0.000 HD
ENDROOT
BRANCH   1  28
ATOM     24  C   UNL     1       6.234   3.776  14.496  0.00  0.00    +0.000 C 
ATOM     25  N   UNL     1       5.862   4.303  15.806  0.00  0.00    +0.000 NA
ATOM     26  C   UNL     1       4.517   3.823  16.193  0.00  0.00    +0.000 C 
ATOM     27  C   UNL     1       4.053   4.390  17.557  0.00  0.00    +0.000 C 
ATOM     28  N   UNL     1       4.116   5.863  17.530  0.00  0.00    +0.000 N 
ATOM     29  C   UNL     1       5.438   6.385  17.156  0.00  0.00    +0.000 C 
ATOM     30  C   UNL     1       5.858   5.785  15.793  0.00  0.00    +0.000 C 
ENDBRANCH   1  28
BRANCH  15  31
ATOM     31  C   UNL     1       0.101  16.597  18.658  0.00  0.00    +0.000 A 
ATOM     32  C   UNL     1       1.484  16.602  18.346  0.00  0.00    +0.000 A 
ATOM     33  C   UNL     1       2.038  17.576  17.534  0.00  0.00    +0.000 A 
ATOM     34  C   UNL     1       1.207  18.520  16.937  0.00  0.00    +0.000 A 
ATOM     35  C   UNL     1      -0.166  18.486  17.189  0.00  0.00    +0.000 A 
ATOM     36  C   UNL     1      -0.702  17.522  18.033  0.00  0.00    +0.000 A 
ENDBRANCH  15  31
TORSDOF 2
ENDMDL
MODEL 7
REMARK VINA RESULT:      -7.4      4.058      7.091
REMARK  Name = 
REMARK  5 active torsions:
REMARK  status: ('A' for Active; 'I' for Inactive)
REMARK    1  A    between atoms: C_1  and  N_2
REMARK    2  A    between atoms: N_5  and  C_6
REMARK    3  A    between atoms: N_15  and  C_16
REMARK    4  A    between atoms: N_15  and  C_17
REMARK    5  A    between atoms: N_20  and  C_21
REMARK                            x       y       z     vdW  Elec       q    Type
REMARK                         _______ _______ _______ _____ _____    ______ ____
ROOT
ATOM      1  C   UNL     1       2.208   6.492  19.184  0.00  0.00    +0.000 A 
ATOM      2  C   UNL     1       2.329   7.623  18.393  0.00  0.00    +0.000 A 
ATOM      3  C   UNL     1       1.972   8.882  18.882  0.00  0.00    +0.000 A 
ATOM      4  C   UNL     1       1.443   9.037  20.148  0.00  0.00    +0.000 A 
ATOM      5  N   UNL     1       1.084  10.293  20.665  0.00  0.00    +0.000 N 
ATOM      6  C   UNL     1       1.009  11.546  20.031  0.00  0.00    +0.000 A 
ATOM      7  C   UNL     1       0.976  12.729  20.761  0.00  0.00    +0.000 A 
ATOM      8  C   UNL     1       1.192  13.952  20.041  0.00  0.00    +0.000 A 
ATOM      9  C   UNL     1       1.203  15.250  20.472  0.00  0.00    +0.000 A 
ATOM     10  N   UNL     1       0.479  16.258  19.834  0.00  0.00    +0.000 N 
ATOM     11  C   UNL     1      -0.379  16.052  18.674  0.00  0.00    +0.000 C 
ATOM     12  C   UNL     1       0.777  17.647  20.173  0.00  0.00    +0.000 C 
ATOM     13  N   UNL     1       2.362  15.608  20.969  0.00  0.00    +0.000 NA
ATOM     14  C   UNL     1       3.399  15.257  20.199  0.00  0.00    +0.000 A 
ATOM     15  N   UNL     1       4.550  15.793  20.756  0.00  0.00    +0.000 N 
ATOM     16  N   UNL     1       3.246  14.507  19.079  0.00  0.00    +0.000 NA
ATOM     17  C   UNL     1       2.030  13.814  19.020  0.00  0.00    +0.000 A 
ATOM     18  C   UNL     1       1.588  12.786  18.200  0.00  0.00    +0.000 A 
ATOM     19  N   UNL     1       1.055  11.663  18.680  0.00  0.00    +0.000 NA
ATOM     20  N   UNL     1       1.282   7.963  20.939  0.00  0.00    +0.000 NA
ATOM     21  C   UNL     1       1.681   6.744  20.451  0.00  0.00    +0.000 A 
ATOM     22  H   UNL     1       0.661  10.207  21.579  0.00  0.00    +0.000 HD
ATOM     23  H   UNL     1       4.189  16.326  21.540  0.00  0.00    +0.000 HD
ENDROOT
BRANCH   1  28
ATOM     24  C   UNL     1       3.709   1.144  18.547  0.00  0.00    +0.000 C 
ATOM     25  N   UNL     1       3.515   2.540  18.167  0.00  0.00    +0.000 NA
ATOM     26  C   UNL     1       4.304   3.430  19.048  0.00  0.00    +0.000 C 
ATOM     27  C   UNL     1       4.098   4.928  18.717  0.00  0.00    +0.000 C 
ATOM     28  N   UNL     1       2.661   5.254  18.764  0.00  0.00    +0.000 N 
ATOM     29  C   UNL     1       1.838   4.399  17.898  0.00  0.00    +0.000 C 
ATOM     30  C   UNL     1       2.084   2.915  18.263  0.00  0.00    +0.000 C 
ENDBRANCH   1  28
BRANCH  15  31
ATOM     31  C   UNL     1       5.803  16.221  20.334  0.00  0.00    +0.000 A 
ATOM     32  C   UNL     1       6.723  15.200  19.984  0.00  0.00    +0.000 A 
ATOM     33  C   UNL     1       8.022  15.495  19.607  0.00  0.00    +0.000 A 
ATOM     34  C   UNL     1       8.409  16.827  19.481  0.00  0.00    +0.000 A 
ATOM     35  C   UNL     1       7.492  17.840  19.765  0.00  0.00    +0.000 A 
ATOM     36  C   UNL     1       6.202  17.528  20.174  0.00  0.00    +0.000 A 
ENDBRANCH  15  31
TORSDOF 2
ENDMDL
MODEL 8
REMARK VINA RESULT:      -7.3      1.173      1.443
REMARK  Name = 
REMARK  5 active torsions:
REMARK  status: ('A' for Active; 'I' for Inactive)
REMARK    1  A    between atoms: C_1  and  N_2
REMARK    2  A    between atoms: N_5  and  C_6
REMARK    3  A    between atoms: N_15  and  C_16
REMARK    4  A    between atoms: N_15  and  C_17
REMARK    5  A    between atoms: N_20  and  C_21
REMARK                            x       y       z     vdW  Elec       q    Type
REMARK                         _______ _______ _______ _____ _____    ______ ____
ROOT
ATOM      1  C   UNL     1       2.010   7.381  19.182  0.00  0.00    +0.000 A 
ATOM      2  C   UNL     1       1.702   8.141  20.298  0.00  0.00    +0.000 A 
ATOM      3  C   UNL     1       1.270   9.462  20.170  0.00  0.00    +0.000 A 
ATOM      4  C   UNL     1       1.182  10.072  18.934  0.00  0.00    +0.000 A 
ATOM      5  N   UNL     1       0.743  11.397  18.778  0.00  0.00    +0.000 N 
ATOM      6  C   UNL     1       0.486  12.387  19.745  0.00  0.00    +0.000 A 
ATOM      7  C   UNL     1      -0.266  13.517  19.446  0.00  0.00    +0.000 A 
ATOM      8  C   UNL     1      -0.719  14.316  20.548  0.00  0.00    +0.000 A 
ATOM      9  C   UNL     1      -1.450  15.472  20.571  0.00  0.00    +0.000 A 
ATOM     10  N   UNL     1      -1.064  16.589  21.312  0.00  0.00    +0.000 N 
ATOM     11  C   UNL     1       0.152  16.670  22.112  0.00  0.00    +0.000 C 
ATOM     12  C   UNL     1      -2.038  17.658  21.515  0.00  0.00    +0.000 C 
ATOM     13  N   UNL     1      -2.742  15.255  20.499  0.00  0.00    +0.000 NA
ATOM     14  C   UNL     1      -3.165  14.298  21.334  0.00  0.00    +0.000 A 
ATOM     15  N   UNL     1      -4.548  14.245  21.261  0.00  0.00    +0.000 N 
ATOM     16  N   UNL     1      -2.307  13.565  22.086  0.00  0.00    +0.000 NA
ATOM     17  C   UNL     1      -0.982  13.601  21.637  0.00  0.00    +0.000 A 
ATOM     18  C   UNL     1       0.128  12.832  21.958  0.00  0.00    +0.000 A 
ATOM     19  N   UNL     1       0.884  12.241  21.033  0.00  0.00    +0.000 NA
ATOM     20  N   UNL     1       1.499   9.381  17.826  0.00  0.00    +0.000 NA
ATOM     21  C   UNL     1       1.878   8.071  17.976  0.00  0.00    +0.000 A 
ATOM     22  H   UNL     1       0.800  11.692  17.813  0.00  0.00    +0.000 HD
ATOM     23  H   UNL     1      -4.766  15.007  20.628  0.00  0.00    +0.000 HD
ENDROOT
BRANCH   1  28
ATOM     24  C   UNL     1       4.285   2.346  20.041  0.00  0.00    +0.000 C 
ATOM     25  N   UNL     1       3.272   3.309  19.620  0.00  0.00    +0.000 NA
ATOM     26  C   UNL     1       3.807   4.191  18.559  0.00  0.00    +0.000 C 
ATOM     27  C   UNL     1       2.786   5.264  18.107  0.00  0.00    +0.000 C 
ATOM     28  N   UNL     1       2.329   6.038  19.276  0.00  0.00    +0.000 N 
ATOM     29  C   UNL     1       1.783   5.202  20.354  0.00  0.00    +0.000 C 
ATOM     30  C   UNL     1       2.835   4.144  20.764  0.00  0.00    +0.000 C 
ENDBRANCH   1  28
BRANCH  15  31
ATOM     31  C   UNL     1      -5.616  13.889  22.076  0.00  0.00    +0.000 A 
ATOM     32  C   UNL     1      -5.298  13.088  23.203  0.00  0.00    +0.000 A 
ATOM     33  C   UNL     1      -6.280  12.618  24.057  0.00  0.00    +0.000 A 
ATOM     34  C   UNL     1      -7.601  13.012  23.859  0.00  0.00    +0.000 A 
ATOM     35  C   UNL     1      -7.917  13.850  22.787  0.00  0.00    +0.000 A 
ATOM     36  C   UNL     1      -6.924  14.286  21.920  0.00  0.00    +0.000 A 
ENDBRANCH  15  31
TORSDOF 2
ENDMDL
