MODEL 1
REMARK VINA RESULT:      -6.3      0.000      0.000
REMARK  Name = 
REMARK  4 active torsions:
REMARK  status: ('A' for Active; 'I' for Inactive)
REMARK    1  A    between atoms: C_1  and  C_2
REMARK    2  A    between atoms: C_2  and  C_3
REMARK    3  A    between atoms: C_7  and  C_8
REMARK    4  A    between atoms: C_8  and  C_10
REMARK                            x       y       z     vdW  Elec       q    Type
REMARK                         _______ _______ _______ _____ _____    ______ ____
ROOT
ATOM      1  C   UNL     1       3.060   4.091  17.700  0.00  0.00    +0.000 A 
ATOM      2  C   UNL     1       2.162   5.117  18.010  0.00  0.00    +0.000 A 
ATOM      3  C   UNL     1       2.600   6.439  18.089  0.00  0.00    +0.000 A 
ATOM      4  C   UNL     1       3.942   6.741  17.874  0.00  0.00    +0.000 A 
ATOM      5  C   UNL     1       4.863   5.720  17.592  0.00  0.00    +0.000 A 
ATOM      6  C   UNL     1       4.413   4.399  17.489  0.00  0.00    +0.000 A 
ENDROOT
BRANCH   1   8
ATOM      7  C   UNL     1       3.486   1.694  18.243  0.00  0.00    +0.000 C 
ATOM      8  C   UNL     1       2.568   2.675  17.527  0.00  0.00    +0.000 C 
ENDBRANCH   1   8
BRANCH   5   9
ATOM      9  C   UNL     1       6.283   6.106  17.371  0.00  0.00    +0.000 C 
ATOM     10  O   UNL     1       6.561   6.695  16.322  0.00  0.00    +0.000 OA
BRANCH   9  11
ATOM     11  C   UNL     1       7.320   5.773  18.433  0.00  0.00    +0.000 C 
ATOM     12  F   UNL     1       8.040   4.643  18.195  0.00  0.00    +0.000 F 
ATOM     13  F   UNL     1       8.232   6.775  18.587  0.00  0.00    +0.000 F 
ATOM     14  F   UNL     1       6.749   5.588  19.659  0.00  0.00    +0.000 F 
ENDBRANCH   9  11
ENDBRANCH   5   9
TORSDOF 3
ENDMDL
MODEL 2
REMARK VINA RESULT:      -6.3      3.518      4.876
REMARK  Name = 
REMARK  4 active torsions:
REMARK  status: ('A' for Active; 'I' for Inactive)
REMARK    1  A    between atoms: C_1  and  C_2
REMARK    2  A    between atoms: C_2  and  C_3
REMARK    3  A    between atoms: C_7  and  C_8
REMARK    4  A    between atoms: C_8  and  C_10
REMARK                            x       y       z     vdW  Elec       q    Type
REMARK                         _______ _______ _______ _____ _____    ______ ____
ROOT
ATOM      1  C   UNL     1       4.746   4.945  16.708  0.00  0.00    +0.000 A 
ATOM      2  C   UNL     1       4.698   6.333  16.875  0.00  0.00    +0.000 A 
ATOM      3  C   UNL     1       3.682   6.918  17.631  0.00  0.00    +0.000 A 
ATOM      4  C   UNL     1       2.700   6.120  18.212  0.00  0.00    +0.000 A 
ATOM      5  C   UNL     1       2.715   4.729  18.029  0.00  0.00    +0.000 A 
ATOM      6  C   UNL     1       3.750   4.146  17.291  0.00  0.00    +0.000 A 
ENDROOT
BRANCH   1   8
ATOM      7  C   UNL     1       5.631   4.306  14.466  0.00  0.00    +0.000 C 
ATOM      8  C   UNL     1       5.893   4.307  15.965  0.00  0.00    +0.000 C 
ENDBRANCH   1   8
BRANCH   5   9
ATOM      9  C   UNL     1       1.639   3.931  18.676  0.00  0.00    +0.000 C 
ATOM     10  O   UNL     1       0.892   3.274  17.944  0.00  0.00    +0.000 OA
BRANCH   9  11
ATOM     11  C   UNL     1       1.508   3.945  20.192  0.00  0.00    +0.000 C 
ATOM     12  F   UNL     1       0.859   5.029  20.699  0.00  0.00    +0.000 F 
ATOM     13  F   UNL     1       0.836   2.854  20.656  0.00  0.00    +0.000 F 
ATOM     14  F   UNL     1       2.726   3.931  20.806  0.00  0.00    +0.000 F 
ENDBRANCH   9  11
ENDBRANCH   5   9
TORSDOF 3
ENDMDL
MODEL 3
REMARK VINA RESULT:      -6.3      3.760      4.943
REMARK  Name = 
REMARK  4 active torsions:
REMARK  status: ('A' for Active; 'I' for Inactive)
REMARK    1  A    between atoms: C_1  and  C_2
REMARK    2  A    between atoms: C_2  and  C_3
REMARK    3  A    between atoms: C_7  and  C_8
REMARK    4  A    between atoms: C_8  and  C_10
REMARK                            x       y       z     vdW  Elec       q    Type
REMARK                         _______ _______ _______ _____ _____    ______ ____
ROOT
ATOM      1  C   UNL     1       5.516   4.831  15.779  0.00  0.00    +0.000 A 
ATOM      2  C   UNL     1       5.405   6.202  16.035  0.00  0.00    +0.000 A 
ATOM      3  C   UNL     1       4.531   6.668  17.016  0.00  0.00    +0.000 A 
ATOM      4  C   UNL     1       3.750   5.769  17.738  0.00  0.00    +0.000 A 
ATOM      5  C   UNL     1       3.826   4.393  17.473  0.00  0.00    +0.000 A 
ATOM      6  C   UNL     1       4.723   3.929  16.505  0.00  0.00    +0.000 A 
ENDROOT
BRANCH   1   8
ATOM      7  C   UNL     1       5.835   3.837  13.515  0.00  0.00    +0.000 C 
ATOM      8  C   UNL     1       6.526   4.322  14.781  0.00  0.00    +0.000 C 
ENDBRANCH   1   8
BRANCH   5   9
ATOM      9  C   UNL     1       2.968   3.482  18.278  0.00  0.00    +0.000 C 
ATOM     10  O   UNL     1       3.520   2.557  18.880  0.00  0.00    +0.000 OA
BRANCH   9  11
ATOM     11  C   UNL     1       1.467   3.728  18.335  0.00  0.00    +0.000 C 
ATOM     12  F   UNL     1       0.970   4.464  17.303  0.00  0.00    +0.000 F 
ATOM     13  F   UNL     1       0.759   2.563  18.340  0.00  0.00    +0.000 F 
ATOM     14  F   UNL     1       1.105   4.398  19.467  0.00  0.00    +0.000 F 
ENDBRANCH   9  11
ENDBRANCH   5   9
TORSDOF 3
ENDMDL
MODEL 4
REMARK VINA RESULT:      -6.3      3.862      4.902
REMARK  Name = 
REMARK  4 active torsions:
REMARK  status: ('A' for Active; 'I' for Inactive)
REMARK    1  A    between atoms: C_1  and  C_2
REMARK    2  A    between atoms: C_2  and  C_3
REMARK    3  A    between atoms: C_7  and  C_8
REMARK    4  A    between atoms: C_8  and  C_10
REMARK                            x       y       z     vdW  Elec       q    Type
REMARK                         _______ _______ _______ _____ _____    ______ ____
ROOT
ATOM      1  C   UNL     1       5.187   4.692  15.801  0.00  0.00    +0.000 A 
ATOM      2  C   UNL     1       5.273   6.085  15.897  0.00  0.00    +0.000 A 
ATOM      3  C   UNL     1       4.634   6.762  16.936  0.00  0.00    +0.000 A 
ATOM      4  C   UNL     1       3.892   6.052  17.877  0.00  0.00    +0.000 A 
ATOM      5  C   UNL     1       3.769   4.658  17.778  0.00  0.00    +0.000 A 
ATOM      6  C   UNL     1       4.433   3.982  16.748  0.00  0.00    +0.000 A 
ENDROOT
BRANCH   1   8
ATOM      7  C   UNL     1       7.028   4.843  14.126  0.00  0.00    +0.000 C 
ATOM      8  C   UNL     1       5.951   3.954  14.730  0.00  0.00    +0.000 C 
ENDBRANCH   1   8
BRANCH   5   9
ATOM      9  C   UNL     1       2.963   3.955  18.813  0.00  0.00    +0.000 C 
ATOM     10  O   UNL     1       3.529   3.639  19.864  0.00  0.00    +0.000 OA
BRANCH   9  11
ATOM     11  C   UNL     1       1.494   3.667  18.545  0.00  0.00    +0.000 C 
ATOM     12  F   UNL     1       1.210   2.368  18.253  0.00  0.00    +0.000 F 
ATOM     13  F   UNL     1       0.708   3.993  19.610  0.00  0.00    +0.000 F 
ATOM     14  F   UNL     1       1.019   4.388  17.488  0.00  0.00    +0.000 F 
ENDBRANCH   9  11
ENDBRANCH   5   9
TORSDOF 3
ENDMDL
MODEL 5
REMARK VINA RESULT:      -6.3      3.462      4.798
REMARK  Name = 
REMARK  4 active torsions:
REMARK  status: ('A' for Active; 'I' for Inactive)
REMARK    1  A    between atoms: C_1  and  C_2
REMARK    2  A    between atoms: C_2  and  C_3
REMARK    3  A    between atoms: C_7  and  C_8
REMARK    4  A    between atoms: C_8  and  C_10
REMARK                            x       y       z     vdW  Elec       q    Type
REMARK                         _______ _______ _______ _____ _____    ______ ____
ROOT
ATOM      1  C   UNL     1       4.731   4.651  16.577  0.00  0.00    +0.000 A 
ATOM      2  C   UNL     1       4.806   6.038  16.737  0.00  0.00    +0.000 A 
ATOM      3  C   UNL     1       3.882   6.706  17.541  0.00  0.00    +0.000 A 
ATOM      4  C   UNL     1       2.869   5.994  18.177  0.00  0.00    +0.000 A 
ATOM      5  C   UNL     1       2.760   4.606  18.003  0.00  0.00    +0.000 A 
ATOM      6  C   UNL     1       3.705   3.938  17.216  0.00  0.00    +0.000 A 
ENDROOT
BRANCH   1   8
ATOM      7  C   UNL     1       6.846   4.884  15.276  0.00  0.00    +0.000 C 
ATOM      8  C   UNL     1       5.783   3.919  15.781  0.00  0.00    +0.000 C 
ENDBRANCH   1   8
BRANCH   5   9
ATOM      9  C   UNL     1       1.657   3.900  18.709  0.00  0.00    +0.000 C 
ATOM     10  O   UNL     1       0.856   3.257  18.024  0.00  0.00    +0.000 OA
BRANCH   9  11
ATOM     11  C   UNL     1       1.567   3.987  20.225  0.00  0.00    +0.000 C 
ATOM     12  F   UNL     1       0.872   2.976  20.815  0.00  0.00    +0.000 F 
ATOM     13  F   UNL     1       2.798   3.989  20.810  0.00  0.00    +0.000 F 
ATOM     14  F   UNL     1       0.952   5.135  20.631  0.00  0.00    +0.000 F 
ENDBRANCH   9  11
ENDBRANCH   5   9
TORSDOF 3
ENDMDL
MODEL 6
REMARK VINA RESULT:      -6.3      3.814      4.937
REMARK  Name = 
REMARK  4 active torsions:
REMARK  status: ('A' for Active; 'I' for Inactive)
REMARK    1  A    between atoms: C_1  and  C_2
REMARK    2  A    between atoms: C_2  and  C_3
REMARK    3  A    between atoms: C_7  and  C_8
REMARK    4  A    between atoms: C_8  and  C_10
REMARK                            x       y       z     vdW  Elec       q    Type
REMARK                         _______ _______ _______ _____ _____    ______ ____
ROOT
ATOM      1  C   UNL     1       5.463   4.672  15.853  0.00  0.00    +0.000 A 
ATOM      2  C   UNL     1       5.361   6.056  16.023  0.00  0.00    +0.000 A 
ATOM      3  C   UNL     1       4.504   6.587  16.987  0.00  0.00    +0.000 A 
ATOM      4  C   UNL     1       3.733   5.739  17.777  0.00  0.00    +0.000 A 
ATOM      5  C   UNL     1       3.800   4.348  17.599  0.00  0.00    +0.000 A 
ATOM      6  C   UNL     1       4.680   3.820  16.647  0.00  0.00    +0.000 A 
ENDROOT
BRANCH   1   8
ATOM      7  C   UNL     1       5.799   3.857  13.520  0.00  0.00    +0.000 C 
ATOM      8  C   UNL     1       6.455   4.096  14.873  0.00  0.00    +0.000 C 
ENDBRANCH   1   8
BRANCH   5   9
ATOM      9  C   UNL     1       2.953   3.493  18.473  0.00  0.00    +0.000 C 
ATOM     10  O   UNL     1       3.521   2.666  19.191  0.00  0.00    +0.000 OA
BRANCH   9  11
ATOM     11  C   UNL     1       1.442   3.676  18.457  0.00  0.00    +0.000 C 
ATOM     12  F   UNL     1       0.929   4.294  19.556  0.00  0.00    +0.000 F 
ATOM     13  F   UNL     1       1.029   4.411  17.385  0.00  0.00    +0.000 F 
ATOM     14  F   UNL     1       0.787   2.482  18.373  0.00  0.00    +0.000 F 
ENDBRANCH   9  11
ENDBRANCH   5   9
TORSDOF 3
ENDMDL
MODEL 7
REMARK VINA RESULT:      -6.3      3.409      4.672
REMARK  Name = 
REMARK  4 active torsions:
REMARK  status: ('A' for Active; 'I' for Inactive)
REMARK    1  A    between atoms: C_1  and  C_2
REMARK    2  A    between atoms: C_2  and  C_3
REMARK    3  A    between atoms: C_7  and  C_8
REMARK    4  A    between atoms: C_8  and  C_10
REMARK                            x       y       z     vdW  Elec       q    Type
REMARK                         _______ _______ _______ _____ _____    ______ ____
ROOT
ATOM      1  C   UNL     1       5.100   4.759  16.491  0.00  0.00    +0.000 A 
ATOM      2  C   UNL     1       5.195   6.141  16.676  0.00  0.00    +0.000 A 
ATOM      3  C   UNL     1       4.236   6.821  17.427  0.00  0.00    +0.000 A 
ATOM      4  C   UNL     1       3.166   6.125  17.983  0.00  0.00    +0.000 A 
ATOM      5  C   UNL     1       3.038   4.742  17.781  0.00  0.00    +0.000 A 
ATOM      6  C   UNL     1       4.016   4.062  17.049  0.00  0.00    +0.000 A 
ENDROOT
BRANCH   1   8
ATOM      7  C   UNL     1       5.978   4.106  14.250  0.00  0.00    +0.000 C 
ATOM      8  C   UNL     1       6.184   4.012  15.755  0.00  0.00    +0.000 C 
ENDBRANCH   1   8
BRANCH   5   9
ATOM      9  C   UNL     1       1.874   4.054  18.402  0.00  0.00    +0.000 C 
ATOM     10  O   UNL     1       1.026   3.565  17.648  0.00  0.00    +0.000 OA
BRANCH   9  11
ATOM     11  C   UNL     1       1.779   3.970  19.918  0.00  0.00    +0.000 C 
ATOM     12  F   UNL     1       2.973   4.028  20.569  0.00  0.00    +0.000 F 
ATOM     13  F   UNL     1       1.018   4.974  20.438  0.00  0.00    +0.000 F 
ATOM     14  F   UNL     1       1.199   2.804  20.327  0.00  0.00    +0.000 F 
ENDBRANCH   9  11
ENDBRANCH   5   9
TORSDOF 3
ENDMDL
MODEL 8
REMARK VINA RESULT:      -6.3      4.345      5.211
REMARK  Name = 
REMARK  4 active torsions:
REMARK  status: ('A' for Active; 'I' for Inactive)
REMARK    1  A    between atoms: C_1  and  C_2
REMARK    2  A    between atoms: C_2  and  C_3
REMARK    3  A    between atoms: C_7  and  C_8
REMARK    4  A    between atoms: C_8  and  C_10
REMARK                            x       y       z     vdW  Elec       q    Type
REMARK                         _______ _______ _______ _____ _____    ______ ____
ROOT
ATOM      1  C   UNL     1       6.151   3.581  12.456  0.00  0.00    +0.000 A 
ATOM      2  C   UNL     1       7.118   4.308  11.756  0.00  0.00    +0.000 A 
ATOM      3  C   UNL     1       7.926   5.231  12.421  0.00  0.00    +0.000 A 
ATOM      4  C   UNL     1       7.761   5.444  13.787  0.00  0.00    +0.000 A 
ATOM      5  C   UNL     1       6.774   4.746  14.499  0.00  0.00    +0.000 A 
ATOM      6  C   UNL     1       5.984   3.804  13.832  0.00  0.00    +0.000 A 
ENDROOT
BRANCH   1   8
ATOM      7  C   UNL     1       4.070   3.116  11.164  0.00  0.00    +0.000 C 
ATOM      8  C   UNL     1       5.339   2.521  11.755  0.00  0.00    +0.000 C 
ENDBRANCH   1   8
BRANCH   5   9
ATOM      9  C   UNL     1       6.646   5.016  15.957  0.00  0.00    +0.000 C 
ATOM     10  O   UNL     1       7.533   4.586  16.700  0.00  0.00    +0.000 OA
BRANCH   9  11
ATOM     11  C   UNL     1       5.451   5.808  16.466  0.00  0.00    +0.000 C 
ATOM     12  F   UNL     1       5.687   6.541  17.589  0.00  0.00    +0.000 F 
ATOM     13  F   UNL     1       4.988   6.688  15.534  0.00  0.00    +0.000 F 
ATOM     14  F   UNL     1       4.399   4.997  16.777  0.00  0.00    +0.000 F 
ENDBRANCH   9  11
ENDBRANCH   5   9
TORSDOF 3
ENDMDL
MODEL 9
REMARK VINA RESULT:      -6.2      2.645      3.029
REMARK  Name = 
REMARK  4 active torsions:
REMARK  status: ('A' for Active; 'I' for Inactive)
REMARK    1  A    between atoms: C_1  and  C_2
REMARK    2  A    between atoms: C_2  and  C_3
REMARK    3  A    between atoms: C_7  and  C_8
REMARK    4  A    between atoms: C_8  and  C_10
REMARK                            x       y       z     vdW  Elec       q    Type
REMARK                         _______ _______ _______ _____ _____    ______ ____
ROOT
ATOM      1  C   UNL     1       3.560   3.421  18.081  0.00  0.00    +0.000 A 
ATOM      2  C   UNL     1       3.565   4.277  19.186  0.00  0.00    +0.000 A 
ATOM      3  C   UNL     1       4.602   5.192  19.366  0.00  0.00    +0.000 A 
ATOM      4  C   UNL     1       5.649   5.246  18.450  0.00  0.00    +0.000 A 
ATOM      5  C   UNL     1       5.677   4.373  17.352  0.00  0.00    +0.000 A 
ATOM      6  C   UNL     1       4.621   3.474  17.164  0.00  0.00    +0.000 A 
ENDROOT
BRANCH   1   8
ATOM      7  C   UNL     1       1.124   3.051  18.466  0.00  0.00    +0.000 C 
ATOM      8  C   UNL     1       2.394   2.494  17.840  0.00  0.00    +0.000 C 
ENDBRANCH   1   8
BRANCH   5   9
ATOM      9  C   UNL     1       6.822   4.479  16.408  0.00  0.00    +0.000 C 
ATOM     10  O   UNL     1       7.962   4.407  16.877  0.00  0.00    +0.000 OA
BRANCH   9  11
ATOM     11  C   UNL     1       6.549   4.659  14.922  0.00  0.00    +0.000 C 
ATOM     12  F   UNL     1       6.254   3.511  14.252  0.00  0.00    +0.000 F 
ATOM     13  F   UNL     1       5.504   5.505  14.695  0.00  0.00    +0.000 F 
ATOM     14  F   UNL     1       7.620   5.195  14.270  0.00  0.00    +0.000 F 
ENDBRANCH   9  11
ENDBRANCH   5   9
TORSDOF 3
ENDMDL
