MODEL 1
REMARK VINA RESULT:      -8.6      0.000      0.000
REMARK  Name = 
REMARK  7 active torsions:
REMARK  status: ('A' for Active; 'I' for Inactive)
REMARK    1  A    between atoms: C_1  and  O_2
REMARK    2  A    between atoms: O_2  and  C_3
REMARK    3  A    between atoms: C_8  and  C_9
REMARK    4  A    between atoms: C_23  and  C_24
REMARK    5  A    between atoms: C_23  and  C_25
REMARK    6  A    between atoms: C_28  and  C_29
REMARK    7  A    between atoms: C_34  and  C_35
REMARK                            x       y       z     vdW  Elec       q    Type
REMARK                         _______ _______ _______ _____ _____    ______ ____
ROOT
ATOM      1  C   UNL     1       1.491   8.468  19.017  0.00  0.00    +0.000 A 
ATOM      2  C   UNL     1       0.751   9.713  19.191  0.00  0.00    +0.000 A 
ATOM      3  C   UNL     1       0.072  10.162  20.380  0.00  0.00    +0.000 A 
ATOM      4  C   UNL     1       0.122   9.259  21.417  0.00  0.00    +0.000 A 
ATOM      5  C   UNL     1       0.759   7.956  21.211  0.00  0.00    +0.000 A 
ATOM      6  C   UNL     1       1.513   7.531  20.042  0.00  0.00    +0.000 A 
ATOM      7  C   UNL     1      -0.447   9.670  22.754  0.00  0.00    +0.000 C 
ATOM      8  C   UNL     1      -0.791  11.198  22.982  0.00  0.00    +0.000 C 
ATOM      9  C   UNL     1      -0.158  12.346  21.950  0.00  0.00    +0.000 C 
ATOM     10  C   UNL     1      -0.815  13.989  21.627  0.00  0.00    +0.000 C 
ATOM     11  C   UNL     1      -0.618  15.481  22.149  0.00  0.00    +0.000 C 
ATOM     12  C   UNL     1      -1.166  14.426  20.103  0.00  0.00    +0.000 C 
ATOM     13  C   UNL     1      -2.013  13.657  22.388  0.00  0.00    +0.000 A 
ATOM     14  N   UNL     1      -2.006  14.145  23.676  0.00  0.00    +0.000 NA
ATOM     15  C   UNL     1      -3.111  14.096  24.362  0.00  0.00    +0.000 A 
ATOM     16  C   UNL     1      -3.042  14.977  25.571  0.00  0.00    +0.000 C 
ATOM     17  N   UNL     1      -4.130  13.378  23.882  0.00  0.00    +0.000 NA
ATOM     18  C   UNL     1      -3.974  12.686  22.615  0.00  0.00    +0.000 A 
ATOM     19  C   UNL     1      -2.850  12.772  21.840  0.00  0.00    +0.000 A 
ATOM     20  C   UNL     1      -2.238  11.881  20.610  0.00  0.00    +0.000 C 
ATOM     21  C   UNL     1      -0.443  11.653  20.588  0.00  0.00    +0.000 C 
ATOM     22  C   UNL     1       0.667  12.435  19.761  0.00  0.00    +0.000 C 
ENDROOT
BRANCH   6  23
ATOM     23  C   UNL     1       2.133   6.091  20.046  0.00  0.00    +0.000 C 
ATOM     24  O   UNL     1       1.836   5.484  21.111  0.00  0.00    +0.000 OA
ATOM     25  N   UNL     1       2.725   5.259  19.044  0.00  0.00    +0.000 N 
ATOM     26  C   UNL     1       2.598   3.780  19.237  0.00  0.00    +0.000 C 
ATOM     27  C   UNL     1       2.743   3.166  17.851  0.00  0.00    +0.000 C 
ATOM     28  C   UNL     1       3.846   4.064  17.369  0.00  0.00    +0.000 A 
ATOM     29  C   UNL     1       4.862   3.631  16.520  0.00  0.00    +0.000 A 
ATOM     30  C   UNL     1       6.024   4.399  16.487  0.00  0.00    +0.000 A 
ATOM     31  C   UNL     1       6.096   5.560  17.286  0.00  0.00    +0.000 A 
ATOM     32  C   UNL     1       4.999   6.030  18.073  0.00  0.00    +0.000 A 
ATOM     33  C   UNL     1       3.847   5.296  18.112  0.00  0.00    +0.000 A 
ENDBRANCH   6  23
BRANCH   1  35
ATOM     34  C   UNL     1       3.110   9.218  17.450  0.00  0.00    +0.000 C 
ATOM     35  O   UNL     1       2.211   8.199  17.880  0.00  0.00    +0.000 OA
ENDBRANCH   1  35
TORSDOF 2
ENDMDL
MODEL 2
REMARK VINA RESULT:      -8.0      1.634      3.454
REMARK  Name = 
REMARK  7 active torsions:
REMARK  status: ('A' for Active; 'I' for Inactive)
REMARK    1  A    between atoms: C_1  and  O_2
REMARK    2  A    between atoms: O_2  and  C_3
REMARK    3  A    between atoms: C_8  and  C_9
REMARK    4  A    between atoms: C_23  and  C_24
REMARK    5  A    between atoms: C_23  and  C_25
REMARK    6  A    between atoms: C_28  and  C_29
REMARK    7  A    between atoms: C_34  and  C_35
REMARK                            x       y       z     vdW  Elec       q    Type
REMARK                         _______ _______ _______ _____ _____    ______ ____
ROOT
ATOM      1  C   UNL     1       1.701   8.582  20.203  0.00  0.00    +0.000 A 
ATOM      2  C   UNL     1       1.039   9.613  20.996  0.00  0.00    +0.000 A 
ATOM      3  C   UNL     1       0.412  10.814  20.509  0.00  0.00    +0.000 A 
ATOM      4  C   UNL     1       0.516  10.979  19.147  0.00  0.00    +0.000 A 
ATOM      5  C   UNL     1       1.281  10.010  18.359  0.00  0.00    +0.000 A 
ATOM      6  C   UNL     1       1.849   8.757  18.833  0.00  0.00    +0.000 A 
ATOM      7  C   UNL     1      -0.211  12.137  18.506  0.00  0.00    +0.000 C 
ATOM      8  C   UNL     1      -1.286  12.915  19.369  0.00  0.00    +0.000 C 
ATOM      9  C   UNL     1      -1.882  12.218  20.764  0.00  0.00    +0.000 C 
ATOM     10  C   UNL     1      -2.616  13.068  22.168  0.00  0.00    +0.000 C 
ATOM     11  C   UNL     1      -4.060  13.486  22.692  0.00  0.00    +0.000 C 
ATOM     12  C   UNL     1      -1.995  12.847  23.652  0.00  0.00    +0.000 C 
ATOM     13  C   UNL     1      -2.220  14.349  21.597  0.00  0.00    +0.000 A 
ATOM     14  N   UNL     1      -3.239  15.002  20.940  0.00  0.00    +0.000 NA
ATOM     15  C   UNL     1      -3.054  16.242  20.589  0.00  0.00    +0.000 A 
ATOM     16  C   UNL     1      -4.347  16.907  20.231  0.00  0.00    +0.000 C 
ATOM     17  N   UNL     1      -1.822  16.752  20.672  0.00  0.00    +0.000 NA
ATOM     18  C   UNL     1      -0.738  15.914  21.154  0.00  0.00    +0.000 A 
ATOM     19  C   UNL     1      -0.914  14.629  21.591  0.00  0.00    +0.000 A 
ATOM     20  C   UNL     1       0.088  13.359  21.839  0.00  0.00    +0.000 C 
ATOM     21  C   UNL     1      -0.549  11.724  21.394  0.00  0.00    +0.000 C 
ATOM     22  C   UNL     1      -1.199  10.605  22.317  0.00  0.00    +0.000 C 
ENDROOT
BRANCH   6  23
ATOM     23  C   UNL     1       2.615   7.857  17.803  0.00  0.00    +0.000 C 
ATOM     24  O   UNL     1       2.966   8.534  16.798  0.00  0.00    +0.000 OA
ATOM     25  N   UNL     1       3.200   6.552  17.862  0.00  0.00    +0.000 N 
ATOM     26  C   UNL     1       4.368   6.298  16.962  0.00  0.00    +0.000 C 
ATOM     27  C   UNL     1       5.141   5.150  17.600  0.00  0.00    +0.000 C 
ATOM     28  C   UNL     1       3.949   4.337  18.016  0.00  0.00    +0.000 A 
ATOM     29  C   UNL     1       3.941   2.945  18.014  0.00  0.00    +0.000 A 
ATOM     30  C   UNL     1       2.694   2.323  18.003  0.00  0.00    +0.000 A 
ATOM     31  C   UNL     1       1.533   3.125  18.016  0.00  0.00    +0.000 A 
ATOM     32  C   UNL     1       1.575   4.551  18.115  0.00  0.00    +0.000 A 
ATOM     33  C   UNL     1       2.789   5.179  18.136  0.00  0.00    +0.000 A 
ENDBRANCH   6  23
BRANCH   1  35
ATOM     34  C   UNL     1       1.157   6.445  21.084  0.00  0.00    +0.000 C 
ATOM     35  O   UNL     1       2.153   7.411  20.758  0.00  0.00    +0.000 OA
ENDBRANCH   1  35
TORSDOF 2
ENDMDL
MODEL 3
REMARK VINA RESULT:      -7.9      1.186      1.350
REMARK  Name = 
REMARK  7 active torsions:
REMARK  status: ('A' for Active; 'I' for Inactive)
REMARK    1  A    between atoms: C_1  and  O_2
REMARK    2  A    between atoms: O_2  and  C_3
REMARK    3  A    between atoms: C_8  and  C_9
REMARK    4  A    between atoms: C_23  and  C_24
REMARK    5  A    between atoms: C_23  and  C_25
REMARK    6  A    between atoms: C_28  and  C_29
REMARK    7  A    between atoms: C_34  and  C_35
REMARK                            x       y       z     vdW  Elec       q    Type
REMARK                         _______ _______ _______ _____ _____    ______ ____
ROOT
ATOM      1  C   UNL     1       1.029   9.575  19.266  0.00  0.00    +0.000 A 
ATOM      2  C   UNL     1       0.295  10.832  19.359  0.00  0.00    +0.000 A 
ATOM      3  C   UNL     1      -0.415  11.342  20.503  0.00  0.00    +0.000 A 
ATOM      4  C   UNL     1      -0.404  10.489  21.584  0.00  0.00    +0.000 A 
ATOM      5  C   UNL     1       0.228   9.174  21.459  0.00  0.00    +0.000 A 
ATOM      6  C   UNL     1       1.012   8.688  20.334  0.00  0.00    +0.000 A 
ATOM      7  C   UNL     1      -1.010  10.968  22.882  0.00  0.00    +0.000 C 
ATOM      8  C   UNL     1      -1.347  12.507  23.027  0.00  0.00    +0.000 C 
ATOM      9  C   UNL     1      -0.673  13.601  21.960  0.00  0.00    +0.000 C 
ATOM     10  C   UNL     1      -1.305  15.231  21.540  0.00  0.00    +0.000 C 
ATOM     11  C   UNL     1      -1.110  16.744  21.996  0.00  0.00    +0.000 C 
ATOM     12  C   UNL     1      -1.607  15.597  19.987  0.00  0.00    +0.000 C 
ATOM     13  C   UNL     1      -2.528  14.944  22.279  0.00  0.00    +0.000 A 
ATOM     14  N   UNL     1      -2.555  15.494  23.542  0.00  0.00    +0.000 NA
ATOM     15  C   UNL     1      -3.680  15.486  24.196  0.00  0.00    +0.000 A 
ATOM     16  C   UNL     1      -3.639  16.423  25.364  0.00  0.00    +0.000 C 
ATOM     17  N   UNL     1      -4.691  14.753  23.720  0.00  0.00    +0.000 NA
ATOM     18  C   UNL     1      -4.504  14.000  22.493  0.00  0.00    +0.000 A 
ATOM     19  C   UNL     1      -3.356  14.040  21.749  0.00  0.00    +0.000 A 
ATOM     20  C   UNL     1      -2.716  13.087  20.582  0.00  0.00    +0.000 C 
ATOM     21  C   UNL     1      -0.923  12.845  20.624  0.00  0.00    +0.000 C 
ATOM     22  C   UNL     1       0.218  13.578  19.795  0.00  0.00    +0.000 C 
ENDROOT
BRANCH   6  23
ATOM     23  C   UNL     1       1.619   7.245  20.426  0.00  0.00    +0.000 C 
ATOM     24  O   UNL     1       1.517   6.795  21.600  0.00  0.00    +0.000 OA
ATOM     25  N   UNL     1       2.018   6.269  19.458  0.00  0.00    +0.000 N 
ATOM     26  C   UNL     1       1.924   4.834  19.873  0.00  0.00    +0.000 C 
ATOM     27  C   UNL     1       1.814   4.035  18.581  0.00  0.00    +0.000 C 
ATOM     28  C   UNL     1       2.815   4.829  17.791  0.00  0.00    +0.000 A 
ATOM     29  C   UNL     1       3.659   4.258  16.842  0.00  0.00    +0.000 A 
ATOM     30  C   UNL     1       4.798   4.982  16.496  0.00  0.00    +0.000 A 
ATOM     31  C   UNL     1       5.016   6.238  17.102  0.00  0.00    +0.000 A 
ATOM     32  C   UNL     1       4.081   6.840  18.001  0.00  0.00    +0.000 A 
ATOM     33  C   UNL     1       2.953   6.149  18.345  0.00  0.00    +0.000 A 
ENDBRANCH   6  23
BRANCH   1  35
ATOM     34  C   UNL     1       2.538  10.303  17.584  0.00  0.00    +0.000 C 
ATOM     35  O   UNL     1       1.780   9.246  18.165  0.00  0.00    +0.000 OA
ENDBRANCH   1  35
TORSDOF 2
ENDMDL
MODEL 4
REMARK VINA RESULT:      -7.9      6.577      9.728
REMARK  Name = 
REMARK  7 active torsions:
REMARK  status: ('A' for Active; 'I' for Inactive)
REMARK    1  A    between atoms: C_1  and  O_2
REMARK    2  A    between atoms: O_2  and  C_3
REMARK    3  A    between atoms: C_8  and  C_9
REMARK    4  A    between atoms: C_23  and  C_24
REMARK    5  A    between atoms: C_23  and  C_25
REMARK    6  A    between atoms: C_28  and  C_29
REMARK    7  A    between atoms: C_34  and  C_35
REMARK                            x       y       z     vdW  Elec       q    Type
REMARK                         _______ _______ _______ _____ _____    ______ ____
ROOT
ATOM      1  C   UNL     1       7.794   7.337  18.546  0.00  0.00    +0.000 A 
ATOM      2  C   UNL     1       8.780   8.376  18.824  0.00  0.00    +0.000 A 
ATOM      3  C   UNL     1       8.777   9.731  18.337  0.00  0.00    +0.000 A 
ATOM      4  C   UNL     1       7.731  10.008  17.485  0.00  0.00    +0.000 A 
ATOM      5  C   UNL     1       6.806   8.938  17.106  0.00  0.00    +0.000 A 
ATOM      6  C   UNL     1       6.759   7.592  17.656  0.00  0.00    +0.000 A 
ATOM      7  C   UNL     1       7.552  11.430  17.009  0.00  0.00    +0.000 C 
ATOM      8  C   UNL     1       8.372  12.571  17.736  0.00  0.00    +0.000 C 
ATOM      9  C   UNL     1       9.066  12.265  19.223  0.00  0.00    +0.000 C 
ATOM     10  C   UNL     1      10.465  13.124  19.960  0.00  0.00    +0.000 C 
ATOM     11  C   UNL     1      10.734  14.335  20.957  0.00  0.00    +0.000 C 
ATOM     12  C   UNL     1      11.771  12.277  20.421  0.00  0.00    +0.000 C 
ATOM     13  C   UNL     1      10.689  13.830  18.705  0.00  0.00    +0.000 A 
ATOM     14  N   UNL     1      10.183  15.111  18.691  0.00  0.00    +0.000 NA
ATOM     15  C   UNL     1      10.519  15.899  17.711  0.00  0.00    +0.000 A 
ATOM     16  C   UNL     1      10.200  17.328  18.024  0.00  0.00    +0.000 C 
ATOM     17  N   UNL     1      11.145  15.373  16.655  0.00  0.00    +0.000 NA
ATOM     18  C   UNL     1      11.433  13.949  16.637  0.00  0.00    +0.000 A 
ATOM     19  C   UNL     1      11.151  13.109  17.680  0.00  0.00    +0.000 A 
ATOM     20  C   UNL     1      11.017  11.485  17.835  0.00  0.00    +0.000 C 
ATOM     21  C   UNL     1       9.706  10.879  18.927  0.00  0.00    +0.000 C 
ATOM     22  C   UNL     1       9.790  10.401  20.441  0.00  0.00    +0.000 C 
ENDROOT
BRANCH   6  23
ATOM     23  C   UNL     1       5.662   6.611  17.115  0.00  0.00    +0.000 C 
ATOM     24  O   UNL     1       5.657   6.604  15.854  0.00  0.00    +0.000 OA
ATOM     25  N   UNL     1       4.869   5.579  17.710  0.00  0.00    +0.000 N 
ATOM     26  C   UNL     1       4.442   4.459  16.813  0.00  0.00    +0.000 C 
ATOM     27  C   UNL     1       4.166   3.275  17.730  0.00  0.00    +0.000 C 
ATOM     28  C   UNL     1       3.491   4.048  18.827  0.00  0.00    +0.000 A 
ATOM     29  C   UNL     1       2.440   3.535  19.582  0.00  0.00    +0.000 A 
ATOM     30  C   UNL     1       1.637   4.457  20.251  0.00  0.00    +0.000 A 
ATOM     31  C   UNL     1       1.943   5.831  20.143  0.00  0.00    +0.000 A 
ATOM     32  C   UNL     1       3.088   6.318  19.439  0.00  0.00    +0.000 A 
ATOM     33  C   UNL     1       3.893   5.429  18.783  0.00  0.00    +0.000 A 
ENDBRANCH   6  23
BRANCH   1  35
ATOM     34  C   UNL     1       8.075   4.989  18.330  0.00  0.00    +0.000 C 
ATOM     35  O   UNL     1       7.825   6.114  19.168  0.00  0.00    +0.000 OA
ENDBRANCH   1  35
TORSDOF 2
ENDMDL
MODEL 5
REMARK VINA RESULT:      -7.7      2.694      4.799
REMARK  Name = 
REMARK  7 active torsions:
REMARK  status: ('A' for Active; 'I' for Inactive)
REMARK    1  A    between atoms: C_1  and  O_2
REMARK    2  A    between atoms: O_2  and  C_3
REMARK    3  A    between atoms: C_8  and  C_9
REMARK    4  A    between atoms: C_23  and  C_24
REMARK    5  A    between atoms: C_23  and  C_25
REMARK    6  A    between atoms: C_28  and  C_29
REMARK    7  A    between atoms: C_34  and  C_35
REMARK                            x       y       z     vdW  Elec       q    Type
REMARK                         _______ _______ _______ _____ _____    ______ ____
ROOT
ATOM      1  C   UNL     1       1.218   8.783  20.186  0.00  0.00    +0.000 A 
ATOM      2  C   UNL     1       0.955  10.167  20.567  0.00  0.00    +0.000 A 
ATOM      3  C   UNL     1       1.263  11.351  19.807  0.00  0.00    +0.000 A 
ATOM      4  C   UNL     1       1.915  11.092  18.622  0.00  0.00    +0.000 A 
ATOM      5  C   UNL     1       2.289   9.716  18.290  0.00  0.00    +0.000 A 
ATOM      6  C   UNL     1       1.911   8.512  19.014  0.00  0.00    +0.000 A 
ATOM      7  C   UNL     1       2.178  12.244  17.682  0.00  0.00    +0.000 C 
ATOM      8  C   UNL     1       1.438  13.616  17.955  0.00  0.00    +0.000 C 
ATOM      9  C   UNL     1       0.116  13.650  18.974  0.00  0.00    +0.000 C 
ATOM     10  C   UNL     1      -0.515  15.070  19.880  0.00  0.00    +0.000 C 
ATOM     11  C   UNL     1      -1.608  16.214  19.700  0.00  0.00    +0.000 C 
ATOM     12  C   UNL     1      -0.675  14.984  21.493  0.00  0.00    +0.000 C 
ATOM     13  C   UNL     1       0.661  15.838  19.489  0.00  0.00    +0.000 A 
ATOM     14  N   UNL     1       0.441  16.686  18.427  0.00  0.00    +0.000 NA
ATOM     15  C   UNL     1       1.352  17.571  18.143  0.00  0.00    +0.000 A 
ATOM     16  C   UNL     1       0.819  18.630  17.227  0.00  0.00    +0.000 C 
ATOM     17  N   UNL     1       2.545  17.473  18.736  0.00  0.00    +0.000 NA
ATOM     18  C   UNL     1       2.781  16.393  19.678  0.00  0.00    +0.000 A 
ATOM     19  C   UNL     1       1.823  15.488  20.045  0.00  0.00    +0.000 A 
ATOM     20  C   UNL     1       1.856  14.014  20.757  0.00  0.00    +0.000 C 
ATOM     21  C   UNL     1       0.672  12.789  20.144  0.00  0.00    +0.000 C 
ATOM     22  C   UNL     1      -0.742  12.365  20.733  0.00  0.00    +0.000 C 
ENDROOT
BRANCH   6  23
ATOM     23  C   UNL     1       2.408   7.131  18.461  0.00  0.00    +0.000 C 
ATOM     24  O   UNL     1       2.626   7.203  17.221  0.00  0.00    +0.000 OA
ATOM     25  N   UNL     1       2.888   5.929  19.071  0.00  0.00    +0.000 N 
ATOM     26  C   UNL     1       3.854   5.110  18.273  0.00  0.00    +0.000 C 
ATOM     27  C   UNL     1       4.634   4.284  19.286  0.00  0.00    +0.000 C 
ATOM     28  C   UNL     1       3.475   3.951  20.181  0.00  0.00    +0.000 A 
ATOM     29  C   UNL     1       3.356   2.735  20.850  0.00  0.00    +0.000 A 
ATOM     30  C   UNL     1       2.081   2.380  21.288  0.00  0.00    +0.000 A 
ATOM     31  C   UNL     1       1.008   3.266  21.050  0.00  0.00    +0.000 A 
ATOM     32  C   UNL     1       1.181   4.551  20.446  0.00  0.00    +0.000 A 
ATOM     33  C   UNL     1       2.425   4.921  20.018  0.00  0.00    +0.000 A 
ENDBRANCH   6  23
BRANCH   1  35
ATOM     34  C   UNL     1      -0.145   8.034  21.981  0.00  0.00    +0.000 C 
ATOM     35  O   UNL     1       0.765   7.722  20.929  0.00  0.00    +0.000 OA
ENDBRANCH   1  35
TORSDOF 2
ENDMDL
MODEL 6
REMARK VINA RESULT:      -7.6      2.062      4.073
REMARK  Name = 
REMARK  7 active torsions:
REMARK  status: ('A' for Active; 'I' for Inactive)
REMARK    1  A    between atoms: C_1  and  O_2
REMARK    2  A    between atoms: O_2  and  C_3
REMARK    3  A    between atoms: C_8  and  C_9
REMARK    4  A    between atoms: C_23  and  C_24
REMARK    5  A    between atoms: C_23  and  C_25
REMARK    6  A    between atoms: C_28  and  C_29
REMARK    7  A    between atoms: C_34  and  C_35
REMARK                            x       y       z     vdW  Elec       q    Type
REMARK                         _______ _______ _______ _____ _____    ______ ____
ROOT
ATOM      1  C   UNL     1       1.191   9.153  20.405  0.00  0.00    +0.000 A 
ATOM      2  C   UNL     1       0.658  10.377  20.992  0.00  0.00    +0.000 A 
ATOM      3  C   UNL     1       0.463  11.643  20.335  0.00  0.00    +0.000 A 
ATOM      4  C   UNL     1       0.883  11.655  19.024  0.00  0.00    +0.000 A 
ATOM      5  C   UNL     1       1.529  10.466  18.463  0.00  0.00    +0.000 A 
ATOM      6  C   UNL     1       1.657   9.163  19.097  0.00  0.00    +0.000 A 
ATOM      7  C   UNL     1       0.615  12.889  18.195  0.00  0.00    +0.000 C 
ATOM      8  C   UNL     1      -0.387  13.971  18.768  0.00  0.00    +0.000 C 
ATOM      9  C   UNL     1      -1.411  13.562  20.021  0.00  0.00    +0.000 C 
ATOM     10  C   UNL     1      -2.184  14.684  21.195  0.00  0.00    +0.000 C 
ATOM     11  C   UNL     1      -3.555  15.475  21.370  0.00  0.00    +0.000 C 
ATOM     12  C   UNL     1      -1.957  14.459  22.787  0.00  0.00    +0.000 C 
ATOM     13  C   UNL     1      -1.373  15.780  20.679  0.00  0.00    +0.000 A 
ATOM     14  N   UNL     1      -2.040  16.592  19.789  0.00  0.00    +0.000 NA
ATOM     15  C   UNL     1      -1.485  17.716  19.442  0.00  0.00    +0.000 A 
ATOM     16  C   UNL     1      -2.469  18.631  18.781  0.00  0.00    +0.000 C 
ATOM     17  N   UNL     1      -0.209  17.929  19.776  0.00  0.00    +0.000 NA
ATOM     18  C   UNL     1       0.509  16.907  20.518  0.00  0.00    +0.000 A 
ATOM     19  C   UNL     1      -0.067  15.745  20.953  0.00  0.00    +0.000 A 
ATOM     20  C   UNL     1       0.515  14.302  21.464  0.00  0.00    +0.000 C 
ATOM     21  C   UNL     1      -0.402  12.829  20.950  0.00  0.00    +0.000 C 
ATOM     22  C   UNL     1      -1.486  11.981  21.746  0.00  0.00    +0.000 C 
ENDROOT
BRANCH   6  23
ATOM     23  C   UNL     1       2.371   8.019  18.297  0.00  0.00    +0.000 C 
ATOM     24  O   UNL     1       2.601   8.385  17.111  0.00  0.00    +0.000 OA
ATOM     25  N   UNL     1       3.017   6.798  18.668  0.00  0.00    +0.000 N 
ATOM     26  C   UNL     1       4.113   6.318  17.770  0.00  0.00    +0.000 C 
ATOM     27  C   UNL     1       4.991   5.417  18.629  0.00  0.00    +0.000 C 
ATOM     28  C   UNL     1       3.878   4.736  19.374  0.00  0.00    +0.000 A 
ATOM     29  C   UNL     1       3.933   3.402  19.769  0.00  0.00    +0.000 A 
ATOM     30  C   UNL     1       2.720   2.780  20.057  0.00  0.00    +0.000 A 
ATOM     31  C   UNL     1       1.529   3.530  19.952  0.00  0.00    +0.000 A 
ATOM     32  C   UNL     1       1.514   4.925  19.637  0.00  0.00    +0.000 A 
ATOM     33  C   UNL     1       2.695   5.555  19.360  0.00  0.00    +0.000 A 
ENDBRANCH   6  23
BRANCH   1  35
ATOM     34  C   UNL     1       0.091   7.699  21.926  0.00  0.00    +0.000 C 
ATOM     35  O   UNL     1       1.214   7.963  21.089  0.00  0.00    +0.000 OA
ENDBRANCH   1  35
TORSDOF 2
ENDMDL
MODEL 7
REMARK VINA RESULT:      -7.6      2.134      3.803
REMARK  Name = 
REMARK  7 active torsions:
REMARK  status: ('A' for Active; 'I' for Inactive)
REMARK    1  A    between atoms: C_1  and  O_2
REMARK    2  A    between atoms: O_2  and  C_3
REMARK    3  A    between atoms: C_8  and  C_9
REMARK    4  A    between atoms: C_23  and  C_24
REMARK    5  A    between atoms: C_23  and  C_25
REMARK    6  A    between atoms: C_28  and  C_29
REMARK    7  A    between atoms: C_34  and  C_35
REMARK                            x       y       z     vdW  Elec       q    Type
REMARK                         _______ _______ _______ _____ _____    ______ ____
ROOT
ATOM      1  C   UNL     1       1.518   6.762  20.213  0.00  0.00    +0.000 A 
ATOM      2  C   UNL     1       1.121   8.054  20.762  0.00  0.00    +0.000 A 
ATOM      3  C   UNL     1       1.165   9.331  20.099  0.00  0.00    +0.000 A 
ATOM      4  C   UNL     1       1.689   9.275  18.827  0.00  0.00    +0.000 A 
ATOM      5  C   UNL     1       2.200   8.002  18.313  0.00  0.00    +0.000 A 
ATOM      6  C   UNL     1       2.086   6.698  18.947  0.00  0.00    +0.000 A 
ATOM      7  C   UNL     1       1.671  10.530  17.988  0.00  0.00    +0.000 C 
ATOM      8  C   UNL     1       0.792  11.749  18.484  0.00  0.00    +0.000 C 
ATOM      9  C   UNL     1      -0.380  11.499  19.646  0.00  0.00    +0.000 C 
ATOM     10  C   UNL     1      -1.077  12.728  20.760  0.00  0.00    +0.000 C 
ATOM     11  C   UNL     1      -2.328  13.709  20.826  0.00  0.00    +0.000 C 
ATOM     12  C   UNL     1      -1.015  12.480  22.363  0.00  0.00    +0.000 C 
ATOM     13  C   UNL     1      -0.076  13.691  20.319  0.00  0.00    +0.000 A 
ATOM     14  N   UNL     1      -0.543  14.586  19.382  0.00  0.00    +0.000 NA
ATOM     15  C   UNL     1       0.196  15.617  19.089  0.00  0.00    +0.000 A 
ATOM     16  C   UNL     1      -0.589  16.660  18.355  0.00  0.00    +0.000 C 
ATOM     17  N   UNL     1       1.457  15.645  19.528  0.00  0.00    +0.000 NA
ATOM     18  C   UNL     1       1.957  14.534  20.319  0.00  0.00    +0.000 A 
ATOM     19  C   UNL     1       1.185  13.469  20.698  0.00  0.00    +0.000 A 
ATOM     20  C   UNL     1       1.508  11.961  21.246  0.00  0.00    +0.000 C 
ATOM     21  C   UNL     1       0.433  10.632  20.649  0.00  0.00    +0.000 C 
ATOM     22  C   UNL     1      -0.823   9.955  21.349  0.00  0.00    +0.000 C 
ENDROOT
BRANCH   6  23
ATOM     23  C   UNL     1       2.690   5.458  18.201  0.00  0.00    +0.000 C 
ATOM     24  O   UNL     1       1.798   4.594  17.982  0.00  0.00    +0.000 OA
ATOM     25  N   UNL     1       3.924   5.210  17.520  0.00  0.00    +0.000 N 
ATOM     26  C   UNL     1       3.890   4.206  16.412  0.00  0.00    +0.000 C 
ATOM     27  C   UNL     1       5.069   4.543  15.509  0.00  0.00    +0.000 C 
ATOM     28  C   UNL     1       6.050   4.857  16.601  0.00  0.00    +0.000 A 
ATOM     29  C   UNL     1       7.410   4.569  16.508  0.00  0.00    +0.000 A 
ATOM     30  C   UNL     1       8.124   4.508  17.703  0.00  0.00    +0.000 A 
ATOM     31  C   UNL     1       7.445   4.759  18.916  0.00  0.00    +0.000 A 
ATOM     32  C   UNL     1       6.069   5.147  18.970  0.00  0.00    +0.000 A 
ATOM     33  C   UNL     1       5.354   5.221  17.807  0.00  0.00    +0.000 A 
ENDBRANCH   6  23
BRANCH   1  35
ATOM     34  C   UNL     1       2.482   4.862  21.261  0.00  0.00    +0.000 C 
ATOM     35  O   UNL     1       1.312   5.585  20.889  0.00  0.00    +0.000 OA
ENDBRANCH   1  35
TORSDOF 2
ENDMDL
MODEL 8
REMARK VINA RESULT:      -7.6      2.105      3.934
REMARK  Name = 
REMARK  7 active torsions:
REMARK  status: ('A' for Active; 'I' for Inactive)
REMARK    1  A    between atoms: C_1  and  O_2
REMARK    2  A    between atoms: O_2  and  C_3
REMARK    3  A    between atoms: C_8  and  C_9
REMARK    4  A    between atoms: C_23  and  C_24
REMARK    5  A    between atoms: C_23  and  C_25
REMARK    6  A    between atoms: C_28  and  C_29
REMARK    7  A    between atoms: C_34  and  C_35
REMARK                            x       y       z     vdW  Elec       q    Type
REMARK                         _______ _______ _______ _____ _____    ______ ____
ROOT
ATOM      1  C   UNL     1       0.821   9.732  21.039  0.00  0.00    +0.000 A 
ATOM      2  C   UNL     1       0.072  10.802  21.689  0.00  0.00    +0.000 A 
ATOM      3  C   UNL     1      -0.945  11.634  21.100  0.00  0.00    +0.000 A 
ATOM      4  C   UNL     1      -1.161  11.378  19.765  0.00  0.00    +0.000 A 
ATOM      5  C   UNL     1      -0.330  10.388  19.075  0.00  0.00    +0.000 A 
ATOM      6  C   UNL     1       0.642   9.492  19.683  0.00  0.00    +0.000 A 
ATOM      7  C   UNL     1      -2.290  12.100  19.069  0.00  0.00    +0.000 C 
ATOM      8  C   UNL     1      -3.345  12.874  19.961  0.00  0.00    +0.000 C 
ATOM      9  C   UNL     1      -3.438  12.545  21.595  0.00  0.00    +0.000 C 
ATOM     10  C   UNL     1      -4.085  13.626  22.879  0.00  0.00    +0.000 C 
ATOM     11  C   UNL     1      -5.455  13.884  23.648  0.00  0.00    +0.000 C 
ATOM     12  C   UNL     1      -3.146  14.016  24.145  0.00  0.00    +0.000 C 
ATOM     13  C   UNL     1      -4.177  14.714  21.914  0.00  0.00    +0.000 A 
ATOM     14  N   UNL     1      -5.445  14.904  21.412  0.00  0.00    +0.000 NA
ATOM     15  C   UNL     1      -5.681  15.980  20.718  0.00  0.00    +0.000 A 
ATOM     16  C   UNL     1      -7.152  16.219  20.564  0.00  0.00    +0.000 C 
ATOM     17  N   UNL     1      -4.647  16.730  20.332  0.00  0.00    +0.000 NA
ATOM     18  C   UNL     1      -3.301  16.328  20.701  0.00  0.00    +0.000 A 
ATOM     19  C   UNL     1      -3.027  15.239  21.484  0.00  0.00    +0.000 A 
ATOM     20  C   UNL     1      -1.686  14.345  21.769  0.00  0.00    +0.000 C 
ATOM     21  C   UNL     1      -1.923  12.559  21.947  0.00  0.00    +0.000 C 
ATOM     22  C   UNL     1      -2.044  11.680  23.266  0.00  0.00    +0.000 C 
ENDROOT
BRANCH   6  23
ATOM     23  C   UNL     1       1.407   8.490  18.751  0.00  0.00    +0.000 C 
ATOM     24  O   UNL     1       1.381   8.890  17.554  0.00  0.00    +0.000 OA
ATOM     25  N   UNL     1       2.304   7.400  18.984  0.00  0.00    +0.000 N 
ATOM     26  C   UNL     1       3.310   7.118  17.913  0.00  0.00    +0.000 C 
ATOM     27  C   UNL     1       4.454   6.383  18.602  0.00  0.00    +0.000 C 
ATOM     28  C   UNL     1       3.605   5.518  19.490  0.00  0.00    +0.000 A 
ATOM     29  C   UNL     1       3.950   4.214  19.835  0.00  0.00    +0.000 A 
ATOM     30  C   UNL     1       2.922   3.390  20.290  0.00  0.00    +0.000 A 
ATOM     31  C   UNL     1       1.618   3.922  20.391  0.00  0.00    +0.000 A 
ATOM     32  C   UNL     1       1.315   5.293  20.121  0.00  0.00    +0.000 A 
ATOM     33  C   UNL     1       2.312   6.119  19.682  0.00  0.00    +0.000 A 
ENDBRANCH   6  23
BRANCH   1  35
ATOM     34  C   UNL     1       1.764   9.140  23.136  0.00  0.00    +0.000 C 
ATOM     35  O   UNL     1       1.679   8.914  21.732  0.00  0.00    +0.000 OA
ENDBRANCH   1  35
TORSDOF 2
ENDMDL
MODEL 9
REMARK VINA RESULT:      -7.3      6.571      7.528
REMARK  Name = 
REMARK  7 active torsions:
REMARK  status: ('A' for Active; 'I' for Inactive)
REMARK    1  A    between atoms: C_1  and  O_2
REMARK    2  A    between atoms: O_2  and  C_3
REMARK    3  A    between atoms: C_8  and  C_9
REMARK    4  A    between atoms: C_23  and  C_24
REMARK    5  A    between atoms: C_23  and  C_25
REMARK    6  A    between atoms: C_28  and  C_29
REMARK    7  A    between atoms: C_34  and  C_35
REMARK                            x       y       z     vdW  Elec       q    Type
REMARK                         _______ _______ _______ _____ _____    ______ ____
ROOT
ATOM      1  C   UNL     1       5.925  15.513  19.003  0.00  0.00    +0.000 A 
ATOM      2  C   UNL     1       4.509  15.668  18.690  0.00  0.00    +0.000 A 
ATOM      3  C   UNL     1       3.392  15.403  19.559  0.00  0.00    +0.000 A 
ATOM      4  C   UNL     1       3.756  14.910  20.791  0.00  0.00    +0.000 A 
ATOM      5  C   UNL     1       5.168  14.638  21.071  0.00  0.00    +0.000 A 
ATOM      6  C   UNL     1       6.304  14.977  20.227  0.00  0.00    +0.000 A 
ATOM      7  C   UNL     1       2.680  14.711  21.831  0.00  0.00    +0.000 C 
ATOM      8  C   UNL     1       1.258  15.354  21.568  0.00  0.00    +0.000 C 
ATOM      9  C   UNL     1       1.094  16.541  20.406  0.00  0.00    +0.000 C 
ATOM     10  C   UNL     1      -0.410  16.997  19.532  0.00  0.00    +0.000 C 
ATOM     11  C   UNL     1      -1.594  18.054  19.660  0.00  0.00    +0.000 C 
ATOM     12  C   UNL     1      -0.433  16.967  17.909  0.00  0.00    +0.000 C 
ATOM     13  C   UNL     1      -1.091  15.845  20.108  0.00  0.00    +0.000 A 
ATOM     14  N   UNL     1      -1.882  16.154  21.193  0.00  0.00    +0.000 NA
ATOM     15  C   UNL     1      -2.700  15.246  21.640  0.00  0.00    +0.000 A 
ATOM     16  C   UNL     1      -3.725  15.839  22.557  0.00  0.00    +0.000 C 
ATOM     17  N   UNL     1      -2.579  13.996  21.185  0.00  0.00    +0.000 NA
ATOM     18  C   UNL     1      -1.548  13.695  20.206  0.00  0.00    +0.000 A 
ATOM     19  C   UNL     1      -0.718  14.641  19.669  0.00  0.00    +0.000 A 
ATOM     20  C   UNL     1       0.708  14.587  18.867  0.00  0.00    +0.000 C 
ATOM     21  C   UNL     1       1.907  15.887  19.253  0.00  0.00    +0.000 C 
ATOM     22  C   UNL     1       2.222  17.237  18.476  0.00  0.00    +0.000 C 
ENDROOT
BRANCH   6  23
ATOM     23  C   UNL     1       7.740  14.610  20.739  0.00  0.00    +0.000 C 
ATOM     24  O   UNL     1       7.971  15.166  21.848  0.00  0.00    +0.000 OA
ATOM     25  N   UNL     1       8.709  13.625  20.366  0.00  0.00    +0.000 N 
ATOM     26  C   UNL     1       9.631  13.147  21.443  0.00  0.00    +0.000 C 
ATOM     27  C   UNL     1      10.113  11.772  20.999  0.00  0.00    +0.000 C 
ATOM     28  C   UNL     1      10.290  12.103  19.545  0.00  0.00    +0.000 A 
ATOM     29  C   UNL     1      11.300  11.555  18.758  0.00  0.00    +0.000 A 
ATOM     30  C   UNL     1      11.624  12.235  17.586  0.00  0.00    +0.000 A 
ATOM     31  C   UNL     1      10.909  13.407  17.259  0.00  0.00    +0.000 A 
ATOM     32  C   UNL     1       9.812  13.891  18.038  0.00  0.00    +0.000 A 
ATOM     33  C   UNL     1       9.473  13.233  19.187  0.00  0.00    +0.000 A 
ENDBRANCH   6  23
BRANCH   1  35
ATOM     34  C   UNL     1       7.555  17.151  18.459  0.00  0.00    +0.000 C 
ATOM     35  O   UNL     1       6.914  15.919  18.142  0.00  0.00    +0.000 OA
ENDBRANCH   1  35
TORSDOF 2
ENDMDL
