MODEL 1
REMARK VINA RESULT:      -7.5      0.000      0.000
REMARK  Name = 
REMARK  6 active torsions:
REMARK  status: ('A' for Active; 'I' for Inactive)
REMARK    1  A    between atoms: C_1  and  C_2
REMARK    2  A    between atoms: C_7  and  N_8
REMARK    3  A    between atoms: C_10  and  C_11
REMARK    4  A    between atoms: C_11  and  O_13
REMARK    5  A    between atoms: C_14  and  C_15
REMARK    6  A    between atoms: C_16  and  C_17
REMARK                            x       y       z     vdW  Elec       q    Type
REMARK                         _______ _______ _______ _____ _____    ______ ____
ROOT
ATOM      1  N   UNL     1       4.260   4.537  18.599  0.00  0.00    +0.000 N 
ATOM      2  N   UNL     1       5.348   5.169  19.170  0.00  0.00    +0.000 NA
ATOM      3  C   UNL     1       6.391   5.386  18.425  0.00  0.00    +0.000 A 
ATOM      4  C   UNL     1       6.474   5.083  16.979  0.00  0.00    +0.000 A 
ATOM      5  C   UNL     1       7.666   5.424  16.124  0.00  0.00    +0.000 C 
ATOM      6  C   UNL     1       5.375   4.494  16.468  0.00  0.00    +0.000 A 
ATOM      7  C   UNL     1       4.198   4.125  17.270  0.00  0.00    +0.000 A 
ATOM      8  O   UNL     1       3.260   3.536  16.742  0.00  0.00    +0.000 OA
ENDROOT
BRANCH   1  15
ATOM      9  C   UNL     1       4.650   2.060  20.142  0.00  0.00    +0.000 C 
ATOM     10  C   UNL     1       3.409   2.903  20.239  0.00  0.00    +0.000 A 
ATOM     11  C   UNL     1       2.382   2.511  21.112  0.00  0.00    +0.000 A 
ATOM     12  C   UNL     1       1.258   3.317  21.303  0.00  0.00    +0.000 A 
ATOM     13  C   UNL     1       1.150   4.534  20.637  0.00  0.00    +0.000 A 
ATOM     14  C   UNL     1       2.162   4.938  19.768  0.00  0.00    +0.000 A 
ATOM     15  C   UNL     1       3.283   4.121  19.542  0.00  0.00    +0.000 A 
ENDBRANCH   1  15
BRANCH   3  16
ATOM     16  C   UNL     1       7.586   6.030  19.165  0.00  0.00    +0.000 C 
ATOM     17  O   UNL     1       8.215   6.981  18.763  0.00  0.00    +0.000 OA
BRANCH  16  18
ATOM     18  O   UNL     1       7.849   5.364  20.302  0.00  0.00    +0.000 OA
ATOM     19  H   UNL     1       8.134   4.445  20.095  0.00  0.00    +0.000 HD
ENDBRANCH  16  18
ENDBRANCH   3  16
BRANCH   6  20
ATOM     20  C   UNL     1       5.375   4.193  14.977  0.00  0.00    +0.000 C 
ATOM     21  N   UNL     1       5.375   3.945  13.741  0.00  0.00    +0.000 NA
ENDBRANCH   6  20
TORSDOF 4
ENDMDL
MODEL 2
REMARK VINA RESULT:      -7.3      0.486      1.586
REMARK  Name = 
REMARK  6 active torsions:
REMARK  status: ('A' for Active; 'I' for Inactive)
REMARK    1  A    between atoms: C_1  and  C_2
REMARK    2  A    between atoms: C_7  and  N_8
REMARK    3  A    between atoms: C_10  and  C_11
REMARK    4  A    between atoms: C_11  and  O_13
REMARK    5  A    between atoms: C_14  and  C_15
REMARK    6  A    between atoms: C_16  and  C_17
REMARK                            x       y       z     vdW  Elec       q    Type
REMARK                         _______ _______ _______ _____ _____    ______ ____
ROOT
ATOM      1  N   UNL     1       4.481   4.581  18.585  0.00  0.00    +0.000 N 
ATOM      2  N   UNL     1       5.593   5.225  19.089  0.00  0.00    +0.000 NA
ATOM      3  C   UNL     1       6.592   5.442  18.286  0.00  0.00    +0.000 A 
ATOM      4  C   UNL     1       6.599   5.125  16.841  0.00  0.00    +0.000 A 
ATOM      5  C   UNL     1       7.739   5.465  15.919  0.00  0.00    +0.000 C 
ATOM      6  C   UNL     1       5.478   4.524  16.397  0.00  0.00    +0.000 A 
ATOM      7  C   UNL     1       4.350   4.155  17.266  0.00  0.00    +0.000 A 
ATOM      8  O   UNL     1       3.388   3.554  16.796  0.00  0.00    +0.000 OA
ENDROOT
BRANCH   1  15
ATOM      9  C   UNL     1       2.299   6.373  19.424  0.00  0.00    +0.000 C 
ATOM     10  C   UNL     1       2.553   5.033  20.056  0.00  0.00    +0.000 A 
ATOM     11  C   UNL     1       1.710   4.594  21.090  0.00  0.00    +0.000 A 
ATOM     12  C   UNL     1       1.852   3.316  21.635  0.00  0.00    +0.000 A 
ATOM     13  C   UNL     1       2.827   2.452  21.146  0.00  0.00    +0.000 A 
ATOM     14  C   UNL     1       3.670   2.873  20.119  0.00  0.00    +0.000 A 
ATOM     15  C   UNL     1       3.559   4.167  19.584  0.00  0.00    +0.000 A 
ENDBRANCH   1  15
BRANCH   3  16
ATOM     16  C   UNL     1       7.821   6.101  18.954  0.00  0.00    +0.000 C 
ATOM     17  O   UNL     1       8.265   7.187  18.661  0.00  0.00    +0.000 OA
BRANCH  16  18
ATOM     18  O   UNL     1       8.347   5.286  19.883  0.00  0.00    +0.000 OA
ATOM     19  H   UNL     1       9.249   5.004  19.611  0.00  0.00    +0.000 HD
ENDBRANCH  16  18
ENDBRANCH   3  16
BRANCH   6  20
ATOM     20  C   UNL     1       5.399   4.208  14.911  0.00  0.00    +0.000 C 
ATOM     21  N   UNL     1       5.332   3.946  13.680  0.00  0.00    +0.000 NA
ENDBRANCH   6  20
TORSDOF 4
ENDMDL
MODEL 3
REMARK VINA RESULT:      -7.0      2.516      5.770
REMARK  Name = 
REMARK  6 active torsions:
REMARK  status: ('A' for Active; 'I' for Inactive)
REMARK    1  A    between atoms: C_1  and  C_2
REMARK    2  A    between atoms: C_7  and  N_8
REMARK    3  A    between atoms: C_10  and  C_11
REMARK    4  A    between atoms: C_11  and  O_13
REMARK    5  A    between atoms: C_14  and  C_15
REMARK    6  A    between atoms: C_16  and  C_17
REMARK                            x       y       z     vdW  Elec       q    Type
REMARK                         _______ _______ _______ _____ _____    ______ ____
ROOT
ATOM      1  N   UNL     1       4.367   5.288  18.202  0.00  0.00    +0.000 N 
ATOM      2  N   UNL     1       3.784   6.534  18.078  0.00  0.00    +0.000 NA
ATOM      3  C   UNL     1       2.793   6.828  18.866  0.00  0.00    +0.000 A 
ATOM      4  C   UNL     1       2.290   5.957  19.952  0.00  0.00    +0.000 A 
ATOM      5  C   UNL     1       1.195   6.361  20.902  0.00  0.00    +0.000 C 
ATOM      6  C   UNL     1       2.912   4.766  20.045  0.00  0.00    +0.000 A 
ATOM      7  C   UNL     1       3.971   4.323  19.124  0.00  0.00    +0.000 A 
ATOM      8  O   UNL     1       4.448   3.197  19.238  0.00  0.00    +0.000 OA
ENDROOT
BRANCH   1  15
ATOM      9  C   UNL     1       7.272   5.605  18.566  0.00  0.00    +0.000 C 
ATOM     10  C   UNL     1       6.647   5.181  17.266  0.00  0.00    +0.000 A 
ATOM     11  C   UNL     1       7.475   4.907  16.166  0.00  0.00    +0.000 A 
ATOM     12  C   UNL     1       6.941   4.417  14.972  0.00  0.00    +0.000 A 
ATOM     13  C   UNL     1       5.574   4.178  14.865  0.00  0.00    +0.000 A 
ATOM     14  C   UNL     1       4.739   4.444  15.948  0.00  0.00    +0.000 A 
ATOM     15  C   UNL     1       5.260   4.968  17.144  0.00  0.00    +0.000 A 
ENDBRANCH   1  15
BRANCH   3  16
ATOM     16  C   UNL     1       2.157   8.213  18.608  0.00  0.00    +0.000 C 
ATOM     17  O   UNL     1       1.543   8.854  19.429  0.00  0.00    +0.000 OA
BRANCH  16  18
ATOM     18  O   UNL     1       2.353   8.591  17.334  0.00  0.00    +0.000 OA
ATOM     19  H   UNL     1       3.300   8.820  17.193  0.00  0.00    +0.000 HD
ENDBRANCH  16  18
ENDBRANCH   3  16
BRANCH   6  20
ATOM     20  C   UNL     1       2.473   3.837  21.166  0.00  0.00    +0.000 C 
ATOM     21  N   UNL     1       2.109   3.067  22.096  0.00  0.00    +0.000 NA
ENDBRANCH   6  20
TORSDOF 4
ENDMDL
MODEL 4
REMARK VINA RESULT:      -6.9      2.189      5.837
REMARK  Name = 
REMARK  6 active torsions:
REMARK  status: ('A' for Active; 'I' for Inactive)
REMARK    1  A    between atoms: C_1  and  C_2
REMARK    2  A    between atoms: C_7  and  N_8
REMARK    3  A    between atoms: C_10  and  C_11
REMARK    4  A    between atoms: C_11  and  O_13
REMARK    5  A    between atoms: C_14  and  C_15
REMARK    6  A    between atoms: C_16  and  C_17
REMARK                            x       y       z     vdW  Elec       q    Type
REMARK                         _______ _______ _______ _____ _____    ______ ____
ROOT
ATOM      1  N   UNL     1       4.167   4.967  17.430  0.00  0.00    +0.000 N 
ATOM      2  N   UNL     1       3.851   3.803  18.103  0.00  0.00    +0.000 NA
ATOM      3  C   UNL     1       3.089   3.889  19.153  0.00  0.00    +0.000 A 
ATOM      4  C   UNL     1       2.460   5.137  19.639  0.00  0.00    +0.000 A 
ATOM      5  C   UNL     1       1.514   5.191  20.809  0.00  0.00    +0.000 C 
ATOM      6  C   UNL     1       2.779   6.237  18.930  0.00  0.00    +0.000 A 
ATOM      7  C   UNL     1       3.715   6.233  17.794  0.00  0.00    +0.000 A 
ATOM      8  O   UNL     1       4.002   7.288  17.236  0.00  0.00    +0.000 OA
ENDROOT
BRANCH   1  15
ATOM      9  C   UNL     1       6.992   5.282  18.202  0.00  0.00    +0.000 C 
ATOM     10  C   UNL     1       6.549   5.024  16.789  0.00  0.00    +0.000 A 
ATOM     11  C   UNL     1       7.517   4.912  15.778  0.00  0.00    +0.000 A 
ATOM     12  C   UNL     1       7.153   4.576  14.472  0.00  0.00    +0.000 A 
ATOM     13  C   UNL     1       5.819   4.331  14.160  0.00  0.00    +0.000 A 
ATOM     14  C   UNL     1       4.847   4.437  15.153  0.00  0.00    +0.000 A 
ATOM     15  C   UNL     1       5.196   4.806  16.463  0.00  0.00    +0.000 A 
ENDBRANCH   1  15
BRANCH   3  16
ATOM     16  C   UNL     1       2.849   2.548  19.883  0.00  0.00    +0.000 C 
ATOM     17  O   UNL     1       3.286   2.270  20.976  0.00  0.00    +0.000 OA
BRANCH  16  18
ATOM     18  O   UNL     1       2.114   1.722  19.120  0.00  0.00    +0.000 OA
ATOM     19  H   UNL     1       2.541   1.608  18.241  0.00  0.00    +0.000 HD
ENDBRANCH  16  18
ENDBRANCH   3  16
BRANCH   6  20
ATOM     20  C   UNL     1       2.134   7.549  19.349  0.00  0.00    +0.000 C 
ATOM     21  N   UNL     1       1.600   8.636  19.696  0.00  0.00    +0.000 NA
ENDBRANCH   6  20
TORSDOF 4
ENDMDL
MODEL 5
REMARK VINA RESULT:      -6.6      2.710      5.784
REMARK  Name = 
REMARK  6 active torsions:
REMARK  status: ('A' for Active; 'I' for Inactive)
REMARK    1  A    between atoms: C_1  and  C_2
REMARK    2  A    between atoms: C_7  and  N_8
REMARK    3  A    between atoms: C_10  and  C_11
REMARK    4  A    between atoms: C_11  and  O_13
REMARK    5  A    between atoms: C_14  and  C_15
REMARK    6  A    between atoms: C_16  and  C_17
REMARK                            x       y       z     vdW  Elec       q    Type
REMARK                         _______ _______ _______ _____ _____    ______ ____
ROOT
ATOM      1  N   UNL     1       3.784   5.443  18.212  0.00  0.00    +0.000 N 
ATOM      2  N   UNL     1       3.271   4.529  19.112  0.00  0.00    +0.000 NA
ATOM      3  C   UNL     1       2.413   4.952  19.992  0.00  0.00    +0.000 A 
ATOM      4  C   UNL     1       1.873   6.328  20.052  0.00  0.00    +0.000 A 
ATOM      5  C   UNL     1       0.816   6.765  21.030  0.00  0.00    +0.000 C 
ATOM      6  C   UNL     1       2.386   7.170  19.133  0.00  0.00    +0.000 A 
ATOM      7  C   UNL     1       3.435   6.790  18.174  0.00  0.00    +0.000 A 
ATOM      8  O   UNL     1       3.895   7.631  17.407  0.00  0.00    +0.000 OA
ENDROOT
BRANCH   1  15
ATOM      9  C   UNL     1       6.489   5.468  19.377  0.00  0.00    +0.000 C 
ATOM     10  C   UNL     1       6.203   5.020  17.971  0.00  0.00    +0.000 A 
ATOM     11  C   UNL     1       7.263   4.575  17.165  0.00  0.00    +0.000 A 
ATOM     12  C   UNL     1       7.026   4.059  15.889  0.00  0.00    +0.000 A 
ATOM     13  C   UNL     1       5.724   3.963  15.406  0.00  0.00    +0.000 A 
ATOM     14  C   UNL     1       4.661   4.398  16.195  0.00  0.00    +0.000 A 
ATOM     15  C   UNL     1       4.889   4.950  17.466  0.00  0.00    +0.000 A 
ENDBRANCH   1  15
BRANCH   3  16
ATOM     16  C   UNL     1       1.949   3.878  21.003  0.00  0.00    +0.000 C 
ATOM     17  O   UNL     1       2.546   3.575  22.010  0.00  0.00    +0.000 OA
BRANCH  16  18
ATOM     18  O   UNL     1       0.807   3.304  20.590  0.00  0.00    +0.000 OA
ATOM     19  H   UNL     1       0.070   3.550  21.193  0.00  0.00    +0.000 HD
ENDBRANCH  16  18
ENDBRANCH   3  16
BRANCH   6  20
ATOM     20  C   UNL     1       1.845   8.591  19.111  0.00  0.00    +0.000 C 
ATOM     21  N   UNL     1       1.396   9.768  19.092  0.00  0.00    +0.000 NA
ENDBRANCH   6  20
TORSDOF 4
ENDMDL
MODEL 6
REMARK VINA RESULT:      -6.2      3.393      5.408
REMARK  Name = 
REMARK  6 active torsions:
REMARK  status: ('A' for Active; 'I' for Inactive)
REMARK    1  A    between atoms: C_1  and  C_2
REMARK    2  A    between atoms: C_7  and  N_8
REMARK    3  A    between atoms: C_10  and  C_11
REMARK    4  A    between atoms: C_11  and  O_13
REMARK    5  A    between atoms: C_14  and  C_15
REMARK    6  A    between atoms: C_16  and  C_17
REMARK                            x       y       z     vdW  Elec       q    Type
REMARK                         _______ _______ _______ _____ _____    ______ ____
ROOT
ATOM      1  N   UNL     1       2.694   6.597  19.461  0.00  0.00    +0.000 N 
ATOM      2  N   UNL     1       1.978   5.664  20.186  0.00  0.00    +0.000 NA
ATOM      3  C   UNL     1       2.450   4.456  20.265  0.00  0.00    +0.000 A 
ATOM      4  C   UNL     1       3.748   4.017  19.705  0.00  0.00    +0.000 A 
ATOM      5  C   UNL     1       4.306   2.631  19.886  0.00  0.00    +0.000 C 
ATOM      6  C   UNL     1       4.417   4.974  19.032  0.00  0.00    +0.000 A 
ATOM      7  C   UNL     1       3.899   6.333  18.814  0.00  0.00    +0.000 A 
ATOM      8  O   UNL     1       4.543   7.131  18.138  0.00  0.00    +0.000 OA
ENDROOT
BRANCH   1  15
ATOM      9  C   UNL     1       1.632   8.164  21.716  0.00  0.00    +0.000 C 
ATOM     10  C   UNL     1       1.400   8.531  20.277  0.00  0.00    +0.000 A 
ATOM     11  C   UNL     1       0.653   9.682  19.977  0.00  0.00    +0.000 A 
ATOM     12  C   UNL     1       0.499  10.111  18.657  0.00  0.00    +0.000 A 
ATOM     13  C   UNL     1       1.101   9.406  17.619  0.00  0.00    +0.000 A 
ATOM     14  C   UNL     1       1.846   8.263  17.901  0.00  0.00    +0.000 A 
ATOM     15  C   UNL     1       1.982   7.803  19.221  0.00  0.00    +0.000 A 
ENDBRANCH   1  15
BRANCH   3  16
ATOM     16  C   UNL     1       1.547   3.463  21.033  0.00  0.00    +0.000 C 
ATOM     17  O   UNL     1       1.803   2.997  22.119  0.00  0.00    +0.000 OA
BRANCH  16  18
ATOM     18  O   UNL     1       0.454   3.166  20.311  0.00  0.00    +0.000 OA
ATOM     19  H   UNL     1      -0.355   3.302  20.854  0.00  0.00    +0.000 HD
ENDBRANCH  16  18
ENDBRANCH   3  16
BRANCH   6  20
ATOM     20  C   UNL     1       5.780   4.604  18.466  0.00  0.00    +0.000 C 
ATOM     21  N   UNL     1       6.908   4.296  17.996  0.00  0.00    +0.000 NA
ENDBRANCH   6  20
TORSDOF 4
ENDMDL
MODEL 7
REMARK VINA RESULT:      -6.1      2.245      3.707
REMARK  Name = 
REMARK  6 active torsions:
REMARK  status: ('A' for Active; 'I' for Inactive)
REMARK    1  A    between atoms: C_1  and  C_2
REMARK    2  A    between atoms: C_7  and  N_8
REMARK    3  A    between atoms: C_10  and  C_11
REMARK    4  A    between atoms: C_11  and  O_13
REMARK    5  A    between atoms: C_14  and  C_15
REMARK    6  A    between atoms: C_16  and  C_17
REMARK                            x       y       z     vdW  Elec       q    Type
REMARK                         _______ _______ _______ _____ _____    ______ ____
ROOT
ATOM      1  N   UNL     1       4.208   4.288  18.289  0.00  0.00    +0.000 N 
ATOM      2  N   UNL     1       4.257   4.906  17.055  0.00  0.00    +0.000 NA
ATOM      3  C   UNL     1       5.279   5.663  16.789  0.00  0.00    +0.000 A 
ATOM      4  C   UNL     1       6.446   5.852  17.679  0.00  0.00    +0.000 A 
ATOM      5  C   UNL     1       7.653   6.670  17.307  0.00  0.00    +0.000 C 
ATOM      6  C   UNL     1       6.359   5.205  18.858  0.00  0.00    +0.000 A 
ATOM      7  C   UNL     1       5.189   4.413  19.270  0.00  0.00    +0.000 A 
ATOM      8  O   UNL     1       5.160   3.903  20.386  0.00  0.00    +0.000 OA
ENDROOT
BRANCH   1  15
ATOM      9  C   UNL     1       2.186   5.780  19.826  0.00  0.00    +0.000 C 
ATOM     10  C   UNL     1       1.995   4.358  19.377  0.00  0.00    +0.000 A 
ATOM     11  C   UNL     1       0.795   3.698  19.685  0.00  0.00    +0.000 A 
ATOM     12  C   UNL     1       0.539   2.413  19.203  0.00  0.00    +0.000 A 
ATOM     13  C   UNL     1       1.471   1.774  18.392  0.00  0.00    +0.000 A 
ATOM     14  C   UNL     1       2.667   2.415  18.075  0.00  0.00    +0.000 A 
ATOM     15  C   UNL     1       2.950   3.695  18.581  0.00  0.00    +0.000 A 
ENDBRANCH   1  15
BRANCH   3  16
ATOM     16  C   UNL     1       5.214   6.370  15.415  0.00  0.00    +0.000 C 
ATOM     17  O   UNL     1       4.653   7.421  15.206  0.00  0.00    +0.000 OA
BRANCH  16  18
ATOM     18  O   UNL     1       5.838   5.638  14.478  0.00  0.00    +0.000 OA
ATOM     19  H   UNL     1       6.041   6.197  13.695  0.00  0.00    +0.000 HD
ENDBRANCH  16  18
ENDBRANCH   3  16
BRANCH   6  20
ATOM     20  C   UNL     1       7.542   5.320  19.806  0.00  0.00    +0.000 C 
ATOM     21  N   UNL     1       8.523   5.416  20.592  0.00  0.00    +0.000 NA
ENDBRANCH   6  20
TORSDOF 4
ENDMDL
MODEL 8
REMARK VINA RESULT:      -6.1      3.209      5.214
REMARK  Name = 
REMARK  6 active torsions:
REMARK  status: ('A' for Active; 'I' for Inactive)
REMARK    1  A    between atoms: C_1  and  C_2
REMARK    2  A    between atoms: C_7  and  N_8
REMARK    3  A    between atoms: C_10  and  C_11
REMARK    4  A    between atoms: C_11  and  O_13
REMARK    5  A    between atoms: C_14  and  C_15
REMARK    6  A    between atoms: C_16  and  C_17
REMARK                            x       y       z     vdW  Elec       q    Type
REMARK                         _______ _______ _______ _____ _____    ______ ____
ROOT
ATOM      1  N   UNL     1       2.593   6.317  18.605  0.00  0.00    +0.000 N 
ATOM      2  N   UNL     1       1.732   5.334  19.054  0.00  0.00    +0.000 NA
ATOM      3  C   UNL     1       1.984   4.102  18.726  0.00  0.00    +0.000 A 
ATOM      4  C   UNL     1       3.177   3.655  17.973  0.00  0.00    +0.000 A 
ATOM      5  C   UNL     1       3.484   2.211  17.681  0.00  0.00    +0.000 C 
ATOM      6  C   UNL     1       3.997   4.651  17.584  0.00  0.00    +0.000 A 
ATOM      7  C   UNL     1       3.724   6.076  17.830  0.00  0.00    +0.000 A 
ATOM      8  O   UNL     1       4.491   6.929  17.390  0.00  0.00    +0.000 OA
ENDROOT
BRANCH   1  15
ATOM      9  C   UNL     1       1.689   7.191  21.268  0.00  0.00    +0.000 C 
ATOM     10  C   UNL     1       1.594   8.055  20.042  0.00  0.00    +0.000 A 
ATOM     11  C   UNL     1       1.064   9.350  20.157  0.00  0.00    +0.000 A 
ATOM     12  C   UNL     1       1.049  10.218  19.063  0.00  0.00    +0.000 A 
ATOM     13  C   UNL     1       1.579   9.812  17.843  0.00  0.00    +0.000 A 
ATOM     14  C   UNL     1       2.111   8.530  17.712  0.00  0.00    +0.000 A 
ATOM     15  C   UNL     1       2.102   7.636  18.796  0.00  0.00    +0.000 A 
ENDBRANCH   1  15
BRANCH   3  16
ATOM     16  C   UNL     1       0.930   3.080  19.210  0.00  0.00    +0.000 C 
ATOM     17  O   UNL     1       0.323   2.322  18.490  0.00  0.00    +0.000 OA
BRANCH  16  18
ATOM     18  O   UNL     1       0.756   3.176  20.539  0.00  0.00    +0.000 OA
ATOM     19  H   UNL     1       0.523   4.101  20.782  0.00  0.00    +0.000 HD
ENDBRANCH  16  18
ENDBRANCH   3  16
BRANCH   6  20
ATOM     20  C   UNL     1       5.265   4.260  16.842  0.00  0.00    +0.000 C 
ATOM     21  N   UNL     1       6.317   3.936  16.225  0.00  0.00    +0.000 NA
ENDBRANCH   6  20
TORSDOF 4
ENDMDL
MODEL 9
REMARK VINA RESULT:      -6.0      3.224      4.643
REMARK  Name = 
REMARK  6 active torsions:
REMARK  status: ('A' for Active; 'I' for Inactive)
REMARK    1  A    between atoms: C_1  and  C_2
REMARK    2  A    between atoms: C_7  and  N_8
REMARK    3  A    between atoms: C_10  and  C_11
REMARK    4  A    between atoms: C_11  and  O_13
REMARK    5  A    between atoms: C_14  and  C_15
REMARK    6  A    between atoms: C_16  and  C_17
REMARK                            x       y       z     vdW  Elec       q    Type
REMARK                         _______ _______ _______ _____ _____    ______ ____
ROOT
ATOM      1  N   UNL     1       2.538   6.717  18.835  0.00  0.00    +0.000 N 
ATOM      2  N   UNL     1       3.547   7.165  18.005  0.00  0.00    +0.000 NA
ATOM      3  C   UNL     1       4.309   6.280  17.435  0.00  0.00    +0.000 A 
ATOM      4  C   UNL     1       4.128   4.815  17.539  0.00  0.00    +0.000 A 
ATOM      5  C   UNL     1       4.976   3.816  16.799  0.00  0.00    +0.000 C 
ATOM      6  C   UNL     1       3.112   4.434  18.338  0.00  0.00    +0.000 A 
ATOM      7  C   UNL     1       2.272   5.376  19.097  0.00  0.00    +0.000 A 
ATOM      8  O   UNL     1       1.404   4.948  19.852  0.00  0.00    +0.000 OA
ENDROOT
BRANCH   1  15
ATOM      9  C   UNL     1       1.371   9.067  17.497  0.00  0.00    +0.000 C 
ATOM     10  C   UNL     1       1.432   8.917  18.992  0.00  0.00    +0.000 A 
ATOM     11  C   UNL     1       0.899   9.930  19.804  0.00  0.00    +0.000 A 
ATOM     12  C   UNL     1       0.847   9.784  21.192  0.00  0.00    +0.000 A 
ATOM     13  C   UNL     1       1.312   8.616  21.788  0.00  0.00    +0.000 A 
ATOM     14  C   UNL     1       1.843   7.599  20.996  0.00  0.00    +0.000 A 
ATOM     15  C   UNL     1       1.930   7.748  19.601  0.00  0.00    +0.000 A 
ENDBRANCH   1  15
BRANCH   3  16
ATOM     16  C   UNL     1       5.455   6.873  16.583  0.00  0.00    +0.000 C 
ATOM     17  O   UNL     1       6.507   7.273  17.025  0.00  0.00    +0.000 OA
BRANCH  16  18
ATOM     18  O   UNL     1       5.106   6.914  15.286  0.00  0.00    +0.000 OA
ATOM     19  H   UNL     1       5.279   6.042  14.865  0.00  0.00    +0.000 HD
ENDBRANCH  16  18
ENDBRANCH   3  16
BRANCH   6  20
ATOM     20  C   UNL     1       2.840   2.943  18.458  0.00  0.00    +0.000 C 
ATOM     21  N   UNL     1       2.615   1.706  18.557  0.00  0.00    +0.000 NA
ENDBRANCH   6  20
TORSDOF 4
ENDMDL
