MODEL 1
REMARK VINA RESULT:      -4.4      0.000      0.000
REMARK  Name = 
REMARK  8 active torsions:
REMARK  status: ('A' for Active; 'I' for Inactive)
REMARK    1  A    between atoms: C_1  and  C_2
REMARK    2  A    between atoms: C_2  and  C_3
REMARK    3  A    between atoms: C_3  and  C_4
REMARK    4  A    between atoms: C_4  and  C_5
REMARK    5  A    between atoms: C_5  and  C_6
REMARK    6  A    between atoms: C_6  and  O_7
REMARK    7  A    between atoms: O_7  and  C_8
REMARK    8  A    between atoms: C_8  and  C_9
REMARK                            x       y       z     vdW  Elec       q    Type
REMARK                         _______ _______ _______ _____ _____    ______ ____
ROOT
ATOM      1  C   UNL     1       5.742   3.850  15.239  0.00  0.00    +0.000 C 
ENDROOT
BRANCH   1   2
ATOM      2  C   UNL     1       5.406   4.149  13.778  0.00  0.00    +0.000 C 
BRANCH   2   3
ATOM      3  C   UNL     1       6.400   3.475  12.831  0.00  0.00    +0.000 C 
BRANCH   3   5
ATOM      4  C   UNL     1       4.304   3.235  11.468  0.00  0.00    +0.000 C 
ATOM      5  C   UNL     1       5.677   2.656  11.762  0.00  0.00    +0.000 C 
ENDBRANCH   3   5
ENDBRANCH   2   3
ENDBRANCH   1   2
BRANCH   1   6
ATOM      6  C   UNL     1       6.949   4.657  15.712  0.00  0.00    +0.000 C 
BRANCH   6   7
ATOM      7  O   UNL     1       6.761   5.113  17.069  0.00  0.00    +0.000 OA
BRANCH   7   8
ATOM      8  C   UNL     1       7.453   6.228  17.414  0.00  0.00    +0.000 C 
ATOM      9  C   UNL     1       7.861   6.229  18.856  0.00  0.00    +0.000 C 
ATOM     10  O   UNL     1       7.733   7.143  16.646  0.00  0.00    +0.000 OA
ENDBRANCH   7   8
ENDBRANCH   6   7
ENDBRANCH   1   6
TORSDOF 6
ENDMDL
MODEL 2
REMARK VINA RESULT:      -4.4      3.509      4.701
REMARK  Name = 
REMARK  8 active torsions:
REMARK  status: ('A' for Active; 'I' for Inactive)
REMARK    1  A    between atoms: C_1  and  C_2
REMARK    2  A    between atoms: C_2  and  C_3
REMARK    3  A    between atoms: C_3  and  C_4
REMARK    4  A    between atoms: C_4  and  C_5
REMARK    5  A    between atoms: C_5  and  C_6
REMARK    6  A    between atoms: C_6  and  O_7
REMARK    7  A    between atoms: O_7  and  C_8
REMARK    8  A    between atoms: C_8  and  C_9
REMARK                            x       y       z     vdW  Elec       q    Type
REMARK                         _______ _______ _______ _____ _____    ______ ____
ROOT
ATOM      1  C   UNL     1       4.654   4.483  17.092  0.00  0.00    +0.000 C 
ENDROOT
BRANCH   1   2
ATOM      2  C   UNL     1       3.759   3.246  17.166  0.00  0.00    +0.000 C 
BRANCH   2   3
ATOM      3  C   UNL     1       2.344   3.612  17.615  0.00  0.00    +0.000 C 
BRANCH   3   5
ATOM      4  C   UNL     1       0.616   2.370  18.950  0.00  0.00    +0.000 C 
ATOM      5  C   UNL     1       2.009   2.976  18.964  0.00  0.00    +0.000 C 
ENDBRANCH   3   5
ENDBRANCH   2   3
ENDBRANCH   1   2
BRANCH   1   6
ATOM      6  C   UNL     1       5.146   4.902  18.475  0.00  0.00    +0.000 C 
BRANCH   6   7
ATOM      7  O   UNL     1       6.445   4.334  18.751  0.00  0.00    +0.000 OA
BRANCH   7   8
ATOM      8  C   UNL     1       7.478   4.866  18.050  0.00  0.00    +0.000 C 
ATOM      9  C   UNL     1       7.717   6.307  18.382  0.00  0.00    +0.000 C 
ATOM     10  O   UNL     1       8.160   4.252  17.235  0.00  0.00    +0.000 OA
ENDBRANCH   7   8
ENDBRANCH   6   7
ENDBRANCH   1   6
TORSDOF 6
ENDMDL
MODEL 3
REMARK VINA RESULT:      -4.4      2.637      3.944
REMARK  Name = 
REMARK  8 active torsions:
REMARK  status: ('A' for Active; 'I' for Inactive)
REMARK    1  A    between atoms: C_1  and  C_2
REMARK    2  A    between atoms: C_2  and  C_3
REMARK    3  A    between atoms: C_3  and  C_4
REMARK    4  A    between atoms: C_4  and  C_5
REMARK    5  A    between atoms: C_5  and  C_6
REMARK    6  A    between atoms: C_6  and  O_7
REMARK    7  A    between atoms: O_7  and  C_8
REMARK    8  A    between atoms: C_8  and  C_9
REMARK                            x       y       z     vdW  Elec       q    Type
REMARK                         _______ _______ _______ _____ _____    ______ ____
ROOT
ATOM      1  C   UNL     1       5.401   4.618  16.020  0.00  0.00    +0.000 C 
ENDROOT
BRANCH   1   2
ATOM      2  C   UNL     1       4.374   4.991  17.090  0.00  0.00    +0.000 C 
BRANCH   2   3
ATOM      3  C   UNL     1       4.208   3.869  18.115  0.00  0.00    +0.000 C 
BRANCH   3   5
ATOM      4  C   UNL     1       1.793   4.410  17.687  0.00  0.00    +0.000 C 
ATOM      5  C   UNL     1       2.790   3.845  18.685  0.00  0.00    +0.000 C 
ENDBRANCH   3   5
ENDBRANCH   2   3
ENDBRANCH   1   2
BRANCH   1   6
ATOM      6  C   UNL     1       6.828   4.752  16.545  0.00  0.00    +0.000 C 
BRANCH   6   7
ATOM      7  O   UNL     1       7.362   6.061  16.247  0.00  0.00    +0.000 OA
BRANCH   7   8
ATOM      8  C   UNL     1       7.492   6.897  17.308  0.00  0.00    +0.000 C 
ATOM      9  C   UNL     1       7.641   6.162  18.605  0.00  0.00    +0.000 C 
ATOM     10  O   UNL     1       7.496   8.122  17.237  0.00  0.00    +0.000 OA
ENDBRANCH   7   8
ENDBRANCH   6   7
ENDBRANCH   1   6
TORSDOF 6
ENDMDL
MODEL 4
REMARK VINA RESULT:      -4.3      3.821      5.482
REMARK  Name = 
REMARK  8 active torsions:
REMARK  status: ('A' for Active; 'I' for Inactive)
REMARK    1  A    between atoms: C_1  and  C_2
REMARK    2  A    between atoms: C_2  and  C_3
REMARK    3  A    between atoms: C_3  and  C_4
REMARK    4  A    between atoms: C_4  and  C_5
REMARK    5  A    between atoms: C_5  and  C_6
REMARK    6  A    between atoms: C_6  and  O_7
REMARK    7  A    between atoms: O_7  and  C_8
REMARK    8  A    between atoms: C_8  and  C_9
REMARK                            x       y       z     vdW  Elec       q    Type
REMARK                         _______ _______ _______ _____ _____    ______ ____
ROOT
ATOM      1  C   UNL     1       3.763   2.952  17.534  0.00  0.00    +0.000 C 
ENDROOT
BRANCH   1   2
ATOM      2  C   UNL     1       2.300   3.212  17.893  0.00  0.00    +0.000 C 
BRANCH   2   3
ATOM      3  C   UNL     1       2.060   4.690  18.204  0.00  0.00    +0.000 C 
BRANCH   3   5
ATOM      4  C   UNL     1       1.041   3.764  20.305  0.00  0.00    +0.000 C 
ATOM      5  C   UNL     1       1.831   4.911  19.699  0.00  0.00    +0.000 C 
ENDBRANCH   3   5
ENDBRANCH   2   3
ENDBRANCH   1   2
BRANCH   1   6
ATOM      6  C   UNL     1       4.414   4.184  16.912  0.00  0.00    +0.000 C 
BRANCH   6   7
ATOM      7  O   UNL     1       5.742   4.385  17.444  0.00  0.00    +0.000 OA
BRANCH   7   8
ATOM      8  C   UNL     1       6.745   4.390  16.529  0.00  0.00    +0.000 C 
ATOM      9  C   UNL     1       6.239   4.353  15.120  0.00  0.00    +0.000 C 
ATOM     10  O   UNL     1       7.941   4.428  16.803  0.00  0.00    +0.000 OA
ENDBRANCH   7   8
ENDBRANCH   6   7
ENDBRANCH   1   6
TORSDOF 6
ENDMDL
MODEL 5
REMARK VINA RESULT:      -4.3      3.743      5.321
REMARK  Name = 
REMARK  8 active torsions:
REMARK  status: ('A' for Active; 'I' for Inactive)
REMARK    1  A    between atoms: C_1  and  C_2
REMARK    2  A    between atoms: C_2  and  C_3
REMARK    3  A    between atoms: C_3  and  C_4
REMARK    4  A    between atoms: C_4  and  C_5
REMARK    5  A    between atoms: C_5  and  C_6
REMARK    6  A    between atoms: C_6  and  O_7
REMARK    7  A    between atoms: O_7  and  C_8
REMARK    8  A    between atoms: C_8  and  C_9
REMARK                            x       y       z     vdW  Elec       q    Type
REMARK                         _______ _______ _______ _____ _____    ______ ____
ROOT
ATOM      1  C   UNL     1       4.047   3.849  17.978  0.00  0.00    +0.000 C 
ENDROOT
BRANCH   1   2
ATOM      2  C   UNL     1       2.945   4.908  17.922  0.00  0.00    +0.000 C 
BRANCH   2   3
ATOM      3  C   UNL     1       1.568   4.267  17.746  0.00  0.00    +0.000 C 
BRANCH   3   5
ATOM      4  C   UNL     1       0.937   3.832  20.138  0.00  0.00    +0.000 C 
ATOM      5  C   UNL     1       1.315   3.199  18.810  0.00  0.00    +0.000 C 
ENDBRANCH   3   5
ENDBRANCH   2   3
ENDBRANCH   1   2
BRANCH   1   6
ATOM      6  C   UNL     1       4.829   3.785  16.669  0.00  0.00    +0.000 C 
BRANCH   6   7
ATOM      7  O   UNL     1       5.270   5.102  16.271  0.00  0.00    +0.000 OA
BRANCH   7   8
ATOM      8  C   UNL     1       6.391   5.139  15.508  0.00  0.00    +0.000 C 
ATOM      9  C   UNL     1       6.265   4.318  14.261  0.00  0.00    +0.000 C 
ATOM     10  O   UNL     1       7.405   5.773  15.784  0.00  0.00    +0.000 OA
ENDBRANCH   7   8
ENDBRANCH   6   7
ENDBRANCH   1   6
TORSDOF 6
ENDMDL
MODEL 6
REMARK VINA RESULT:      -4.3      3.822      5.124
REMARK  Name = 
REMARK  8 active torsions:
REMARK  status: ('A' for Active; 'I' for Inactive)
REMARK    1  A    between atoms: C_1  and  C_2
REMARK    2  A    between atoms: C_2  and  C_3
REMARK    3  A    between atoms: C_3  and  C_4
REMARK    4  A    between atoms: C_4  and  C_5
REMARK    5  A    between atoms: C_5  and  C_6
REMARK    6  A    between atoms: C_6  and  O_7
REMARK    7  A    between atoms: O_7  and  C_8
REMARK    8  A    between atoms: C_8  and  C_9
REMARK                            x       y       z     vdW  Elec       q    Type
REMARK                         _______ _______ _______ _____ _____    ______ ____
ROOT
ATOM      1  C   UNL     1       3.530   4.528  17.358  0.00  0.00    +0.000 C 
ENDROOT
BRANCH   1   2
ATOM      2  C   UNL     1       2.461   3.441  17.244  0.00  0.00    +0.000 C 
BRANCH   2   3
ATOM      3  C   UNL     1       2.447   2.545  18.484  0.00  0.00    +0.000 C 
BRANCH   3   5
ATOM      4  C   UNL     1       0.940   3.764  20.082  0.00  0.00    +0.000 C 
ATOM      5  C   UNL     1       1.078   2.562  19.163  0.00  0.00    +0.000 C 
ENDBRANCH   3   5
ENDBRANCH   2   3
ENDBRANCH   1   2
BRANCH   1   6
ATOM      6  C   UNL     1       4.805   4.138  16.615  0.00  0.00    +0.000 C 
BRANCH   6   7
ATOM      7  O   UNL     1       5.521   5.312  16.175  0.00  0.00    +0.000 OA
BRANCH   7   8
ATOM      8  C   UNL     1       6.870   5.182  16.099  0.00  0.00    +0.000 C 
ATOM      9  C   UNL     1       7.463   4.597  17.344  0.00  0.00    +0.000 C 
ATOM     10  O   UNL     1       7.549   5.495  15.126  0.00  0.00    +0.000 OA
ENDBRANCH   7   8
ENDBRANCH   6   7
ENDBRANCH   1   6
TORSDOF 6
ENDMDL
MODEL 7
REMARK VINA RESULT:      -4.3      5.382      6.627
REMARK  Name = 
REMARK  8 active torsions:
REMARK  status: ('A' for Active; 'I' for Inactive)
REMARK    1  A    between atoms: C_1  and  C_2
REMARK    2  A    between atoms: C_2  and  C_3
REMARK    3  A    between atoms: C_3  and  C_4
REMARK    4  A    between atoms: C_4  and  C_5
REMARK    5  A    between atoms: C_5  and  C_6
REMARK    6  A    between atoms: C_6  and  O_7
REMARK    7  A    between atoms: O_7  and  C_8
REMARK    8  A    between atoms: C_8  and  C_9
REMARK                            x       y       z     vdW  Elec       q    Type
REMARK                         _______ _______ _______ _____ _____    ______ ____
ROOT
ATOM      1  C   UNL     1       3.576   2.317  17.969  0.00  0.00    +0.000 C 
ENDROOT
BRANCH   1   2
ATOM      2  C   UNL     1       3.998   3.623  17.295  0.00  0.00    +0.000 C 
BRANCH   2   3
ATOM      3  C   UNL     1       2.993   4.741  17.574  0.00  0.00    +0.000 C 
BRANCH   3   5
ATOM      4  C   UNL     1       2.701   7.152  18.215  0.00  0.00    +0.000 C 
ATOM      5  C   UNL     1       3.703   6.046  17.933  0.00  0.00    +0.000 C 
ENDBRANCH   3   5
ENDBRANCH   2   3
ENDBRANCH   1   2
BRANCH   1   6
ATOM      6  C   UNL     1       3.527   2.461  19.487  0.00  0.00    +0.000 C 
BRANCH   6   7
ATOM      7  O   UNL     1       2.183   2.265  19.978  0.00  0.00    +0.000 OA
BRANCH   7   8
ATOM      8  C   UNL     1       1.811   3.070  21.005  0.00  0.00    +0.000 C 
ATOM      9  C   UNL     1       1.046   4.273  20.546  0.00  0.00    +0.000 C 
ATOM     10  O   UNL     1       2.056   2.852  22.189  0.00  0.00    +0.000 OA
ENDBRANCH   7   8
ENDBRANCH   6   7
ENDBRANCH   1   6
TORSDOF 6
ENDMDL
MODEL 8
REMARK VINA RESULT:      -4.3      3.286      4.962
REMARK  Name = 
REMARK  8 active torsions:
REMARK  status: ('A' for Active; 'I' for Inactive)
REMARK    1  A    between atoms: C_1  and  C_2
REMARK    2  A    between atoms: C_2  and  C_3
REMARK    3  A    between atoms: C_3  and  C_4
REMARK    4  A    between atoms: C_4  and  C_5
REMARK    5  A    between atoms: C_5  and  C_6
REMARK    6  A    between atoms: C_6  and  O_7
REMARK    7  A    between atoms: O_7  and  C_8
REMARK    8  A    between atoms: C_8  and  C_9
REMARK                            x       y       z     vdW  Elec       q    Type
REMARK                         _______ _______ _______ _____ _____    ______ ____
ROOT
ATOM      1  C   UNL     1       4.856   5.634  17.877  0.00  0.00    +0.000 C 
ENDROOT
BRANCH   1   2
ATOM      2  C   UNL     1       3.495   6.321  17.766  0.00  0.00    +0.000 C 
BRANCH   2   3
ATOM      3  C   UNL     1       2.425   5.562  18.552  0.00  0.00    +0.000 C 
BRANCH   3   5
ATOM      4  C   UNL     1       1.346   3.294  18.541  0.00  0.00    +0.000 C 
ATOM      5  C   UNL     1       1.768   4.482  17.693  0.00  0.00    +0.000 C 
ENDBRANCH   3   5
ENDBRANCH   2   3
ENDBRANCH   1   2
BRANCH   1   6
ATOM      6  C   UNL     1       5.966   6.491  17.276  0.00  0.00    +0.000 C 
BRANCH   6   7
ATOM      7  O   UNL     1       6.257   6.077  15.923  0.00  0.00    +0.000 OA
BRANCH   7   8
ATOM      8  C   UNL     1       6.857   4.866  15.797  0.00  0.00    +0.000 C 
ATOM      9  C   UNL     1       6.188   3.996  14.778  0.00  0.00    +0.000 C 
ATOM     10  O   UNL     1       7.844   4.505  16.431  0.00  0.00    +0.000 OA
ENDBRANCH   7   8
ENDBRANCH   6   7
ENDBRANCH   1   6
TORSDOF 6
ENDMDL
MODEL 9
REMARK VINA RESULT:      -4.3      4.609      5.584
REMARK  Name = 
REMARK  8 active torsions:
REMARK  status: ('A' for Active; 'I' for Inactive)
REMARK    1  A    between atoms: C_1  and  C_2
REMARK    2  A    between atoms: C_2  and  C_3
REMARK    3  A    between atoms: C_3  and  C_4
REMARK    4  A    between atoms: C_4  and  C_5
REMARK    5  A    between atoms: C_5  and  C_6
REMARK    6  A    between atoms: C_6  and  O_7
REMARK    7  A    between atoms: O_7  and  C_8
REMARK    8  A    between atoms: C_8  and  C_9
REMARK                            x       y       z     vdW  Elec       q    Type
REMARK                         _______ _______ _______ _____ _____    ______ ____
ROOT
ATOM      1  C   UNL     1       3.335   3.217  17.523  0.00  0.00    +0.000 C 
ENDROOT
BRANCH   1   2
ATOM      2  C   UNL     1       3.732   4.678  17.738  0.00  0.00    +0.000 C 
BRANCH   2   3
ATOM      3  C   UNL     1       4.734   5.142  16.680  0.00  0.00    +0.000 C 
BRANCH   3   5
ATOM      4  C   UNL     1       5.840   4.223  14.621  0.00  0.00    +0.000 C 
ATOM      5  C   UNL     1       5.488   3.958  16.075  0.00  0.00    +0.000 C 
ENDBRANCH   3   5
ENDBRANCH   2   3
ENDBRANCH   1   2
BRANCH   1   6
ATOM      6  C   UNL     1       3.324   2.442  18.838  0.00  0.00    +0.000 C 
BRANCH   6   7
ATOM      7  O   UNL     1       3.388   3.343  19.965  0.00  0.00    +0.000 OA
BRANCH   7   8
ATOM      8  C   UNL     1       2.459   3.137  20.932  0.00  0.00    +0.000 C 
ATOM      9  C   UNL     1       1.113   3.681  20.563  0.00  0.00    +0.000 C 
ATOM     10  O   UNL     1       2.673   2.565  21.997  0.00  0.00    +0.000 OA
ENDBRANCH   7   8
ENDBRANCH   6   7
ENDBRANCH   1   6
TORSDOF 6
ENDMDL
