MODEL 1
REMARK VINA RESULT:      -7.5      0.000      0.000
REMARK  Name = 
REMARK  1 active torsions:
REMARK  status: ('A' for Active; 'I' for Inactive)
REMARK    1  A    between atoms: C_2  and  C_3
REMARK                            x       y       z     vdW  Elec       q    Type
REMARK                         _______ _______ _______ _____ _____    ______ ____
ROOT
ATOM      1  O   UNL     1       4.119   5.968  18.814  0.00  0.00    +0.000 OA
ATOM      2  C   UNL     1       2.986   5.906  19.289  0.00  0.00    +0.000 C 
ATOM      3  N   UNL     1       2.322   4.694  19.532  0.00  0.00    +0.000 N 
ATOM      4  C   UNL     1       1.148   4.578  20.401  0.00  0.00    +0.000 C 
ATOM      5  C   UNL     1       1.109   3.120  20.784  0.00  0.00    +0.000 C 
ATOM      6  C   UNL     1       1.560   2.417  19.512  0.00  0.00    +0.000 C 
ATOM      7  C   UNL     1       2.592   3.370  18.880  0.00  0.00    +0.000 C 
ATOM      8  C   UNL     1       4.040   2.835  18.809  0.00  0.00    +0.000 C 
ATOM      9  C   UNL     1       4.124   3.337  17.354  0.00  0.00    +0.000 C 
ATOM     10  C   UNL     1       2.588   3.398  17.328  0.00  0.00    +0.000 C 
ENDROOT
BRANCH   2  11
ATOM     11  C   UNL     1       2.261   7.153  19.649  0.00  0.00    +0.000 A 
ATOM     12  C   UNL     1       1.702   7.505  20.913  0.00  0.00    +0.000 A 
ATOM     13  C   UNL     1       1.068   8.712  20.715  0.00  0.00    +0.000 A 
ATOM     14  N   UNL     1       1.283   9.017  19.409  0.00  0.00    +0.000 N 
ATOM     15  N   UNL     1       2.069   8.154  18.772  0.00  0.00    +0.000 NA
ATOM     16  C   UNL     1       0.680  10.077  18.654  0.00  0.00    +0.000 C 
ATOM     17  C   UNL     1      -0.157  11.059  19.456  0.00  0.00    +0.000 C 
ATOM     18  C   UNL     1      -0.291  10.843  20.965  0.00  0.00    +0.000 C 
ATOM     19  C   UNL     1       0.266   9.571  21.605  0.00  0.00    +0.000 C 
ENDBRANCH   2  11
TORSDOF 1
ENDMDL
MODEL 2
REMARK VINA RESULT:      -7.4      2.723      6.316
REMARK  Name = 
REMARK  1 active torsions:
REMARK  status: ('A' for Active; 'I' for Inactive)
REMARK    1  A    between atoms: C_2  and  C_3
REMARK                            x       y       z     vdW  Elec       q    Type
REMARK                         _______ _______ _______ _____ _____    ______ ____
ROOT
ATOM      1  O   UNL     1       4.257   2.715  19.724  0.00  0.00    +0.000 OA
ATOM      2  C   UNL     1       3.972   3.740  19.106  0.00  0.00    +0.000 C 
ATOM      3  N   UNL     1       3.044   4.683  19.574  0.00  0.00    +0.000 N 
ATOM      4  C   UNL     1       2.949   6.048  19.050  0.00  0.00    +0.000 C 
ATOM      5  C   UNL     1       2.249   6.819  20.140  0.00  0.00    +0.000 C 
ATOM      6  C   UNL     1       1.238   5.816  20.677  0.00  0.00    +0.000 C 
ATOM      7  C   UNL     1       1.938   4.449  20.561  0.00  0.00    +0.000 C 
ATOM      8  C   UNL     1       2.246   3.739  21.899  0.00  0.00    +0.000 C 
ATOM      9  C   UNL     1       1.706   2.428  21.293  0.00  0.00    +0.000 C 
ATOM     10  C   UNL     1       0.999   3.264  20.214  0.00  0.00    +0.000 C 
ENDROOT
BRANCH   2  11
ATOM     11  C   UNL     1       4.634   4.034  17.809  0.00  0.00    +0.000 A 
ATOM     12  C   UNL     1       4.172   3.710  16.499  0.00  0.00    +0.000 A 
ATOM     13  C   UNL     1       5.171   4.118  15.642  0.00  0.00    +0.000 A 
ATOM     14  N   UNL     1       6.128   4.656  16.441  0.00  0.00    +0.000 N 
ATOM     15  N   UNL     1       5.796   4.706  17.728  0.00  0.00    +0.000 NA
ATOM     16  C   UNL     1       7.452   5.058  16.062  0.00  0.00    +0.000 C 
ATOM     17  C   UNL     1       7.742   5.032  14.571  0.00  0.00    +0.000 C 
ATOM     18  C   UNL     1       6.631   4.585  13.617  0.00  0.00    +0.000 C 
ATOM     19  C   UNL     1       5.327   4.019  14.179  0.00  0.00    +0.000 C 
ENDBRANCH   2  11
TORSDOF 1
ENDMDL
MODEL 3
REMARK VINA RESULT:      -7.2      2.859      6.314
REMARK  Name = 
REMARK  1 active torsions:
REMARK  status: ('A' for Active; 'I' for Inactive)
REMARK    1  A    between atoms: C_2  and  C_3
REMARK                            x       y       z     vdW  Elec       q    Type
REMARK                         _______ _______ _______ _____ _____    ______ ____
ROOT
ATOM      1  O   UNL     1       4.518   2.690  20.006  0.00  0.00    +0.000 OA
ATOM      2  C   UNL     1       4.248   3.655  19.292  0.00  0.00    +0.000 C 
ATOM      3  N   UNL     1       3.250   4.588  19.612  0.00  0.00    +0.000 N 
ATOM      4  C   UNL     1       3.148   5.907  18.982  0.00  0.00    +0.000 C 
ATOM      5  C   UNL     1       2.331   6.723  19.952  0.00  0.00    +0.000 C 
ATOM      6  C   UNL     1       1.316   5.717  20.478  0.00  0.00    +0.000 C 
ATOM      7  C   UNL     1       2.074   4.377  20.520  0.00  0.00    +0.000 C 
ATOM      8  C   UNL     1       2.294   3.777  21.927  0.00  0.00    +0.000 C 
ATOM      9  C   UNL     1       1.856   2.404  21.379  0.00  0.00    +0.000 C 
ATOM     10  C   UNL     1       1.212   3.131  20.186  0.00  0.00    +0.000 C 
ENDROOT
BRANCH   2  11
ATOM     11  C   UNL     1       5.005   3.885  18.035  0.00  0.00    +0.000 A 
ATOM     12  C   UNL     1       6.230   4.598  17.869  0.00  0.00    +0.000 A 
ATOM     13  C   UNL     1       6.476   4.602  16.514  0.00  0.00    +0.000 A 
ATOM     14  N   UNL     1       5.447   3.909  15.962  0.00  0.00    +0.000 N 
ATOM     15  N   UNL     1       4.604   3.389  16.851  0.00  0.00    +0.000 NA
ATOM     16  C   UNL     1       5.133   3.782  14.568  0.00  0.00    +0.000 C 
ATOM     17  C   UNL     1       6.168   4.346  13.610  0.00  0.00    +0.000 C 
ATOM     18  C   UNL     1       7.427   4.993  14.191  0.00  0.00    +0.000 C 
ATOM     19  C   UNL     1       7.544   5.212  15.700  0.00  0.00    +0.000 C 
ENDBRANCH   2  11
TORSDOF 1
ENDMDL
MODEL 4
REMARK VINA RESULT:      -7.2      0.779      1.438
REMARK  Name = 
REMARK  1 active torsions:
REMARK  status: ('A' for Active; 'I' for Inactive)
REMARK    1  A    between atoms: C_2  and  C_3
REMARK                            x       y       z     vdW  Elec       q    Type
REMARK                         _______ _______ _______ _____ _____    ______ ____
ROOT
ATOM      1  O   UNL     1       4.182   5.862  18.634  0.00  0.00    +0.000 OA
ATOM      2  C   UNL     1       3.050   5.852  19.114  0.00  0.00    +0.000 C 
ATOM      3  N   UNL     1       2.383   4.671  19.477  0.00  0.00    +0.000 N 
ATOM      4  C   UNL     1       1.209   4.647  20.355  0.00  0.00    +0.000 C 
ATOM      5  C   UNL     1       1.166   3.235  20.882  0.00  0.00    +0.000 C 
ATOM      6  C   UNL     1       1.613   2.407  19.685  0.00  0.00    +0.000 C 
ATOM      7  C   UNL     1       2.647   3.289  18.960  0.00  0.00    +0.000 C 
ATOM      8  C   UNL     1       4.093   2.744  18.941  0.00  0.00    +0.000 C 
ATOM      9  C   UNL     1       4.177   3.099  17.443  0.00  0.00    +0.000 C 
ATOM     10  C   UNL     1       2.640   3.162  17.414  0.00  0.00    +0.000 C 
ENDROOT
BRANCH   2  11
ATOM     11  C   UNL     1       2.330   7.130  19.349  0.00  0.00    +0.000 A 
ATOM     12  C   UNL     1       2.014   8.144  18.396  0.00  0.00    +0.000 A 
ATOM     13  C   UNL     1       1.421   9.158  19.115  0.00  0.00    +0.000 A 
ATOM     14  N   UNL     1       1.395   8.715  20.399  0.00  0.00    +0.000 N 
ATOM     15  N   UNL     1       1.844   7.473  20.555  0.00  0.00    +0.000 NA
ATOM     16  C   UNL     1       1.048   9.467  21.571  0.00  0.00    +0.000 C 
ATOM     17  C   UNL     1       0.488  10.856  21.315  0.00  0.00    +0.000 C 
ATOM     18  C   UNL     1       0.347  11.333  19.868  0.00  0.00    +0.000 C 
ATOM     19  C   UNL     1       0.920  10.489  18.728  0.00  0.00    +0.000 C 
ENDBRANCH   2  11
TORSDOF 1
ENDMDL
MODEL 5
REMARK VINA RESULT:      -6.7      1.921      2.929
REMARK  Name = 
REMARK  1 active torsions:
REMARK  status: ('A' for Active; 'I' for Inactive)
REMARK    1  A    between atoms: C_2  and  C_3
REMARK                            x       y       z     vdW  Elec       q    Type
REMARK                         _______ _______ _______ _____ _____    ______ ____
ROOT
ATOM      1  O   UNL     1       5.506   7.136  17.495  0.00  0.00    +0.000 OA
ATOM      2  C   UNL     1       4.426   6.577  17.677  0.00  0.00    +0.000 C 
ATOM      3  N   UNL     1       4.220   5.211  17.429  0.00  0.00    +0.000 N 
ATOM      4  C   UNL     1       3.078   4.459  17.957  0.00  0.00    +0.000 C 
ATOM      5  C   UNL     1       3.523   3.020  17.909  0.00  0.00    +0.000 C 
ATOM      6  C   UNL     1       4.334   2.953  16.622  0.00  0.00    +0.000 C 
ATOM      7  C   UNL     1       5.018   4.328  16.515  0.00  0.00    +0.000 C 
ATOM      8  C   UNL     1       6.560   4.318  16.616  0.00  0.00    +0.000 C 
ATOM      9  C   UNL     1       6.617   5.275  15.409  0.00  0.00    +0.000 C 
ATOM     10  C   UNL     1       5.174   4.866  15.068  0.00  0.00    +0.000 C 
ENDROOT
BRANCH   2  11
ATOM     11  C   UNL     1       3.267   7.347  18.197  0.00  0.00    +0.000 A 
ATOM     12  C   UNL     1       2.520   8.362  17.529  0.00  0.00    +0.000 A 
ATOM     13  C   UNL     1       1.609   8.823  18.454  0.00  0.00    +0.000 A 
ATOM     14  N   UNL     1       1.832   8.085  19.572  0.00  0.00    +0.000 N 
ATOM     15  N   UNL     1       2.750   7.133  19.420  0.00  0.00    +0.000 NA
ATOM     16  C   UNL     1       1.276   8.294  20.877  0.00  0.00    +0.000 C 
ATOM     17  C   UNL     1       0.192   9.356  20.964  0.00  0.00    +0.000 C 
ATOM     18  C   UNL     1      -0.206  10.101  19.688  0.00  0.00    +0.000 C 
ATOM     19  C   UNL     1       0.595   9.893  18.403  0.00  0.00    +0.000 C 
ENDBRANCH   2  11
TORSDOF 1
ENDMDL
MODEL 6
REMARK VINA RESULT:      -6.7      0.984      1.081
REMARK  Name = 
REMARK  1 active torsions:
REMARK  status: ('A' for Active; 'I' for Inactive)
REMARK    1  A    between atoms: C_2  and  C_3
REMARK                            x       y       z     vdW  Elec       q    Type
REMARK                         _______ _______ _______ _____ _____    ______ ____
ROOT
ATOM      1  O   UNL     1       3.461   5.154  17.844  0.00  0.00    +0.000 OA
ATOM      2  C   UNL     1       2.789   5.373  18.850  0.00  0.00    +0.000 C 
ATOM      3  N   UNL     1       2.421   4.368  19.759  0.00  0.00    +0.000 N 
ATOM      4  C   UNL     1       1.937   4.645  21.114  0.00  0.00    +0.000 C 
ATOM      5  C   UNL     1       2.175   3.360  21.866  0.00  0.00    +0.000 C 
ATOM      6  C   UNL     1       1.866   2.291  20.827  0.00  0.00    +0.000 C 
ATOM      7  C   UNL     1       2.333   2.895  19.489  0.00  0.00    +0.000 C 
ATOM      8  C   UNL     1       3.514   2.171  18.805  0.00  0.00    +0.000 C 
ATOM      9  C   UNL     1       2.753   2.254  17.467  0.00  0.00    +0.000 C 
ATOM     10  C   UNL     1       1.462   2.511  18.263  0.00  0.00    +0.000 C 
ENDROOT
BRANCH   2  11
ATOM     11  C   UNL     1       2.340   6.755  19.160  0.00  0.00    +0.000 A 
ATOM     12  C   UNL     1       1.838   7.254  20.398  0.00  0.00    +0.000 A 
ATOM     13  C   UNL     1       1.484   8.563  20.154  0.00  0.00    +0.000 A 
ATOM     14  N   UNL     1       1.794   8.779  18.850  0.00  0.00    +0.000 N 
ATOM     15  N   UNL     1       2.392   7.749  18.256  0.00  0.00    +0.000 NA
ATOM     16  C   UNL     1       1.454   9.922  18.053  0.00  0.00    +0.000 C 
ATOM     17  C   UNL     1       0.827  11.082  18.807  0.00  0.00    +0.000 C 
ATOM     18  C   UNL     1       0.610  10.943  20.316  0.00  0.00    +0.000 C 
ATOM     19  C   UNL     1       0.863   9.599  21.000  0.00  0.00    +0.000 C 
ENDBRANCH   2  11
TORSDOF 1
ENDMDL
MODEL 7
REMARK VINA RESULT:      -6.7      3.790      7.224
REMARK  Name = 
REMARK  1 active torsions:
REMARK  status: ('A' for Active; 'I' for Inactive)
REMARK    1  A    between atoms: C_2  and  C_3
REMARK                            x       y       z     vdW  Elec       q    Type
REMARK                         _______ _______ _______ _____ _____    ______ ____
ROOT
ATOM      1  O   UNL     1       5.021   3.628  18.404  0.00  0.00    +0.000 OA
ATOM      2  C   UNL     1       4.834   4.520  17.578  0.00  0.00    +0.000 C 
ATOM      3  N   UNL     1       3.945   5.586  17.790  0.00  0.00    +0.000 N 
ATOM      4  C   UNL     1       3.964   6.819  16.999  0.00  0.00    +0.000 C 
ATOM      5  C   UNL     1       3.261   7.831  17.868  0.00  0.00    +0.000 C 
ATOM      6  C   UNL     1       2.162   7.012  18.530  0.00  0.00    +0.000 C 
ATOM      7  C   UNL     1       2.779   5.615  18.732  0.00  0.00    +0.000 C 
ATOM      8  C   UNL     1       2.972   5.176  20.201  0.00  0.00    +0.000 C 
ATOM      9  C   UNL     1       2.381   3.799  19.838  0.00  0.00    +0.000 C 
ATOM     10  C   UNL     1       1.784   4.435  18.571  0.00  0.00    +0.000 C 
ENDROOT
BRANCH   2  11
ATOM     11  C   UNL     1       5.577   4.510  16.291  0.00  0.00    +0.000 A 
ATOM     12  C   UNL     1       6.677   5.335  15.911  0.00  0.00    +0.000 A 
ATOM     13  C   UNL     1       6.955   5.003  14.603  0.00  0.00    +0.000 A 
ATOM     14  N   UNL     1       6.062   4.030  14.285  0.00  0.00    +0.000 N 
ATOM     15  N   UNL     1       5.289   3.650  15.299  0.00  0.00    +0.000 NA
ATOM     16  C   UNL     1       5.807   3.474  12.987  0.00  0.00    +0.000 C 
ATOM     17  C   UNL     1       6.765   3.908  11.890  0.00  0.00    +0.000 C 
ATOM     18  C   UNL     1       7.891   4.882  12.245  0.00  0.00    +0.000 C 
ATOM     19  C   UNL     1       7.934   5.525  13.631  0.00  0.00    +0.000 C 
ENDBRANCH   2  11
TORSDOF 1
ENDMDL
MODEL 8
REMARK VINA RESULT:      -6.7      2.873      4.171
REMARK  Name = 
REMARK  1 active torsions:
REMARK  status: ('A' for Active; 'I' for Inactive)
REMARK    1  A    between atoms: C_2  and  C_3
REMARK                            x       y       z     vdW  Elec       q    Type
REMARK                         _______ _______ _______ _____ _____    ______ ____
ROOT
ATOM      1  O   UNL     1       4.654   6.758  15.424  0.00  0.00    +0.000 OA
ATOM      2  C   UNL     1       4.749   6.560  16.635  0.00  0.00    +0.000 C 
ATOM      3  N   UNL     1       5.823   5.867  17.215  0.00  0.00    +0.000 N 
ATOM      4  C   UNL     1       6.138   5.922  18.645  0.00  0.00    +0.000 C 
ATOM      5  C   UNL     1       7.586   5.508  18.725  0.00  0.00    +0.000 C 
ATOM      6  C   UNL     1       7.696   4.432  17.655  0.00  0.00    +0.000 C 
ATOM      7  C   UNL     1       6.731   4.882  16.541  0.00  0.00    +0.000 C 
ATOM      8  C   UNL     1       7.391   5.249  15.193  0.00  0.00    +0.000 C 
ATOM      9  C   UNL     1       6.304   4.430  14.470  0.00  0.00    +0.000 C 
ATOM     10  C   UNL     1       6.004   3.726  15.805  0.00  0.00    +0.000 C 
ENDROOT
BRANCH   2  11
ATOM     11  C   UNL     1       3.706   7.079  17.558  0.00  0.00    +0.000 A 
ATOM     12  C   UNL     1       3.044   8.341  17.508  0.00  0.00    +0.000 A 
ATOM     13  C   UNL     1       2.233   8.379  18.621  0.00  0.00    +0.000 A 
ATOM     14  N   UNL     1       2.427   7.187  19.243  0.00  0.00    +0.000 N 
ATOM     15  N   UNL     1       3.228   6.354  18.584  0.00  0.00    +0.000 NA
ATOM     16  C   UNL     1       1.959   6.799  20.543  0.00  0.00    +0.000 C 
ATOM     17  C   UNL     1       1.002   7.772  21.211  0.00  0.00    +0.000 C 
ATOM     18  C   UNL     1       0.627   9.056  20.469  0.00  0.00    +0.000 C 
ATOM     19  C   UNL     1       1.340   9.418  19.165  0.00  0.00    +0.000 C 
ENDBRANCH   2  11
TORSDOF 1
ENDMDL
MODEL 9
REMARK VINA RESULT:      -6.6      2.687      3.890
REMARK  Name = 
REMARK  1 active torsions:
REMARK  status: ('A' for Active; 'I' for Inactive)
REMARK    1  A    between atoms: C_2  and  C_3
REMARK                            x       y       z     vdW  Elec       q    Type
REMARK                         _______ _______ _______ _____ _____    ______ ____
ROOT
ATOM      1  O   UNL     1       4.442   6.748  15.615  0.00  0.00    +0.000 OA
ATOM      2  C   UNL     1       4.655   6.549  16.810  0.00  0.00    +0.000 C 
ATOM      3  N   UNL     1       5.779   5.854  17.282  0.00  0.00    +0.000 N 
ATOM      4  C   UNL     1       6.232   5.907  18.674  0.00  0.00    +0.000 C 
ATOM      5  C   UNL     1       7.681   5.492  18.612  0.00  0.00    +0.000 C 
ATOM      6  C   UNL     1       7.685   4.417  17.535  0.00  0.00    +0.000 C 
ATOM      7  C   UNL     1       6.617   4.869  16.522  0.00  0.00    +0.000 C 
ATOM      8  C   UNL     1       7.142   5.237  15.116  0.00  0.00    +0.000 C 
ATOM      9  C   UNL     1       5.988   4.420  14.502  0.00  0.00    +0.000 C 
ATOM     10  C   UNL     1       5.819   3.715  15.858  0.00  0.00    +0.000 C 
ENDROOT
BRANCH   2  11
ATOM     11  C   UNL     1       3.708   7.068  17.831  0.00  0.00    +0.000 A 
ATOM     12  C   UNL     1       3.240   6.406  19.005  0.00  0.00    +0.000 A 
ATOM     13  C   UNL     1       2.322   7.263  19.572  0.00  0.00    +0.000 A 
ATOM     14  N   UNL     1       2.299   8.350  18.759  0.00  0.00    +0.000 N 
ATOM     15  N   UNL     1       3.183   8.304  17.765  0.00  0.00    +0.000 NA
ATOM     16  C   UNL     1       1.378   9.449  18.802  0.00  0.00    +0.000 C 
ATOM     17  C   UNL     1       0.438   9.469  19.996  0.00  0.00    +0.000 C 
ATOM     18  C   UNL     1       0.543   8.343  21.028  0.00  0.00    +0.000 C 
ATOM     19  C   UNL     1       1.455   7.146  20.759  0.00  0.00    +0.000 C 
ENDBRANCH   2  11
TORSDOF 1
ENDMDL
