MODEL 1
REMARK VINA RESULT:      -8.4      0.000      0.000
REMARK  Name = 
REMARK  3 active torsions:
REMARK  status: ('A' for Active; 'I' for Inactive)
REMARK    1  A    between atoms: C_2  and  C_11
REMARK    2  A    between atoms: N_3  and  C_4
REMARK    3  A    between atoms: C_11  and  C_13
REMARK                            x       y       z     vdW  Elec       q    Type
REMARK                         _______ _______ _______ _____ _____    ______ ____
ROOT
ATOM      1  C   UNL     1       6.185   5.188  18.235  0.00  0.00    +0.000 C 
ATOM      2  O   UNL     1       6.919   5.582  19.142  0.00  0.00    +0.000 OA
ENDROOT
BRANCH   1   3
ATOM      3  C   UNL     1       4.728   5.196  18.348  0.00  0.00    +0.000 A 
ATOM      4  C   UNL     1       3.986   6.367  18.387  0.00  0.00    +0.000 A 
ATOM      5  N   UNL     1       2.659   6.047  18.440  0.00  0.00    +0.000 N 
ATOM      6  C   UNL     1       2.502   4.683  18.440  0.00  0.00    +0.000 A 
ATOM      7  C   UNL     1       1.325   3.921  18.466  0.00  0.00    +0.000 A 
ATOM      8  C   UNL     1       1.447   2.532  18.479  0.00  0.00    +0.000 A 
ATOM      9  C   UNL     1       2.698   1.929  18.467  0.00  0.00    +0.000 A 
ATOM     10  C   UNL     1       3.865   2.703  18.427  0.00  0.00    +0.000 A 
ATOM     11  C   UNL     1       3.781   4.114  18.408  0.00  0.00    +0.000 A 
ATOM     12  H   UNL     1       1.897   6.712  18.473  0.00  0.00    +0.000 HD
ENDBRANCH   1   3
BRANCH   1  14
ATOM     13  O   UNL     1       8.013   4.274  17.038  0.00  0.00    +0.000 OA
ATOM     14  C   UNL     1       6.887   4.744  16.958  0.00  0.00    +0.000 C 
ATOM     15  N   UNL     1       6.125   4.965  15.814  0.00  0.00    +0.000 N 
ATOM     16  H   UNL     1       5.252   5.456  15.955  0.00  0.00    +0.000 HD
BRANCH  15  17
ATOM     17  C   UNL     1       6.509   4.686  14.485  0.00  0.00    +0.000 A 
ATOM     18  C   UNL     1       7.524   5.378  13.816  0.00  0.00    +0.000 A 
ATOM     19  C   UNL     1       7.835   5.091  12.482  0.00  0.00    +0.000 A 
ATOM     20  C   UNL     1       7.138   4.095  11.806  0.00  0.00    +0.000 A 
ATOM     21  C   UNL     1       6.146   3.391  12.475  0.00  0.00    +0.000 A 
ATOM     22  F   UNL     1       5.477   2.427  11.827  0.00  0.00    +0.000 F 
ATOM     23  C   UNL     1       5.826   3.672  13.803  0.00  0.00    +0.000 A 
ENDBRANCH  15  17
ENDBRANCH   1  14
TORSDOF 3
ENDMDL
MODEL 2
REMARK VINA RESULT:      -8.2      1.146      1.548
REMARK  Name = 
REMARK  3 active torsions:
REMARK  status: ('A' for Active; 'I' for Inactive)
REMARK    1  A    between atoms: C_2  and  C_11
REMARK    2  A    between atoms: N_3  and  C_4
REMARK    3  A    between atoms: C_11  and  C_13
REMARK                            x       y       z     vdW  Elec       q    Type
REMARK                         _______ _______ _______ _____ _____    ______ ____
ROOT
ATOM      1  C   UNL     1       5.967   4.871  18.571  0.00  0.00    +0.000 C 
ATOM      2  O   UNL     1       6.676   5.080  19.556  0.00  0.00    +0.000 OA
ENDROOT
BRANCH   1   3
ATOM      3  C   UNL     1       4.508   4.907  18.635  0.00  0.00    +0.000 A 
ATOM      4  C   UNL     1       3.786   6.091  18.625  0.00  0.00    +0.000 A 
ATOM      5  N   UNL     1       2.453   5.794  18.640  0.00  0.00    +0.000 N 
ATOM      6  C   UNL     1       2.271   4.434  18.662  0.00  0.00    +0.000 A 
ATOM      7  C   UNL     1       1.080   3.693  18.665  0.00  0.00    +0.000 A 
ATOM      8  C   UNL     1       1.177   2.303  18.710  0.00  0.00    +0.000 A 
ATOM      9  C   UNL     1       2.417   1.679  18.752  0.00  0.00    +0.000 A 
ATOM     10  C   UNL     1       3.599   2.431  18.734  0.00  0.00    +0.000 A 
ATOM     11  C   UNL     1       3.541   3.842  18.684  0.00  0.00    +0.000 A 
ATOM     12  H   UNL     1       1.701   6.473  18.635  0.00  0.00    +0.000 HD
ENDBRANCH   1   3
BRANCH   1  14
ATOM     13  O   UNL     1       7.913   4.439  17.291  0.00  0.00    +0.000 OA
ATOM     14  C   UNL     1       6.706   4.631  17.260  0.00  0.00    +0.000 C 
ATOM     15  N   UNL     1       5.872   4.688  16.148  0.00  0.00    +0.000 N 
ATOM     16  H   UNL     1       4.913   4.956  16.330  0.00  0.00    +0.000 HD
BRANCH  15  17
ATOM     17  C   UNL     1       6.260   4.534  14.800  0.00  0.00    +0.000 A 
ATOM     18  C   UNL     1       5.651   3.630  13.922  0.00  0.00    +0.000 A 
ATOM     19  C   UNL     1       6.105   3.485  12.606  0.00  0.00    +0.000 A 
ATOM     20  C   UNL     1       7.169   4.256  12.150  0.00  0.00    +0.000 A 
ATOM     21  C   UNL     1       7.759   5.170  13.011  0.00  0.00    +0.000 A 
ATOM     22  F   UNL     1       8.780   5.919  12.572  0.00  0.00    +0.000 F 
ATOM     23  C   UNL     1       7.317   5.320  14.325  0.00  0.00    +0.000 A 
ENDBRANCH  15  17
ENDBRANCH   1  14
TORSDOF 3
ENDMDL
MODEL 3
REMARK VINA RESULT:      -8.1      1.706      2.033
REMARK  Name = 
REMARK  3 active torsions:
REMARK  status: ('A' for Active; 'I' for Inactive)
REMARK    1  A    between atoms: C_2  and  C_11
REMARK    2  A    between atoms: N_3  and  C_4
REMARK    3  A    between atoms: C_11  and  C_13
REMARK                            x       y       z     vdW  Elec       q    Type
REMARK                         _______ _______ _______ _____ _____    ______ ____
ROOT
ATOM      1  C   UNL     1       4.690   6.150  17.308  0.00  0.00    +0.000 C 
ATOM      2  O   UNL     1       4.441   7.267  17.763  0.00  0.00    +0.000 OA
ENDROOT
BRANCH   1   3
ATOM      3  C   UNL     1       4.491   4.927  18.084  0.00  0.00    +0.000 A 
ATOM      4  C   UNL     1       5.512   4.318  18.797  0.00  0.00    +0.000 A 
ATOM      5  N   UNL     1       5.005   3.235  19.456  0.00  0.00    +0.000 N 
ATOM      6  C   UNL     1       3.663   3.109  19.195  0.00  0.00    +0.000 A 
ATOM      7  C   UNL     1       2.747   2.160  19.671  0.00  0.00    +0.000 A 
ATOM      8  C   UNL     1       1.428   2.247  19.228  0.00  0.00    +0.000 A 
ATOM      9  C   UNL     1       1.041   3.244  18.342  0.00  0.00    +0.000 A 
ATOM     10  C   UNL     1       1.964   4.193  17.885  0.00  0.00    +0.000 A 
ATOM     11  C   UNL     1       3.309   4.140  18.316  0.00  0.00    +0.000 A 
ATOM     12  H   UNL     1       5.534   2.611  20.053  0.00  0.00    +0.000 HD
ENDBRANCH   1   3
BRANCH   1  14
ATOM     13  O   UNL     1       5.039   7.116  15.174  0.00  0.00    +0.000 OA
ATOM     14  C   UNL     1       5.163   6.112  15.861  0.00  0.00    +0.000 C 
ATOM     15  N   UNL     1       5.676   4.873  15.489  0.00  0.00    +0.000 N 
ATOM     16  H   UNL     1       5.601   4.139  16.182  0.00  0.00    +0.000 HD
BRANCH  15  17
ATOM     17  C   UNL     1       6.168   4.517  14.215  0.00  0.00    +0.000 A 
ATOM     18  C   UNL     1       7.327   5.066  13.656  0.00  0.00    +0.000 A 
ATOM     19  C   UNL     1       7.746   4.711  12.369  0.00  0.00    +0.000 A 
ATOM     20  C   UNL     1       7.013   3.789  11.630  0.00  0.00    +0.000 A 
ATOM     21  C   UNL     1       5.875   3.225  12.191  0.00  0.00    +0.000 A 
ATOM     22  F   UNL     1       5.170   2.330  11.483  0.00  0.00    +0.000 F 
ATOM     23  C   UNL     1       5.447   3.575  13.471  0.00  0.00    +0.000 A 
ENDBRANCH  15  17
ENDBRANCH   1  14
TORSDOF 3
ENDMDL
MODEL 4
REMARK VINA RESULT:      -8.0      1.168      1.168
REMARK  Name = 
REMARK  3 active torsions:
REMARK  status: ('A' for Active; 'I' for Inactive)
REMARK    1  A    between atoms: C_2  and  C_11
REMARK    2  A    between atoms: N_3  and  C_4
REMARK    3  A    between atoms: C_11  and  C_13
REMARK                            x       y       z     vdW  Elec       q    Type
REMARK                         _______ _______ _______ _____ _____    ______ ____
ROOT
ATOM      1  C   UNL     1       5.459   5.873  17.743  0.00  0.00    +0.000 C 
ATOM      2  O   UNL     1       6.449   6.201  18.400  0.00  0.00    +0.000 OA
ENDROOT
BRANCH   1   3
ATOM      3  C   UNL     1       4.189   5.513  18.370  0.00  0.00    +0.000 A 
ATOM      4  C   UNL     1       3.479   6.385  19.181  0.00  0.00    +0.000 A 
ATOM      5  N   UNL     1       2.316   5.781  19.567  0.00  0.00    +0.000 N 
ATOM      6  C   UNL     1       2.238   4.520  19.030  0.00  0.00    +0.000 A 
ATOM      7  C   UNL     1       1.220   3.563  19.149  0.00  0.00    +0.000 A 
ATOM      8  C   UNL     1       1.402   2.336  18.510  0.00  0.00    +0.000 A 
ATOM      9  C   UNL     1       2.557   2.078  17.783  0.00  0.00    +0.000 A 
ATOM     10  C   UNL     1       3.559   3.049  17.663  0.00  0.00    +0.000 A 
ATOM     11  C   UNL     1       3.409   4.306  18.291  0.00  0.00    +0.000 A 
ATOM     12  H   UNL     1       1.610   6.196  20.161  0.00  0.00    +0.000 HD
ENDBRANCH   1   3
BRANCH   1  14
ATOM     13  O   UNL     1       5.165   6.881  15.621  0.00  0.00    +0.000 OA
ATOM     14  C   UNL     1       5.620   5.923  16.230  0.00  0.00    +0.000 C 
ATOM     15  N   UNL     1       6.274   4.808  15.715  0.00  0.00    +0.000 N 
ATOM     16  H   UNL     1       6.486   4.076  16.381  0.00  0.00    +0.000 HD
BRANCH  15  17
ATOM     17  C   UNL     1       6.549   4.550  14.355  0.00  0.00    +0.000 A 
ATOM     18  C   UNL     1       7.564   5.195  13.640  0.00  0.00    +0.000 A 
ATOM     19  C   UNL     1       7.766   4.935  12.280  0.00  0.00    +0.000 A 
ATOM     20  C   UNL     1       6.959   4.013  11.622  0.00  0.00    +0.000 A 
ATOM     21  C   UNL     1       5.966   3.355  12.335  0.00  0.00    +0.000 A 
ATOM     22  F   UNL     1       5.190   2.461  11.705  0.00  0.00    +0.000 F 
ATOM     23  C   UNL     1       5.754   3.610  13.690  0.00  0.00    +0.000 A 
ENDBRANCH  15  17
ENDBRANCH   1  14
TORSDOF 3
ENDMDL
MODEL 5
REMARK VINA RESULT:      -8.0      1.978      2.655
REMARK  Name = 
REMARK  3 active torsions:
REMARK  status: ('A' for Active; 'I' for Inactive)
REMARK    1  A    between atoms: C_2  and  C_11
REMARK    2  A    between atoms: N_3  and  C_4
REMARK    3  A    between atoms: C_11  and  C_13
REMARK                            x       y       z     vdW  Elec       q    Type
REMARK                         _______ _______ _______ _____ _____    ______ ____
ROOT
ATOM      1  C   UNL     1       5.378   4.090  17.997  0.00  0.00    +0.000 C 
ATOM      2  O   UNL     1       6.280   4.254  18.820  0.00  0.00    +0.000 OA
ENDROOT
BRANCH   1   3
ATOM      3  C   UNL     1       4.128   3.412  18.331  0.00  0.00    +0.000 A 
ATOM      4  C   UNL     1       3.828   2.131  17.891  0.00  0.00    +0.000 A 
ATOM      5  N   UNL     1       2.623   1.756  18.411  0.00  0.00    +0.000 N 
ATOM      6  C   UNL     1       2.110   2.764  19.190  0.00  0.00    +0.000 A 
ATOM      7  C   UNL     1       0.916   2.803  19.924  0.00  0.00    +0.000 A 
ATOM      8  C   UNL     1       0.619   3.972  20.623  0.00  0.00    +0.000 A 
ATOM      9  C   UNL     1       1.483   5.059  20.588  0.00  0.00    +0.000 A 
ATOM     10  C   UNL     1       2.679   5.001  19.862  0.00  0.00    +0.000 A 
ATOM     11  C   UNL     1       3.017   3.831  19.144  0.00  0.00    +0.000 A 
ATOM     12  H   UNL     1       2.167   0.866  18.251  0.00  0.00    +0.000 HD
ENDBRANCH   1   3
BRANCH   1  14
ATOM     13  O   UNL     1       5.277   5.849  16.414  0.00  0.00    +0.000 OA
ATOM     14  C   UNL     1       5.619   4.693  16.619  0.00  0.00    +0.000 C 
ATOM     15  N   UNL     1       6.201   3.796  15.728  0.00  0.00    +0.000 N 
ATOM     16  H   UNL     1       6.318   2.850  16.068  0.00  0.00    +0.000 HD
BRANCH  15  17
ATOM     17  C   UNL     1       6.522   4.046  14.377  0.00  0.00    +0.000 A 
ATOM     18  C   UNL     1       5.935   3.360  13.307  0.00  0.00    +0.000 A 
ATOM     19  C   UNL     1       6.322   3.617  11.987  0.00  0.00    +0.000 A 
ATOM     20  C   UNL     1       7.295   4.575  11.722  0.00  0.00    +0.000 A 
ATOM     21  C   UNL     1       7.861   5.274  12.779  0.00  0.00    +0.000 A 
ATOM     22  F   UNL     1       8.793   6.203  12.526  0.00  0.00    +0.000 F 
ATOM     23  C   UNL     1       7.485   5.023  14.099  0.00  0.00    +0.000 A 
ENDBRANCH  15  17
ENDBRANCH   1  14
TORSDOF 3
ENDMDL
MODEL 6
REMARK VINA RESULT:      -7.7      2.198      2.735
REMARK  Name = 
REMARK  3 active torsions:
REMARK  status: ('A' for Active; 'I' for Inactive)
REMARK    1  A    between atoms: C_2  and  C_11
REMARK    2  A    between atoms: N_3  and  C_4
REMARK    3  A    between atoms: C_11  and  C_13
REMARK                            x       y       z     vdW  Elec       q    Type
REMARK                         _______ _______ _______ _____ _____    ______ ____
ROOT
ATOM      1  C   UNL     1       4.189   6.006  17.594  0.00  0.00    +0.000 C 
ATOM      2  O   UNL     1       3.543   7.014  17.885  0.00  0.00    +0.000 OA
ENDROOT
BRANCH   1   3
ATOM      3  C   UNL     1       4.196   4.812  18.436  0.00  0.00    +0.000 A 
ATOM      4  C   UNL     1       5.317   4.010  18.590  0.00  0.00    +0.000 A 
ATOM      5  N   UNL     1       5.026   3.011  19.474  0.00  0.00    +0.000 N 
ATOM      6  C   UNL     1       3.730   3.129  19.912  0.00  0.00    +0.000 A 
ATOM      7  C   UNL     1       3.024   2.339  20.830  0.00  0.00    +0.000 A 
ATOM      8  C   UNL     1       1.693   2.669  21.087  0.00  0.00    +0.000 A 
ATOM      9  C   UNL     1       1.094   3.748  20.449  0.00  0.00    +0.000 A 
ATOM     10  C   UNL     1       1.816   4.537  19.545  0.00  0.00    +0.000 A 
ATOM     11  C   UNL     1       3.168   4.236  19.263  0.00  0.00    +0.000 A 
ATOM     12  H   UNL     1       5.667   2.285  19.770  0.00  0.00    +0.000 HD
ENDBRANCH   1   3
BRANCH   1  14
ATOM     13  O   UNL     1       5.289   7.143  15.832  0.00  0.00    +0.000 OA
ATOM     14  C   UNL     1       4.936   6.057  16.268  0.00  0.00    +0.000 C 
ATOM     15  N   UNL     1       5.104   4.801  15.691  0.00  0.00    +0.000 N 
ATOM     16  H   UNL     1       4.650   4.033  16.169  0.00  0.00    +0.000 HD
BRANCH  15  17
ATOM     17  C   UNL     1       5.730   4.523  14.457  0.00  0.00    +0.000 A 
ATOM     18  C   UNL     1       5.208   3.631  13.514  0.00  0.00    +0.000 A 
ATOM     19  C   UNL     1       5.892   3.357  12.325  0.00  0.00    +0.000 A 
ATOM     20  C   UNL     1       7.104   3.985  12.060  0.00  0.00    +0.000 A 
ATOM     21  C   UNL     1       7.612   4.889  12.984  0.00  0.00    +0.000 A 
ATOM     22  F   UNL     1       8.777   5.501  12.728  0.00  0.00    +0.000 F 
ATOM     23  C   UNL     1       6.940   5.166  14.173  0.00  0.00    +0.000 A 
ENDBRANCH  15  17
ENDBRANCH   1  14
TORSDOF 3
ENDMDL
MODEL 7
REMARK VINA RESULT:      -7.7      1.624      2.169
REMARK  Name = 
REMARK  3 active torsions:
REMARK  status: ('A' for Active; 'I' for Inactive)
REMARK    1  A    between atoms: C_2  and  C_11
REMARK    2  A    between atoms: N_3  and  C_4
REMARK    3  A    between atoms: C_11  and  C_13
REMARK                            x       y       z     vdW  Elec       q    Type
REMARK                         _______ _______ _______ _____ _____    ______ ____
ROOT
ATOM      1  C   UNL     1       5.436   4.188  18.071  0.00  0.00    +0.000 C 
ATOM      2  O   UNL     1       6.323   4.396  18.900  0.00  0.00    +0.000 OA
ENDROOT
BRANCH   1   3
ATOM      3  C   UNL     1       4.195   3.494  18.410  0.00  0.00    +0.000 A 
ATOM      4  C   UNL     1       3.920   2.202  17.988  0.00  0.00    +0.000 A 
ATOM      5  N   UNL     1       2.718   1.815  18.507  0.00  0.00    +0.000 N 
ATOM      6  C   UNL     1       2.183   2.826  19.267  0.00  0.00    +0.000 A 
ATOM      7  C   UNL     1       0.985   2.857  19.994  0.00  0.00    +0.000 A 
ATOM      8  C   UNL     1       0.664   4.032  20.673  0.00  0.00    +0.000 A 
ATOM      9  C   UNL     1       1.510   5.133  20.626  0.00  0.00    +0.000 A 
ATOM     10  C   UNL     1       2.711   5.082  19.907  0.00  0.00    +0.000 A 
ATOM     11  C   UNL     1       3.072   3.907  19.209  0.00  0.00    +0.000 A 
ATOM     12  H   UNL     1       2.278   0.915  18.359  0.00  0.00    +0.000 HD
ENDBRANCH   1   3
BRANCH   1  14
ATOM     13  O   UNL     1       5.342   5.904  16.441  0.00  0.00    +0.000 OA
ATOM     14  C   UNL     1       5.683   4.754  16.679  0.00  0.00    +0.000 C 
ATOM     15  N   UNL     1       6.270   3.835  15.815  0.00  0.00    +0.000 N 
ATOM     16  H   UNL     1       6.386   2.898  16.181  0.00  0.00    +0.000 HD
BRANCH  15  17
ATOM     17  C   UNL     1       6.598   4.049  14.459  0.00  0.00    +0.000 A 
ATOM     18  C   UNL     1       7.520   5.011  14.032  0.00  0.00    +0.000 A 
ATOM     19  C   UNL     1       7.775   5.212  12.672  0.00  0.00    +0.000 A 
ATOM     20  C   UNL     1       7.117   4.441  11.720  0.00  0.00    +0.000 A 
ATOM     21  C   UNL     1       6.219   3.469  12.141  0.00  0.00    +0.000 A 
ATOM     22  F   UNL     1       5.588   2.719  11.226  0.00  0.00    +0.000 F 
ATOM     23  C   UNL     1       5.955   3.263  13.495  0.00  0.00    +0.000 A 
ENDBRANCH  15  17
ENDBRANCH   1  14
TORSDOF 3
ENDMDL
MODEL 8
REMARK VINA RESULT:      -7.6      1.716      2.024
REMARK  Name = 
REMARK  3 active torsions:
REMARK  status: ('A' for Active; 'I' for Inactive)
REMARK    1  A    between atoms: C_2  and  C_11
REMARK    2  A    between atoms: N_3  and  C_4
REMARK    3  A    between atoms: C_11  and  C_13
REMARK                            x       y       z     vdW  Elec       q    Type
REMARK                         _______ _______ _______ _____ _____    ______ ____
ROOT
ATOM      1  C   UNL     1       5.621   5.227  18.459  0.00  0.00    +0.000 C 
ATOM      2  O   UNL     1       6.554   4.921  19.203  0.00  0.00    +0.000 OA
ENDROOT
BRANCH   1   3
ATOM      3  C   UNL     1       4.245   5.343  18.937  0.00  0.00    +0.000 A 
ATOM      4  C   UNL     1       3.455   6.455  18.684  0.00  0.00    +0.000 A 
ATOM      5  N   UNL     1       2.213   6.242  19.210  0.00  0.00    +0.000 N 
ATOM      6  C   UNL     1       2.159   5.009  19.813  0.00  0.00    +0.000 A 
ATOM      7  C   UNL     1       1.087   4.378  20.458  0.00  0.00    +0.000 A 
ATOM      8  C   UNL     1       1.308   3.117  21.009  0.00  0.00    +0.000 A 
ATOM      9  C   UNL     1       2.554   2.511  20.918  0.00  0.00    +0.000 A 
ATOM     10  C   UNL     1       3.613   3.147  20.258  0.00  0.00    +0.000 A 
ATOM     11  C   UNL     1       3.426   4.425  19.683  0.00  0.00    +0.000 A 
ATOM     12  H   UNL     1       1.438   6.893  19.166  0.00  0.00    +0.000 HD
ENDBRANCH   1   3
BRANCH   1  14
ATOM     13  O   UNL     1       6.185   6.701  16.693  0.00  0.00    +0.000 OA
ATOM     14  C   UNL     1       5.997   5.537  17.016  0.00  0.00    +0.000 C 
ATOM     15  N   UNL     1       6.055   4.402  16.213  0.00  0.00    +0.000 N 
ATOM     16  H   UNL     1       5.768   3.536  16.654  0.00  0.00    +0.000 HD
BRANCH  15  17
ATOM     17  C   UNL     1       6.348   4.364  14.834  0.00  0.00    +0.000 A 
ATOM     18  C   UNL     1       5.649   3.568  13.919  0.00  0.00    +0.000 A 
ATOM     19  C   UNL     1       6.011   3.535  12.568  0.00  0.00    +0.000 A 
ATOM     20  C   UNL     1       7.072   4.311  12.113  0.00  0.00    +0.000 A 
ATOM     21  C   UNL     1       7.752   5.119  13.014  0.00  0.00    +0.000 A 
ATOM     22  F   UNL     1       8.771   5.873  12.578  0.00  0.00    +0.000 F 
ATOM     23  C   UNL     1       7.402   5.157  14.364  0.00  0.00    +0.000 A 
ENDBRANCH  15  17
ENDBRANCH   1  14
TORSDOF 3
ENDMDL
MODEL 9
REMARK VINA RESULT:      -7.6      1.638      2.294
REMARK  Name = 
REMARK  3 active torsions:
REMARK  status: ('A' for Active; 'I' for Inactive)
REMARK    1  A    between atoms: C_2  and  C_11
REMARK    2  A    between atoms: N_3  and  C_4
REMARK    3  A    between atoms: C_11  and  C_13
REMARK                            x       y       z     vdW  Elec       q    Type
REMARK                         _______ _______ _______ _____ _____    ______ ____
ROOT
ATOM      1  C   UNL     1       6.085   4.546  18.602  0.00  0.00    +0.000 C 
ATOM      2  O   UNL     1       6.498   5.452  19.327  0.00  0.00    +0.000 OA
ENDROOT
BRANCH   1   3
ATOM      3  C   UNL     1       4.951   3.703  18.971  0.00  0.00    +0.000 A 
ATOM      4  C   UNL     1       5.066   2.630  19.842  0.00  0.00    +0.000 A 
ATOM      5  N   UNL     1       3.831   2.078  20.029  0.00  0.00    +0.000 N 
ATOM      6  C   UNL     1       2.892   2.762  19.296  0.00  0.00    +0.000 A 
ATOM      7  C   UNL     1       1.509   2.553  19.204  0.00  0.00    +0.000 A 
ATOM      8  C   UNL     1       0.778   3.389  18.361  0.00  0.00    +0.000 A 
ATOM      9  C   UNL     1       1.408   4.394  17.638  0.00  0.00    +0.000 A 
ATOM     10  C   UNL     1       2.789   4.599  17.750  0.00  0.00    +0.000 A 
ATOM     11  C   UNL     1       3.562   3.775  18.599  0.00  0.00    +0.000 A 
ATOM     12  H   UNL     1       3.628   1.282  20.621  0.00  0.00    +0.000 HD
ENDBRANCH   1   3
BRANCH   1  14
ATOM     13  O   UNL     1       8.005   4.228  17.251  0.00  0.00    +0.000 OA
ATOM     14  C   UNL     1       6.793   4.394  17.262  0.00  0.00    +0.000 C 
ATOM     15  N   UNL     1       5.929   4.493  16.176  0.00  0.00    +0.000 N 
ATOM     16  H   UNL     1       4.970   4.730  16.396  0.00  0.00    +0.000 HD
BRANCH  15  17
ATOM     17  C   UNL     1       6.285   4.421  14.812  0.00  0.00    +0.000 A 
ATOM     18  C   UNL     1       5.655   3.570  13.896  0.00  0.00    +0.000 A 
ATOM     19  C   UNL     1       6.077   3.506  12.564  0.00  0.00    +0.000 A 
ATOM     20  C   UNL     1       7.129   4.305  12.129  0.00  0.00    +0.000 A 
ATOM     21  C   UNL     1       7.739   5.168  13.029  0.00  0.00    +0.000 A 
ATOM     22  F   UNL     1       8.749   5.944  12.611  0.00  0.00    +0.000 F 
ATOM     23  C   UNL     1       7.329   5.237  14.360  0.00  0.00    +0.000 A 
ENDBRANCH  15  17
ENDBRANCH   1  14
TORSDOF 3
ENDMDL
