MODEL 1
REMARK VINA RESULT:      -6.1      0.000      0.000
REMARK  Name = 
REMARK  15 active torsions:
REMARK  status: ('A' for Active; 'I' for Inactive)
REMARK    1  A    between atoms: C_1  and  C_2
REMARK    2  A    between atoms: C_2  and  C_3
REMARK    3  A    between atoms: C_2  and  C_4
REMARK    4  A    between atoms: C_4  and  C_5
REMARK    5  A    between atoms: C_5  and  O_7
REMARK    6  A    between atoms: O_7  and  C_8
REMARK    7  A    between atoms: C_8  and  C_9
REMARK    8  A    between atoms: C_9  and  C_10
REMARK    9  A    between atoms: C_9  and  O_12
REMARK   10  A    between atoms: C_10  and  O_11
REMARK   11  A    between atoms: O_12  and  C_13
REMARK   12  A    between atoms: C_13  and  C_15
REMARK   13  A    between atoms: C_15  and  C_16
REMARK   14  A    between atoms: C_16  and  C_17
REMARK   15  A    between atoms: C_16  and  C_18
REMARK                            x       y       z     vdW  Elec       q    Type
REMARK                         _______ _______ _______ _____ _____    ______ ____
ROOT
ATOM      1  C   UNL     1       5.926   4.673  16.385  0.00  0.00    +0.000 C 
ENDROOT
BRANCH   1   2
ATOM      2  C   UNL     1       4.738   5.223  17.187  0.00  0.00    +0.000 C 
BRANCH   2   3
ATOM      3  O   UNL     1       3.600   4.340  17.131  0.00  0.00    +0.000 OA
BRANCH   3   4
ATOM      4  C   UNL     1       3.348   3.647  18.278  0.00  0.00    +0.000 C 
ATOM      5  O   UNL     1       4.199   3.282  19.076  0.00  0.00    +0.000 OA
BRANCH   4   6
ATOM      6  C   UNL     1       1.865   3.420  18.462  0.00  0.00    +0.000 C 
BRANCH   6   8
ATOM      7  C   UNL     1       1.408   3.179  20.944  0.00  0.00    +0.000 C 
ATOM      8  C   UNL     1       1.340   4.109  19.730  0.00  0.00    +0.000 C 
ATOM      9  C   UNL     1       2.130   5.388  20.015  0.00  0.00    +0.000 C 
ENDBRANCH   6   8
ENDBRANCH   4   6
ENDBRANCH   3   4
ENDBRANCH   2   3
ENDBRANCH   1   2
BRANCH   1  10
ATOM     10  C   UNL     1       7.204   4.578  17.239  0.00  0.00    +0.000 C 
BRANCH  10  11
ATOM     11  O   UNL     1       6.923   4.166  18.577  0.00  0.00    +0.000 OA
ATOM     12  H   UNL     1       5.977   4.318  18.741  0.00  0.00    +0.000 HD
ENDBRANCH  10  11
ENDBRANCH   1  10
BRANCH   1  13
ATOM     13  O   UNL     1       6.144   5.535  15.245  0.00  0.00    +0.000 OA
BRANCH  13  14
ATOM     14  C   UNL     1       6.830   4.963  14.219  0.00  0.00    +0.000 C 
ATOM     15  O   UNL     1       7.871   5.396  13.739  0.00  0.00    +0.000 OA
BRANCH  14  16
ATOM     16  C   UNL     1       6.150   3.710  13.726  0.00  0.00    +0.000 C 
BRANCH  16  17
ATOM     17  C   UNL     1       6.059   3.643  12.196  0.00  0.00    +0.000 C 
ATOM     18  C   UNL     1       7.015   2.600  11.615  0.00  0.00    +0.000 C 
ATOM     19  C   UNL     1       4.624   3.322  11.771  0.00  0.00    +0.000 C 
ENDBRANCH  16  17
ENDBRANCH  14  16
ENDBRANCH  13  14
ENDBRANCH   1  13
TORSDOF 11
ENDMDL
MODEL 2
REMARK VINA RESULT:      -6.1      1.268      6.706
REMARK  Name = 
REMARK  15 active torsions:
REMARK  status: ('A' for Active; 'I' for Inactive)
REMARK    1  A    between atoms: C_1  and  C_2
REMARK    2  A    between atoms: C_2  and  C_3
REMARK    3  A    between atoms: C_2  and  C_4
REMARK    4  A    between atoms: C_4  and  C_5
REMARK    5  A    between atoms: C_5  and  O_7
REMARK    6  A    between atoms: O_7  and  C_8
REMARK    7  A    between atoms: C_8  and  C_9
REMARK    8  A    between atoms: C_9  and  C_10
REMARK    9  A    between atoms: C_9  and  O_12
REMARK   10  A    between atoms: C_10  and  O_11
REMARK   11  A    between atoms: O_12  and  C_13
REMARK   12  A    between atoms: C_13  and  C_15
REMARK   13  A    between atoms: C_15  and  C_16
REMARK   14  A    between atoms: C_16  and  C_17
REMARK   15  A    between atoms: C_16  and  C_18
REMARK                            x       y       z     vdW  Elec       q    Type
REMARK                         _______ _______ _______ _____ _____    ______ ____
ROOT
ATOM      1  C   UNL     1       3.995   5.055  18.056  0.00  0.00    +0.000 C 
ENDROOT
BRANCH   1   2
ATOM      2  C   UNL     1       4.525   5.602  16.723  0.00  0.00    +0.000 C 
BRANCH   2   3
ATOM      3  O   UNL     1       5.959   5.744  16.736  0.00  0.00    +0.000 OA
BRANCH   3   4
ATOM      4  C   UNL     1       6.630   4.919  15.882  0.00  0.00    +0.000 C 
ATOM      5  O   UNL     1       7.751   4.473  16.079  0.00  0.00    +0.000 OA
BRANCH   4   6
ATOM      6  C   UNL     1       5.791   4.590  14.670  0.00  0.00    +0.000 C 
BRANCH   6   8
ATOM      7  C   UNL     1       5.781   3.336  12.467  0.00  0.00    +0.000 C 
ATOM      8  C   UNL     1       6.645   4.022  13.528  0.00  0.00    +0.000 C 
ATOM      9  C   UNL     1       7.480   5.127  12.877  0.00  0.00    +0.000 C 
ENDBRANCH   6   8
ENDBRANCH   4   6
ENDBRANCH   3   4
ENDBRANCH   2   3
ENDBRANCH   1   2
BRANCH   1  10
ATOM     10  C   UNL     1       5.102   4.955  19.120  0.00  0.00    +0.000 C 
BRANCH  10  11
ATOM     11  O   UNL     1       5.824   3.726  19.025  0.00  0.00    +0.000 OA
ATOM     12  H   UNL     1       6.073   3.458  19.927  0.00  0.00    +0.000 HD
ENDBRANCH  10  11
ENDBRANCH   1  10
BRANCH   1  13
ATOM     13  O   UNL     1       3.409   3.755  17.813  0.00  0.00    +0.000 OA
BRANCH  13  14
ATOM     14  C   UNL     1       2.066   3.687  18.018  0.00  0.00    +0.000 C 
ATOM     15  O   UNL     1       1.224   4.319  17.390  0.00  0.00    +0.000 OA
BRANCH  14  16
ATOM     16  C   UNL     1       1.721   2.732  19.133  0.00  0.00    +0.000 C 
BRANCH  16  17
ATOM     17  C   UNL     1       1.086   3.430  20.343  0.00  0.00    +0.000 C 
ATOM     18  C   UNL     1       1.337   2.659  21.641  0.00  0.00    +0.000 C 
ATOM     19  C   UNL     1       1.634   4.852  20.472  0.00  0.00    +0.000 C 
ENDBRANCH  16  17
ENDBRANCH  14  16
ENDBRANCH  13  14
ENDBRANCH   1  13
TORSDOF 11
ENDMDL
MODEL 3
REMARK VINA RESULT:      -6.1      0.996      1.271
REMARK  Name = 
REMARK  15 active torsions:
REMARK  status: ('A' for Active; 'I' for Inactive)
REMARK    1  A    between atoms: C_1  and  C_2
REMARK    2  A    between atoms: C_2  and  C_3
REMARK    3  A    between atoms: C_2  and  C_4
REMARK    4  A    between atoms: C_4  and  C_5
REMARK    5  A    between atoms: C_5  and  O_7
REMARK    6  A    between atoms: O_7  and  C_8
REMARK    7  A    between atoms: C_8  and  C_9
REMARK    8  A    between atoms: C_9  and  C_10
REMARK    9  A    between atoms: C_9  and  O_12
REMARK   10  A    between atoms: C_10  and  O_11
REMARK   11  A    between atoms: O_12  and  C_13
REMARK   12  A    between atoms: C_13  and  C_15
REMARK   13  A    between atoms: C_15  and  C_16
REMARK   14  A    between atoms: C_16  and  C_17
REMARK   15  A    between atoms: C_16  and  C_18
REMARK                            x       y       z     vdW  Elec       q    Type
REMARK                         _______ _______ _______ _____ _____    ______ ____
ROOT
ATOM      1  C   UNL     1       5.964   4.836  16.454  0.00  0.00    +0.000 C 
ENDROOT
BRANCH   1   2
ATOM      2  C   UNL     1       5.023   5.605  17.392  0.00  0.00    +0.000 C 
BRANCH   2   3
ATOM      3  O   UNL     1       5.303   5.325  18.778  0.00  0.00    +0.000 OA
BRANCH   3   4
ATOM      4  C   UNL     1       4.553   4.330  19.331  0.00  0.00    +0.000 C 
ATOM      5  O   UNL     1       4.961   3.205  19.582  0.00  0.00    +0.000 OA
BRANCH   4   6
ATOM      6  C   UNL     1       3.151   4.808  19.633  0.00  0.00    +0.000 C 
BRANCH   6   8
ATOM      7  C   UNL     1       0.966   3.618  20.119  0.00  0.00    +0.000 C 
ATOM      8  C   UNL     1       2.093   3.828  19.105  0.00  0.00    +0.000 C 
ATOM      9  C   UNL     1       1.511   4.327  17.781  0.00  0.00    +0.000 C 
ENDBRANCH   6   8
ENDBRANCH   4   6
ENDBRANCH   3   4
ENDBRANCH   2   3
ENDBRANCH   1   2
BRANCH   1  10
ATOM     10  C   UNL     1       7.365   4.651  17.066  0.00  0.00    +0.000 C 
BRANCH  10  11
ATOM     11  O   UNL     1       7.866   5.865  17.627  0.00  0.00    +0.000 OA
ATOM     12  H   UNL     1       7.531   5.931  18.538  0.00  0.00    +0.000 HD
ENDBRANCH  10  11
ENDBRANCH   1  10
BRANCH   1  13
ATOM     13  O   UNL     1       6.051   5.558  15.204  0.00  0.00    +0.000 OA
BRANCH  13  14
ATOM     14  C   UNL     1       6.807   4.954  14.247  0.00  0.00    +0.000 C 
ATOM     15  O   UNL     1       7.880   5.373  13.830  0.00  0.00    +0.000 OA
BRANCH  14  16
ATOM     16  C   UNL     1       6.160   3.688  13.745  0.00  0.00    +0.000 C 
BRANCH  16  17
ATOM     17  C   UNL     1       6.061   3.635  12.215  0.00  0.00    +0.000 C 
ATOM     18  C   UNL     1       6.996   2.580  11.621  0.00  0.00    +0.000 C 
ATOM     19  C   UNL     1       4.619   3.343  11.794  0.00  0.00    +0.000 C 
ENDBRANCH  16  17
ENDBRANCH  14  16
ENDBRANCH  13  14
ENDBRANCH   1  13
TORSDOF 11
ENDMDL
MODEL 4
REMARK VINA RESULT:      -5.9      2.614      3.871
REMARK  Name = 
REMARK  15 active torsions:
REMARK  status: ('A' for Active; 'I' for Inactive)
REMARK    1  A    between atoms: C_1  and  C_2
REMARK    2  A    between atoms: C_2  and  C_3
REMARK    3  A    between atoms: C_2  and  C_4
REMARK    4  A    between atoms: C_4  and  C_5
REMARK    5  A    between atoms: C_5  and  O_7
REMARK    6  A    between atoms: O_7  and  C_8
REMARK    7  A    between atoms: C_8  and  C_9
REMARK    8  A    between atoms: C_9  and  C_10
REMARK    9  A    between atoms: C_9  and  O_12
REMARK   10  A    between atoms: C_10  and  O_11
REMARK   11  A    between atoms: O_12  and  C_13
REMARK   12  A    between atoms: C_13  and  C_15
REMARK   13  A    between atoms: C_15  and  C_16
REMARK   14  A    between atoms: C_16  and  C_17
REMARK   15  A    between atoms: C_16  and  C_18
REMARK                            x       y       z     vdW  Elec       q    Type
REMARK                         _______ _______ _______ _____ _____    ______ ____
ROOT
ATOM      1  C   UNL     1       4.598   3.749  17.577  0.00  0.00    +0.000 C 
ENDROOT
BRANCH   1   2
ATOM      2  C   UNL     1       3.102   3.616  17.258  0.00  0.00    +0.000 C 
BRANCH   2   3
ATOM      3  O   UNL     1       2.502   2.510  17.961  0.00  0.00    +0.000 OA
BRANCH   3   4
ATOM      4  C   UNL     1       1.248   2.742  18.445  0.00  0.00    +0.000 C 
ATOM      5  O   UNL     1       0.327   1.940  18.410  0.00  0.00    +0.000 OA
BRANCH   4   6
ATOM      6  C   UNL     1       1.152   4.113  19.072  0.00  0.00    +0.000 C 
BRANCH   6   8
ATOM      7  C   UNL     1       1.568   2.633  21.088  0.00  0.00    +0.000 C 
ATOM      8  C   UNL     1       1.204   4.039  20.605  0.00  0.00    +0.000 C 
ATOM      9  C   UNL     1       2.207   5.052  21.160  0.00  0.00    +0.000 C 
ENDBRANCH   6   8
ENDBRANCH   4   6
ENDBRANCH   3   4
ENDBRANCH   2   3
ENDBRANCH   1   2
BRANCH   1  10
ATOM     10  C   UNL     1       4.871   3.714  19.092  0.00  0.00    +0.000 C 
BRANCH  10  11
ATOM     11  O   UNL     1       4.976   2.378  19.585  0.00  0.00    +0.000 OA
ATOM     12  H   UNL     1       4.111   1.949  19.465  0.00  0.00    +0.000 HD
ENDBRANCH  10  11
ENDBRANCH   1  10
BRANCH   1  13
ATOM     13  O   UNL     1       5.076   4.989  17.007  0.00  0.00    +0.000 OA
BRANCH  13  14
ATOM     14  C   UNL     1       6.327   4.928  16.475  0.00  0.00    +0.000 C 
ATOM     15  O   UNL     1       6.870   3.907  16.068  0.00  0.00    +0.000 OA
BRANCH  14  16
ATOM     16  C   UNL     1       6.986   6.284  16.446  0.00  0.00    +0.000 C 
BRANCH  16  17
ATOM     17  C   UNL     1       7.144   6.901  17.841  0.00  0.00    +0.000 C 
ATOM     18  C   UNL     1       7.859   5.951  18.805  0.00  0.00    +0.000 C 
ATOM     19  C   UNL     1       7.917   8.218  17.746  0.00  0.00    +0.000 C 
ENDBRANCH  16  17
ENDBRANCH  14  16
ENDBRANCH  13  14
ENDBRANCH   1  13
TORSDOF 11
ENDMDL
MODEL 5
REMARK VINA RESULT:      -5.9      1.728      6.189
REMARK  Name = 
REMARK  15 active torsions:
REMARK  status: ('A' for Active; 'I' for Inactive)
REMARK    1  A    between atoms: C_1  and  C_2
REMARK    2  A    between atoms: C_2  and  C_3
REMARK    3  A    between atoms: C_2  and  C_4
REMARK    4  A    between atoms: C_4  and  C_5
REMARK    5  A    between atoms: C_5  and  O_7
REMARK    6  A    between atoms: O_7  and  C_8
REMARK    7  A    between atoms: C_8  and  C_9
REMARK    8  A    between atoms: C_9  and  C_10
REMARK    9  A    between atoms: C_9  and  O_12
REMARK   10  A    between atoms: C_10  and  O_11
REMARK   11  A    between atoms: O_12  and  C_13
REMARK   12  A    between atoms: C_13  and  C_15
REMARK   13  A    between atoms: C_15  and  C_16
REMARK   14  A    between atoms: C_16  and  C_17
REMARK   15  A    between atoms: C_16  and  C_18
REMARK                            x       y       z     vdW  Elec       q    Type
REMARK                         _______ _______ _______ _____ _____    ______ ____
ROOT
ATOM      1  C   UNL     1       6.952   5.748  18.931  0.00  0.00    +0.000 C 
ENDROOT
BRANCH   1   2
ATOM      2  C   UNL     1       7.104   6.348  17.527  0.00  0.00    +0.000 C 
BRANCH   2   3
ATOM      3  O   UNL     1       7.287   5.327  16.526  0.00  0.00    +0.000 OA
BRANCH   3   4
ATOM      4  C   UNL     1       6.360   5.323  15.526  0.00  0.00    +0.000 C 
ATOM      5  O   UNL     1       5.524   6.197  15.344  0.00  0.00    +0.000 OA
BRANCH   4   6
ATOM      6  C   UNL     1       6.523   4.112  14.637  0.00  0.00    +0.000 C 
BRANCH   6   8
ATOM      7  C   UNL     1       7.854   5.127  12.733  0.00  0.00    +0.000 C 
ATOM      8  C   UNL     1       6.523   4.497  13.151  0.00  0.00    +0.000 C 
ATOM      9  C   UNL     1       6.235   3.274  12.278  0.00  0.00    +0.000 C 
ENDBRANCH   6   8
ENDBRANCH   4   6
ENDBRANCH   3   4
ENDBRANCH   2   3
ENDBRANCH   1   2
BRANCH   1  10
ATOM     10  C   UNL     1       8.313   5.522  19.614  0.00  0.00    +0.000 C 
BRANCH  10  11
ATOM     11  O   UNL     1       8.178   5.321  21.021  0.00  0.00    +0.000 OA
ATOM     12  H   UNL     1       8.504   6.121  21.467  0.00  0.00    +0.000 HD
ENDBRANCH  10  11
ENDBRANCH   1  10
BRANCH   1  13
ATOM     13  O   UNL     1       6.231   4.499  18.817  0.00  0.00    +0.000 OA
BRANCH  13  14
ATOM     14  C   UNL     1       4.902   4.580  19.098  0.00  0.00    +0.000 C 
ATOM     15  O   UNL     1       4.365   5.497  19.708  0.00  0.00    +0.000 OA
BRANCH  14  16
ATOM     16  C   UNL     1       4.148   3.385  18.569  0.00  0.00    +0.000 C 
BRANCH  16  17
ATOM     17  C   UNL     1       2.634   3.487  18.794  0.00  0.00    +0.000 C 
ATOM     18  C   UNL     1       1.925   4.138  17.605  0.00  0.00    +0.000 C 
ATOM     19  C   UNL     1       2.049   2.096  19.045  0.00  0.00    +0.000 C 
ENDBRANCH  16  17
ENDBRANCH  14  16
ENDBRANCH  13  14
ENDBRANCH   1  13
TORSDOF 11
ENDMDL
MODEL 6
REMARK VINA RESULT:      -5.8      1.127      6.342
REMARK  Name = 
REMARK  15 active torsions:
REMARK  status: ('A' for Active; 'I' for Inactive)
REMARK    1  A    between atoms: C_1  and  C_2
REMARK    2  A    between atoms: C_2  and  C_3
REMARK    3  A    between atoms: C_2  and  C_4
REMARK    4  A    between atoms: C_4  and  C_5
REMARK    5  A    between atoms: C_5  and  O_7
REMARK    6  A    between atoms: O_7  and  C_8
REMARK    7  A    between atoms: C_8  and  C_9
REMARK    8  A    between atoms: C_9  and  C_10
REMARK    9  A    between atoms: C_9  and  O_12
REMARK   10  A    between atoms: C_10  and  O_11
REMARK   11  A    between atoms: O_12  and  C_13
REMARK   12  A    between atoms: C_13  and  C_15
REMARK   13  A    between atoms: C_15  and  C_16
REMARK   14  A    between atoms: C_16  and  C_17
REMARK   15  A    between atoms: C_16  and  C_18
REMARK                            x       y       z     vdW  Elec       q    Type
REMARK                         _______ _______ _______ _____ _____    ______ ____
ROOT
ATOM      1  C   UNL     1       5.887   5.371  17.567  0.00  0.00    +0.000 C 
ENDROOT
BRANCH   1   2
ATOM      2  C   UNL     1       5.790   4.485  16.317  0.00  0.00    +0.000 C 
BRANCH   2   3
ATOM      3  O   UNL     1       7.023   4.476  15.571  0.00  0.00    +0.000 OA
BRANCH   3   4
ATOM      4  C   UNL     1       6.888   4.666  14.227  0.00  0.00    +0.000 C 
ATOM      5  O   UNL     1       7.541   5.460  13.565  0.00  0.00    +0.000 OA
BRANCH   4   6
ATOM      6  C   UNL     1       5.849   3.735  13.647  0.00  0.00    +0.000 C 
BRANCH   6   8
ATOM      7  C   UNL     1       6.964   2.764  11.588  0.00  0.00    +0.000 C 
ATOM      8  C   UNL     1       5.893   3.724  12.112  0.00  0.00    +0.000 C 
ATOM      9  C   UNL     1       4.529   3.340  11.537  0.00  0.00    +0.000 C 
ENDBRANCH   6   8
ENDBRANCH   4   6
ENDBRANCH   3   4
ENDBRANCH   2   3
ENDBRANCH   1   2
BRANCH   1  10
ATOM     10  C   UNL     1       7.324   5.439  18.117  0.00  0.00    +0.000 C 
BRANCH  10  11
ATOM     11  O   UNL     1       7.953   4.157  18.124  0.00  0.00    +0.000 OA
ATOM     12  H   UNL     1       8.056   3.882  19.051  0.00  0.00    +0.000 HD
ENDBRANCH  10  11
ENDBRANCH   1  10
BRANCH   1  13
ATOM     13  O   UNL     1       4.988   4.844  18.570  0.00  0.00    +0.000 OA
BRANCH  13  14
ATOM     14  C   UNL     1       3.709   5.301  18.487  0.00  0.00    +0.000 C 
ATOM     15  O   UNL     1       3.347   6.263  17.820  0.00  0.00    +0.000 OA
BRANCH  14  16
ATOM     16  C   UNL     1       2.768   4.476  19.329  0.00  0.00    +0.000 C 
BRANCH  16  17
ATOM     17  C   UNL     1       1.834   3.595  18.490  0.00  0.00    +0.000 C 
ATOM     18  C   UNL     1       2.613   2.596  17.632  0.00  0.00    +0.000 C 
ATOM     19  C   UNL     1       0.864   2.844  19.405  0.00  0.00    +0.000 C 
ENDBRANCH  16  17
ENDBRANCH  14  16
ENDBRANCH  13  14
ENDBRANCH   1  13
TORSDOF 11
ENDMDL
MODEL 7
REMARK VINA RESULT:      -5.8      3.003      4.152
REMARK  Name = 
REMARK  15 active torsions:
REMARK  status: ('A' for Active; 'I' for Inactive)
REMARK    1  A    between atoms: C_1  and  C_2
REMARK    2  A    between atoms: C_2  and  C_3
REMARK    3  A    between atoms: C_2  and  C_4
REMARK    4  A    between atoms: C_4  and  C_5
REMARK    5  A    between atoms: C_5  and  O_7
REMARK    6  A    between atoms: O_7  and  C_8
REMARK    7  A    between atoms: C_8  and  C_9
REMARK    8  A    between atoms: C_9  and  C_10
REMARK    9  A    between atoms: C_9  and  O_12
REMARK   10  A    between atoms: C_10  and  O_11
REMARK   11  A    between atoms: O_12  and  C_13
REMARK   12  A    between atoms: C_13  and  C_15
REMARK   13  A    between atoms: C_15  and  C_16
REMARK   14  A    between atoms: C_16  and  C_17
REMARK   15  A    between atoms: C_16  and  C_18
REMARK                            x       y       z     vdW  Elec       q    Type
REMARK                         _______ _______ _______ _____ _____    ______ ____
ROOT
ATOM      1  C   UNL     1       4.602   3.129  18.626  0.00  0.00    +0.000 C 
ENDROOT
BRANCH   1   2
ATOM      2  C   UNL     1       3.389   3.252  17.694  0.00  0.00    +0.000 C 
BRANCH   2   3
ATOM      3  O   UNL     1       2.389   2.255  17.984  0.00  0.00    +0.000 OA
BRANCH   3   4
ATOM      4  C   UNL     1       1.228   2.736  18.513  0.00  0.00    +0.000 C 
ATOM      5  O   UNL     1       0.228   2.066  18.728  0.00  0.00    +0.000 OA
BRANCH   4   6
ATOM      6  C   UNL     1       1.347   4.206  18.842  0.00  0.00    +0.000 C 
BRANCH   6   8
ATOM      7  C   UNL     1       1.703   3.363  21.206  0.00  0.00    +0.000 C 
ATOM      8  C   UNL     1       1.109   4.473  20.335  0.00  0.00    +0.000 C 
ATOM      9  C   UNL     1       1.702   5.822  20.743  0.00  0.00    +0.000 C 
ENDBRANCH   6   8
ENDBRANCH   4   6
ENDBRANCH   3   4
ENDBRANCH   2   3
ENDBRANCH   1   2
BRANCH   1  10
ATOM     10  C   UNL     1       4.526   1.871  19.510  0.00  0.00    +0.000 C 
BRANCH  10  11
ATOM     11  O   UNL     1       4.460   0.675  18.733  0.00  0.00    +0.000 OA
ATOM     12  H   UNL     1       4.531  -0.079  19.343  0.00  0.00    +0.000 HD
ENDBRANCH  10  11
ENDBRANCH   1  10
BRANCH   1  13
ATOM     13  O   UNL     1       4.669   4.319  19.446  0.00  0.00    +0.000 OA
BRANCH  13  14
ATOM     14  C   UNL     1       5.773   5.088  19.247  0.00  0.00    +0.000 C 
ATOM     15  O   UNL     1       6.738   5.143  20.001  0.00  0.00    +0.000 OA
BRANCH  14  16
ATOM     16  C   UNL     1       5.673   5.885  17.971  0.00  0.00    +0.000 C 
BRANCH  16  17
ATOM     17  C   UNL     1       7.012   5.997  17.230  0.00  0.00    +0.000 C 
ATOM     18  C   UNL     1       6.887   5.579  15.763  0.00  0.00    +0.000 C 
ATOM     19  C   UNL     1       7.539   7.431  17.315  0.00  0.00    +0.000 C 
ENDBRANCH  16  17
ENDBRANCH  14  16
ENDBRANCH  13  14
ENDBRANCH   1  13
TORSDOF 11
ENDMDL
MODEL 8
REMARK VINA RESULT:      -5.8      1.335      1.714
REMARK  Name = 
REMARK  15 active torsions:
REMARK  status: ('A' for Active; 'I' for Inactive)
REMARK    1  A    between atoms: C_1  and  C_2
REMARK    2  A    between atoms: C_2  and  C_3
REMARK    3  A    between atoms: C_2  and  C_4
REMARK    4  A    between atoms: C_4  and  C_5
REMARK    5  A    between atoms: C_5  and  O_7
REMARK    6  A    between atoms: O_7  and  C_8
REMARK    7  A    between atoms: C_8  and  C_9
REMARK    8  A    between atoms: C_9  and  C_10
REMARK    9  A    between atoms: C_9  and  O_12
REMARK   10  A    between atoms: C_10  and  O_11
REMARK   11  A    between atoms: O_12  and  C_13
REMARK   12  A    between atoms: C_13  and  C_15
REMARK   13  A    between atoms: C_15  and  C_16
REMARK   14  A    between atoms: C_16  and  C_17
REMARK   15  A    between atoms: C_16  and  C_18
REMARK                            x       y       z     vdW  Elec       q    Type
REMARK                         _______ _______ _______ _____ _____    ______ ____
ROOT
ATOM      1  C   UNL     1       5.254   5.423  16.779  0.00  0.00    +0.000 C 
ENDROOT
BRANCH   1   2
ATOM      2  C   UNL     1       3.947   4.797  17.285  0.00  0.00    +0.000 C 
BRANCH   2   3
ATOM      3  O   UNL     1       3.882   4.786  18.725  0.00  0.00    +0.000 OA
BRANCH   3   4
ATOM      4  C   UNL     1       4.378   3.663  19.319  0.00  0.00    +0.000 C 
ATOM      5  O   UNL     1       5.552   3.487  19.610  0.00  0.00    +0.000 OA
BRANCH   4   6
ATOM      6  C   UNL     1       3.277   2.670  19.612  0.00  0.00    +0.000 C 
BRANCH   6   8
ATOM      7  C   UNL     1       0.755   2.894  19.486  0.00  0.00    +0.000 C 
ATOM      8  C   UNL     1       2.032   3.361  20.188  0.00  0.00    +0.000 C 
ATOM      9  C   UNL     1       1.919   3.101  21.691  0.00  0.00    +0.000 C 
ENDBRANCH   6   8
ENDBRANCH   4   6
ENDBRANCH   3   4
ENDBRANCH   2   3
ENDBRANCH   1   2
BRANCH   1  10
ATOM     10  C   UNL     1       5.385   6.900  17.193  0.00  0.00    +0.000 C 
BRANCH  10  11
ATOM     11  O   UNL     1       6.716   7.388  17.019  0.00  0.00    +0.000 OA
ATOM     12  H   UNL     1       7.326   6.650  17.190  0.00  0.00    +0.000 HD
ENDBRANCH  10  11
ENDBRANCH   1  10
BRANCH   1  13
ATOM     13  O   UNL     1       5.290   5.299  15.338  0.00  0.00    +0.000 OA
BRANCH  13  14
ATOM     14  C   UNL     1       6.440   4.771  14.839  0.00  0.00    +0.000 C 
ATOM     15  O   UNL     1       7.565   5.212  15.045  0.00  0.00    +0.000 OA
BRANCH  14  16
ATOM     16  C   UNL     1       6.170   3.560  13.981  0.00  0.00    +0.000 C 
BRANCH  16  17
ATOM     17  C   UNL     1       5.973   3.910  12.500  0.00  0.00    +0.000 C 
ATOM     18  C   UNL     1       7.309   4.105  11.780  0.00  0.00    +0.000 C 
ATOM     19  C   UNL     1       5.169   2.809  11.806  0.00  0.00    +0.000 C 
ENDBRANCH  16  17
ENDBRANCH  14  16
ENDBRANCH  13  14
ENDBRANCH   1  13
TORSDOF 11
ENDMDL
MODEL 9
REMARK VINA RESULT:      -5.7      1.689      2.157
REMARK  Name = 
REMARK  15 active torsions:
REMARK  status: ('A' for Active; 'I' for Inactive)
REMARK    1  A    between atoms: C_1  and  C_2
REMARK    2  A    between atoms: C_2  and  C_3
REMARK    3  A    between atoms: C_2  and  C_4
REMARK    4  A    between atoms: C_4  and  C_5
REMARK    5  A    between atoms: C_5  and  O_7
REMARK    6  A    between atoms: O_7  and  C_8
REMARK    7  A    between atoms: C_8  and  C_9
REMARK    8  A    between atoms: C_9  and  C_10
REMARK    9  A    between atoms: C_9  and  O_12
REMARK   10  A    between atoms: C_10  and  O_11
REMARK   11  A    between atoms: O_12  and  C_13
REMARK   12  A    between atoms: C_13  and  C_15
REMARK   13  A    between atoms: C_15  and  C_16
REMARK   14  A    between atoms: C_16  and  C_17
REMARK   15  A    between atoms: C_16  and  C_18
REMARK                            x       y       z     vdW  Elec       q    Type
REMARK                         _______ _______ _______ _____ _____    ______ ____
ROOT
ATOM      1  C   UNL     1       6.714   6.228  17.389  0.00  0.00    +0.000 C 
ENDROOT
BRANCH   1   2
ATOM      2  C   UNL     1       5.390   6.221  18.166  0.00  0.00    +0.000 C 
BRANCH   2   3
ATOM      3  O   UNL     1       5.467   5.395  19.344  0.00  0.00    +0.000 OA
BRANCH   3   4
ATOM      4  C   UNL     1       4.654   4.299  19.337  0.00  0.00    +0.000 C 
ATOM      5  O   UNL     1       5.023   3.154  19.557  0.00  0.00    +0.000 OA
BRANCH   4   6
ATOM      6  C   UNL     1       3.220   4.687  19.061  0.00  0.00    +0.000 C 
BRANCH   6   8
ATOM      7  C   UNL     1       1.819   6.247  20.485  0.00  0.00    +0.000 C 
ATOM      8  C   UNL     1       2.417   4.844  20.360  0.00  0.00    +0.000 C 
ATOM      9  C   UNL     1       1.301   3.800  20.434  0.00  0.00    +0.000 C 
ENDBRANCH   6   8
ENDBRANCH   4   6
ENDBRANCH   3   4
ENDBRANCH   2   3
ENDBRANCH   1   2
BRANCH   1  10
ATOM     10  C   UNL     1       7.537   7.501  17.662  0.00  0.00    +0.000 C 
BRANCH  10  11
ATOM     11  O   UNL     1       8.419   7.338  18.773  0.00  0.00    +0.000 OA
ATOM     12  H   UNL     1       8.501   8.200  19.215  0.00  0.00    +0.000 HD
ENDBRANCH  10  11
ENDBRANCH   1  10
BRANCH   1  13
ATOM     13  O   UNL     1       6.414   6.115  15.978  0.00  0.00    +0.000 OA
BRANCH  13  14
ATOM     14  C   UNL     1       6.801   4.943  15.405  0.00  0.00    +0.000 C 
ATOM     15  O   UNL     1       7.767   4.274  15.752  0.00  0.00    +0.000 OA
BRANCH  14  16
ATOM     16  C   UNL     1       5.890   4.554  14.267  0.00  0.00    +0.000 C 
BRANCH  16  17
ATOM     17  C   UNL     1       6.639   3.891  13.103  0.00  0.00    +0.000 C 
ATOM     18  C   UNL     1       5.682   3.192  12.136  0.00  0.00    +0.000 C 
ATOM     19  C   UNL     1       7.463   4.937  12.349  0.00  0.00    +0.000 C 
ENDBRANCH  16  17
ENDBRANCH  14  16
ENDBRANCH  13  14
ENDBRANCH   1  13
TORSDOF 11
ENDMDL
