MODEL 1
REMARK VINA RESULT:      -7.4      0.000      0.000
REMARK  Name = 
REMARK  3 active torsions:
REMARK  status: ('A' for Active; 'I' for Inactive)
REMARK    1  A    between atoms: C_1  and  N_2
REMARK    2  A    between atoms: C_5  and  N_6
REMARK    3  A    between atoms: C_11  and  C_12
REMARK                            x       y       z     vdW  Elec       q    Type
REMARK                         _______ _______ _______ _____ _____    ______ ____
ROOT
ATOM      1  N   UNL     1       0.329  11.475  18.770  0.00  0.00    +0.000 N 
ATOM      2  C   UNL     1       0.898  12.738  19.010  0.00  0.00    +0.000 C 
ATOM      3  O   UNL     1       2.081  12.895  19.326  0.00  0.00    +0.000 OA
ATOM      4  C   UNL     1      -0.015  13.941  18.822  0.00  0.00    +0.000 C 
ATOM      5  N   UNL     1      -0.912  14.031  19.973  0.00  0.00    +0.000 NA
ATOM      6  C   UNL     1      -1.834  13.135  20.102  0.00  0.00    +0.000 C 
ATOM      7  C   UNL     1      -2.099  12.052  19.103  0.00  0.00    +0.000 A 
ATOM      8  C   UNL     1      -3.458  11.769  18.821  0.00  0.00    +0.000 A 
ATOM      9  C   UNL     1      -3.815  10.726  17.978  0.00  0.00    +0.000 A 
ATOM     10  C   UNL     1      -2.815  10.031  17.333  0.00  0.00    +0.000 A 
ATOM     11  F   UNL     1      -3.137   9.055  16.473  0.00  0.00    +0.000 F 
ATOM     12  C   UNL     1      -1.475  10.326  17.559  0.00  0.00    +0.000 A 
ATOM     13  C   UNL     1      -1.072  11.302  18.483  0.00  0.00    +0.000 A 
ENDROOT
BRANCH   1  18
ATOM     14  C   UNL     1       2.615   6.257  19.535  0.00  0.00    +0.000 C 
ATOM     15  N   UNL     1       1.834   7.462  19.260  0.00  0.00    +0.000 NA
ATOM     16  C   UNL     1       1.610   8.239  20.485  0.00  0.00    +0.000 C 
ATOM     17  C   UNL     1       0.675   9.421  20.214  0.00  0.00    +0.000 C 
ATOM     18  C   UNL     1       1.189  10.286  19.051  0.00  0.00    +0.000 C 
ATOM     19  C   UNL     1       1.568   9.432  17.830  0.00  0.00    +0.000 C 
ATOM     20  C   UNL     1       2.491   8.282  18.233  0.00  0.00    +0.000 C 
ENDBRANCH   1  18
BRANCH   6  21
ATOM     21  C   UNL     1      -2.711  13.236  21.314  0.00  0.00    +0.000 A 
ATOM     22  C   UNL     1      -3.686  14.243  21.371  0.00  0.00    +0.000 A 
ATOM     23  C   UNL     1      -4.545  14.326  22.470  0.00  0.00    +0.000 A 
ATOM     24  C   UNL     1      -4.433  13.404  23.511  0.00  0.00    +0.000 A 
ATOM     25  C   UNL     1      -3.458  12.415  23.471  0.00  0.00    +0.000 A 
ATOM     26  C   UNL     1      -2.593  12.347  22.385  0.00  0.00    +0.000 A 
ATOM     27  F   UNL     1      -1.648  11.393  22.396  0.00  0.00    +0.000 F 
ENDBRANCH   6  21
TORSDOF 2
ENDMDL
MODEL 2
REMARK VINA RESULT:      -7.3      0.913      1.299
REMARK  Name = 
REMARK  3 active torsions:
REMARK  status: ('A' for Active; 'I' for Inactive)
REMARK    1  A    between atoms: C_1  and  N_2
REMARK    2  A    between atoms: C_5  and  N_6
REMARK    3  A    between atoms: C_11  and  C_12
REMARK                            x       y       z     vdW  Elec       q    Type
REMARK                         _______ _______ _______ _____ _____    ______ ____
ROOT
ATOM      1  N   UNL     1       0.303  11.504  18.807  0.00  0.00    +0.000 N 
ATOM      2  C   UNL     1       0.846  12.767  19.097  0.00  0.00    +0.000 C 
ATOM      3  O   UNL     1       2.023  12.934  19.431  0.00  0.00    +0.000 OA
ATOM      4  C   UNL     1      -0.087  13.960  18.941  0.00  0.00    +0.000 C 
ATOM      5  N   UNL     1      -0.996  13.993  20.085  0.00  0.00    +0.000 NA
ATOM      6  C   UNL     1      -1.903  13.077  20.174  0.00  0.00    +0.000 C 
ATOM      7  C   UNL     1      -2.139  12.025  19.135  0.00  0.00    +0.000 A 
ATOM      8  C   UNL     1      -3.489  11.728  18.829  0.00  0.00    +0.000 A 
ATOM      9  C   UNL     1      -3.818  10.708  17.947  0.00  0.00    +0.000 A 
ATOM     10  C   UNL     1      -2.800  10.055  17.288  0.00  0.00    +0.000 A 
ATOM     11  F   UNL     1      -3.095   9.104  16.391  0.00  0.00    +0.000 F 
ATOM     12  C   UNL     1      -1.468  10.365  17.538  0.00  0.00    +0.000 A 
ATOM     13  C   UNL     1      -1.092  11.315  18.499  0.00  0.00    +0.000 A 
ENDROOT
BRANCH   1  18
ATOM     14  C   UNL     1       2.676   6.303  19.415  0.00  0.00    +0.000 C 
ATOM     15  N   UNL     1       1.876   7.503  19.175  0.00  0.00    +0.000 NA
ATOM     16  C   UNL     1       1.628   8.235  20.423  0.00  0.00    +0.000 C 
ATOM     17  C   UNL     1       0.674   9.408  20.184  0.00  0.00    +0.000 C 
ATOM     18  C   UNL     1       1.182  10.321  19.056  0.00  0.00    +0.000 C 
ATOM     19  C   UNL     1       1.586   9.515  17.810  0.00  0.00    +0.000 C 
ATOM     20  C   UNL     1       2.526   8.369  18.181  0.00  0.00    +0.000 C 
ENDBRANCH   1  18
BRANCH   6  21
ATOM     21  C   UNL     1      -2.794  13.119  21.379  0.00  0.00    +0.000 A 
ATOM     22  C   UNL     1      -2.520  12.274  22.464  0.00  0.00    +0.000 A 
ATOM     23  C   UNL     1      -3.310  12.330  23.614  0.00  0.00    +0.000 A 
ATOM     24  C   UNL     1      -4.372  13.232  23.684  0.00  0.00    +0.000 A 
ATOM     25  C   UNL     1      -4.662  14.060  22.607  0.00  0.00    +0.000 A 
ATOM     26  C   UNL     1      -3.886  13.987  21.456  0.00  0.00    +0.000 A 
ATOM     27  F   UNL     1      -4.213  14.786  20.429  0.00  0.00    +0.000 F 
ENDBRANCH   6  21
TORSDOF 2
ENDMDL
MODEL 3
REMARK VINA RESULT:      -7.1      6.847      9.566
REMARK  Name = 
REMARK  3 active torsions:
REMARK  status: ('A' for Active; 'I' for Inactive)
REMARK    1  A    between atoms: C_1  and  N_2
REMARK    2  A    between atoms: C_5  and  N_6
REMARK    3  A    between atoms: C_11  and  C_12
REMARK                            x       y       z     vdW  Elec       q    Type
REMARK                         _______ _______ _______ _____ _____    ______ ____
ROOT
ATOM      1  N   UNL     1       5.782   5.651  17.164  0.00  0.00    +0.000 N 
ATOM      2  C   UNL     1       6.732   5.016  17.982  0.00  0.00    +0.000 C 
ATOM      3  O   UNL     1       7.682   4.367  17.533  0.00  0.00    +0.000 OA
ATOM      4  C   UNL     1       6.565   5.198  19.484  0.00  0.00    +0.000 C 
ATOM      5  N   UNL     1       5.473   4.339  19.939  0.00  0.00    +0.000 NA
ATOM      6  C   UNL     1       4.267   4.647  19.594  0.00  0.00    +0.000 C 
ATOM      7  C   UNL     1       3.902   5.878  18.823  0.00  0.00    +0.000 A 
ATOM      8  C   UNL     1       2.740   6.569  19.245  0.00  0.00    +0.000 A 
ATOM      9  C   UNL     1       2.264   7.669  18.546  0.00  0.00    +0.000 A 
ATOM     10  C   UNL     1       3.007   8.146  17.487  0.00  0.00    +0.000 A 
ATOM     11  F   UNL     1       2.596   9.240  16.831  0.00  0.00    +0.000 F 
ATOM     12  C   UNL     1       4.177   7.511  17.088  0.00  0.00    +0.000 A 
ATOM     13  C   UNL     1       4.634   6.336  17.702  0.00  0.00    +0.000 A 
ENDROOT
BRANCH   1  18
ATOM     14  C   UNL     1       6.793   3.644  11.873  0.00  0.00    +0.000 C 
ATOM     15  N   UNL     1       6.645   3.947  13.296  0.00  0.00    +0.000 NA
ATOM     16  C   UNL     1       7.367   5.173  13.655  0.00  0.00    +0.000 C 
ATOM     17  C   UNL     1       7.325   5.404  15.168  0.00  0.00    +0.000 C 
ATOM     18  C   UNL     1       5.881   5.393  15.695  0.00  0.00    +0.000 C 
ATOM     19  C   UNL     1       5.094   4.179  15.176  0.00  0.00    +0.000 C 
ATOM     20  C   UNL     1       5.225   4.050  13.659  0.00  0.00    +0.000 C 
ENDBRANCH   1  18
BRANCH   6  21
ATOM     21  C   UNL     1       3.175   3.724  20.046  0.00  0.00    +0.000 A 
ATOM     22  C   UNL     1       2.766   3.754  21.387  0.00  0.00    +0.000 A 
ATOM     23  C   UNL     1       1.719   2.935  21.819  0.00  0.00    +0.000 A 
ATOM     24  C   UNL     1       1.080   2.089  20.913  0.00  0.00    +0.000 A 
ATOM     25  C   UNL     1       1.492   2.039  19.587  0.00  0.00    +0.000 A 
ATOM     26  C   UNL     1       2.546   2.840  19.166  0.00  0.00    +0.000 A 
ATOM     27  F   UNL     1       2.931   2.746  17.883  0.00  0.00    +0.000 F 
ENDBRANCH   6  21
TORSDOF 2
ENDMDL
MODEL 4
REMARK VINA RESULT:      -6.8      2.189      6.684
REMARK  Name = 
REMARK  3 active torsions:
REMARK  status: ('A' for Active; 'I' for Inactive)
REMARK    1  A    between atoms: C_1  and  N_2
REMARK    2  A    between atoms: C_5  and  N_6
REMARK    3  A    between atoms: C_11  and  C_12
REMARK                            x       y       z     vdW  Elec       q    Type
REMARK                         _______ _______ _______ _____ _____    ______ ____
ROOT
ATOM      1  N   UNL     1      -1.925  12.641  19.644  0.00  0.00    +0.000 N 
ATOM      2  C   UNL     1      -2.681  11.883  18.732  0.00  0.00    +0.000 C 
ATOM      3  O   UNL     1      -3.870  11.603  18.912  0.00  0.00    +0.000 OA
ATOM      4  C   UNL     1      -1.970  11.444  17.460  0.00  0.00    +0.000 C 
ATOM      5  N   UNL     1      -1.083  10.328  17.784  0.00  0.00    +0.000 NA
ATOM      6  C   UNL     1      -0.031  10.568  18.494  0.00  0.00    +0.000 C 
ATOM      7  C   UNL     1       0.387  11.933  18.942  0.00  0.00    +0.000 A 
ATOM      8  C   UNL     1       1.769  12.231  18.862  0.00  0.00    +0.000 A 
ATOM      9  C   UNL     1       2.273  13.435  19.334  0.00  0.00    +0.000 A 
ATOM     10  C   UNL     1       1.386  14.386  19.788  0.00  0.00    +0.000 A 
ATOM     11  F   UNL     1       1.845  15.577  20.198  0.00  0.00    +0.000 F 
ATOM     12  C   UNL     1       0.020  14.132  19.829  0.00  0.00    +0.000 A 
ATOM     13  C   UNL     1      -0.518  12.890  19.460  0.00  0.00    +0.000 A 
ENDROOT
BRANCH   1  18
ATOM     14  C   UNL     1      -3.376  14.540  24.872  0.00  0.00    +0.000 C 
ATOM     15  N   UNL     1      -2.796  14.181  23.579  0.00  0.00    +0.000 NA
ATOM     16  C   UNL     1      -2.625  12.728  23.459  0.00  0.00    +0.000 C 
ATOM     17  C   UNL     1      -1.889  12.373  22.164  0.00  0.00    +0.000 C 
ATOM     18  C   UNL     1      -2.585  12.988  20.938  0.00  0.00    +0.000 C 
ATOM     19  C   UNL     1      -2.898  14.479  21.150  0.00  0.00    +0.000 C 
ATOM     20  C   UNL     1      -3.619  14.703  22.479  0.00  0.00    +0.000 C 
ENDBRANCH   1  18
BRANCH   6  21
ATOM     21  C   UNL     1       0.836   9.394  18.839  0.00  0.00    +0.000 A 
ATOM     22  C   UNL     1       1.600   8.788  17.830  0.00  0.00    +0.000 A 
ATOM     23  C   UNL     1       2.450   7.722  18.139  0.00  0.00    +0.000 A 
ATOM     24  C   UNL     1       2.539   7.263  19.453  0.00  0.00    +0.000 A 
ATOM     25  C   UNL     1       1.773   7.846  20.454  0.00  0.00    +0.000 A 
ATOM     26  C   UNL     1       0.914   8.892  20.140  0.00  0.00    +0.000 A 
ATOM     27  F   UNL     1       0.171   9.412  21.131  0.00  0.00    +0.000 F 
ENDBRANCH   6  21
TORSDOF 2
ENDMDL
MODEL 5
REMARK VINA RESULT:      -6.7      2.533      6.291
REMARK  Name = 
REMARK  3 active torsions:
REMARK  status: ('A' for Active; 'I' for Inactive)
REMARK    1  A    between atoms: C_1  and  N_2
REMARK    2  A    between atoms: C_5  and  N_6
REMARK    3  A    between atoms: C_11  and  C_12
REMARK                            x       y       z     vdW  Elec       q    Type
REMARK                         _______ _______ _______ _____ _____    ______ ____
ROOT
ATOM      1  N   UNL     1      -0.463  12.882  20.030  0.00  0.00    +0.000 N 
ATOM      2  C   UNL     1       0.040  12.652  21.322  0.00  0.00    +0.000 C 
ATOM      3  O   UNL     1       0.674  13.498  21.959  0.00  0.00    +0.000 OA
ATOM      4  C   UNL     1      -0.271  11.296  21.940  0.00  0.00    +0.000 C 
ATOM      5  N   UNL     1       0.601  10.294  21.329  0.00  0.00    +0.000 NA
ATOM      6  C   UNL     1       0.393   9.972  20.096  0.00  0.00    +0.000 C 
ATOM      7  C   UNL     1      -0.739  10.498  19.269  0.00  0.00    +0.000 A 
ATOM      8  C   UNL     1      -1.401   9.565  18.433  0.00  0.00    +0.000 A 
ATOM      9  C   UNL     1      -2.403   9.966  17.562  0.00  0.00    +0.000 A 
ATOM     10  C   UNL     1      -2.820  11.279  17.600  0.00  0.00    +0.000 A 
ATOM     11  F   UNL     1      -3.825  11.677  16.807  0.00  0.00    +0.000 F 
ATOM     12  C   UNL     1      -2.217  12.199  18.449  0.00  0.00    +0.000 A 
ATOM     13  C   UNL     1      -1.131  11.858  19.267  0.00  0.00    +0.000 A 
ENDROOT
BRANCH   1  18
ATOM     14  C   UNL     1       1.358  18.165  18.680  0.00  0.00    +0.000 C 
ATOM     15  N   UNL     1       0.974  16.874  19.251  0.00  0.00    +0.000 NA
ATOM     16  C   UNL     1      -0.476  16.663  19.158  0.00  0.00    +0.000 C 
ATOM     17  C   UNL     1      -0.884  15.378  19.883  0.00  0.00    +0.000 C 
ATOM     18  C   UNL     1      -0.077  14.170  19.378  0.00  0.00    +0.000 C 
ATOM     19  C   UNL     1       1.431  14.470  19.334  0.00  0.00    +0.000 C 
ATOM     20  C   UNL     1       1.706  15.781  18.598  0.00  0.00    +0.000 C 
ENDBRANCH   1  18
BRANCH   6  21
ATOM     21  C   UNL     1       1.329   8.969  19.490  0.00  0.00    +0.000 A 
ATOM     22  C   UNL     1       1.588   7.773  20.175  0.00  0.00    +0.000 A 
ATOM     23  C   UNL     1       2.421   6.806  19.607  0.00  0.00    +0.000 A 
ATOM     24  C   UNL     1       2.994   7.030  18.355  0.00  0.00    +0.000 A 
ATOM     25  C   UNL     1       2.756   8.220  17.677  0.00  0.00    +0.000 A 
ATOM     26  C   UNL     1       1.944   9.188  18.254  0.00  0.00    +0.000 A 
ATOM     27  F   UNL     1       1.759  10.334  17.580  0.00  0.00    +0.000 F 
ENDBRANCH   6  21
TORSDOF 2
ENDMDL
MODEL 6
REMARK VINA RESULT:      -6.7      2.392      6.331
REMARK  Name = 
REMARK  3 active torsions:
REMARK  status: ('A' for Active; 'I' for Inactive)
REMARK    1  A    between atoms: C_1  and  N_2
REMARK    2  A    between atoms: C_5  and  N_6
REMARK    3  A    between atoms: C_11  and  C_12
REMARK                            x       y       z     vdW  Elec       q    Type
REMARK                         _______ _______ _______ _____ _____    ______ ____
ROOT
ATOM      1  N   UNL     1      -0.862  12.727  20.709  0.00  0.00    +0.000 N 
ATOM      2  C   UNL     1      -0.417  12.306  21.974  0.00  0.00    +0.000 C 
ATOM      3  O   UNL     1       0.142  13.060  22.776  0.00  0.00    +0.000 OA
ATOM      4  C   UNL     1      -0.694  10.855  22.344  0.00  0.00    +0.000 C 
ATOM      5  N   UNL     1       0.257  10.004  21.631  0.00  0.00    +0.000 NA
ATOM      6  C   UNL     1       0.130   9.881  20.351  0.00  0.00    +0.000 C 
ATOM      7  C   UNL     1      -0.981  10.491  19.555  0.00  0.00    +0.000 A 
ATOM      8  C   UNL     1      -1.552   9.684  18.541  0.00  0.00    +0.000 A 
ATOM      9  C   UNL     1      -2.526  10.184  17.688  0.00  0.00    +0.000 A 
ATOM     10  C   UNL     1      -3.007  11.455  17.913  0.00  0.00    +0.000 A 
ATOM     11  F   UNL     1      -3.986  11.939  17.137  0.00  0.00    +0.000 F 
ATOM     12  C   UNL     1      -2.494  12.246  18.935  0.00  0.00    +0.000 A 
ATOM     13  C   UNL     1      -1.437  11.817  19.751  0.00  0.00    +0.000 A 
ENDROOT
BRANCH   1  18
ATOM     14  C   UNL     1      -0.180  17.817  18.127  0.00  0.00    +0.000 C 
ATOM     15  N   UNL     1      -0.505  16.471  18.596  0.00  0.00    +0.000 NA
ATOM     16  C   UNL     1       0.692  15.624  18.648  0.00  0.00    +0.000 C 
ATOM     17  C   UNL     1       0.321  14.181  19.002  0.00  0.00    +0.000 C 
ATOM     18  C   UNL     1      -0.504  14.118  20.299  0.00  0.00    +0.000 C 
ATOM     19  C   UNL     1      -1.662  15.130  20.286  0.00  0.00    +0.000 C 
ATOM     20  C   UNL     1      -1.166  16.525  19.907  0.00  0.00    +0.000 C 
ENDBRANCH   1  18
BRANCH   6  21
ATOM     21  C   UNL     1       1.144   9.029  19.648  0.00  0.00    +0.000 A 
ATOM     22  C   UNL     1       1.505   7.794  20.205  0.00  0.00    +0.000 A 
ATOM     23  C   UNL     1       2.413   6.964  19.542  0.00  0.00    +0.000 A 
ATOM     24  C   UNL     1       2.960   7.367  18.324  0.00  0.00    +0.000 A 
ATOM     25  C   UNL     1       2.622   8.597  17.774  0.00  0.00    +0.000 A 
ATOM     26  C   UNL     1       1.734   9.428  18.446  0.00  0.00    +0.000 A 
ATOM     27  F   UNL     1       1.452  10.619  17.895  0.00  0.00    +0.000 F 
ENDBRANCH   6  21
TORSDOF 2
ENDMDL
MODEL 7
REMARK VINA RESULT:      -6.7      2.239      6.678
REMARK  Name = 
REMARK  3 active torsions:
REMARK  status: ('A' for Active; 'I' for Inactive)
REMARK    1  A    between atoms: C_1  and  N_2
REMARK    2  A    between atoms: C_5  and  N_6
REMARK    3  A    between atoms: C_11  and  C_12
REMARK                            x       y       z     vdW  Elec       q    Type
REMARK                         _______ _______ _______ _____ _____    ______ ____
ROOT
ATOM      1  N   UNL     1      -1.899  12.639  19.769  0.00  0.00    +0.000 N 
ATOM      2  C   UNL     1      -2.654  11.924  18.822  0.00  0.00    +0.000 C 
ATOM      3  O   UNL     1      -3.840  11.628  18.992  0.00  0.00    +0.000 OA
ATOM      4  C   UNL     1      -1.945  11.554  17.527  0.00  0.00    +0.000 C 
ATOM      5  N   UNL     1      -1.050  10.429  17.791  0.00  0.00    +0.000 NA
ATOM      6  C   UNL     1       0.003  10.638  18.509  0.00  0.00    +0.000 C 
ATOM      7  C   UNL     1       0.415  11.982  19.023  0.00  0.00    +0.000 A 
ATOM      8  C   UNL     1       1.796  12.292  18.954  0.00  0.00    +0.000 A 
ATOM      9  C   UNL     1       2.294  13.473  19.485  0.00  0.00    +0.000 A 
ATOM     10  C   UNL     1       1.403  14.395  19.990  0.00  0.00    +0.000 A 
ATOM     11  F   UNL     1       1.856  15.566  20.458  0.00  0.00    +0.000 F 
ATOM     12  C   UNL     1       0.039  14.130  20.022  0.00  0.00    +0.000 A 
ATOM     13  C   UNL     1      -0.494  12.906  19.593  0.00  0.00    +0.000 A 
ENDROOT
BRANCH   1  18
ATOM     14  C   UNL     1      -5.078  12.673  24.558  0.00  0.00    +0.000 C 
ATOM     15  N   UNL     1      -4.383  12.451  23.291  0.00  0.00    +0.000 NA
ATOM     16  C   UNL     1      -4.677  13.520  22.329  0.00  0.00    +0.000 C 
ATOM     17  C   UNL     1      -4.061  13.206  20.963  0.00  0.00    +0.000 C 
ATOM     18  C   UNL     1      -2.556  12.917  21.081  0.00  0.00    +0.000 C 
ATOM     19  C   UNL     1      -2.256  11.910  22.205  0.00  0.00    +0.000 C 
ATOM     20  C   UNL     1      -2.935  12.327  23.509  0.00  0.00    +0.000 C 
ENDBRANCH   1  18
BRANCH   6  21
ATOM     21  C   UNL     1       0.879   9.454  18.790  0.00  0.00    +0.000 A 
ATOM     22  C   UNL     1       1.650   8.911  17.752  0.00  0.00    +0.000 A 
ATOM     23  C   UNL     1       2.507   7.836  18.003  0.00  0.00    +0.000 A 
ATOM     24  C   UNL     1       2.596   7.305  19.290  0.00  0.00    +0.000 A 
ATOM     25  C   UNL     1       1.822   7.825  20.320  0.00  0.00    +0.000 A 
ATOM     26  C   UNL     1       0.956   8.881  20.062  0.00  0.00    +0.000 A 
ATOM     27  F   UNL     1       0.207   9.339  21.077  0.00  0.00    +0.000 F 
ENDBRANCH   6  21
TORSDOF 2
ENDMDL
MODEL 8
REMARK VINA RESULT:      -6.7      2.455      6.218
REMARK  Name = 
REMARK  3 active torsions:
REMARK  status: ('A' for Active; 'I' for Inactive)
REMARK    1  A    between atoms: C_1  and  N_2
REMARK    2  A    between atoms: C_5  and  N_6
REMARK    3  A    between atoms: C_11  and  C_12
REMARK                            x       y       z     vdW  Elec       q    Type
REMARK                         _______ _______ _______ _____ _____    ______ ____
ROOT
ATOM      1  N   UNL     1      -0.456  12.891  20.002  0.00  0.00    +0.000 N 
ATOM      2  C   UNL     1       0.073  12.652  21.282  0.00  0.00    +0.000 C 
ATOM      3  O   UNL     1       0.723  13.493  21.910  0.00  0.00    +0.000 OA
ATOM      4  C   UNL     1      -0.228  11.293  21.898  0.00  0.00    +0.000 C 
ATOM      5  N   UNL     1       0.628  10.293  21.263  0.00  0.00    +0.000 NA
ATOM      6  C   UNL     1       0.394   9.978  20.032  0.00  0.00    +0.000 C 
ATOM      7  C   UNL     1      -0.754  10.511  19.233  0.00  0.00    +0.000 A 
ATOM      8  C   UNL     1      -1.435   9.585  18.406  0.00  0.00    +0.000 A 
ATOM      9  C   UNL     1      -2.455   9.994  17.558  0.00  0.00    +0.000 A 
ATOM     10  C   UNL     1      -2.868  11.307  17.612  0.00  0.00    +0.000 A 
ATOM     11  F   UNL     1      -3.887  11.713  16.842  0.00  0.00    +0.000 F 
ATOM     12  C   UNL     1      -2.244  12.222  18.453  0.00  0.00    +0.000 A 
ATOM     13  C   UNL     1      -1.142  11.873  19.247  0.00  0.00    +0.000 A 
ENDROOT
BRANCH   1  18
ATOM     14  C   UNL     1       1.328  18.185  18.648  0.00  0.00    +0.000 C 
ATOM     15  N   UNL     1       0.954  16.892  19.220  0.00  0.00    +0.000 NA
ATOM     16  C   UNL     1      -0.495  16.672  19.133  0.00  0.00    +0.000 C 
ATOM     17  C   UNL     1      -0.892  15.384  19.859  0.00  0.00    +0.000 C 
ATOM     18  C   UNL     1      -0.080  14.181  19.349  0.00  0.00    +0.000 C 
ATOM     19  C   UNL     1       1.425  14.491  19.299  0.00  0.00    +0.000 C 
ATOM     20  C   UNL     1       1.689  15.804  18.562  0.00  0.00    +0.000 C 
ENDBRANCH   1  18
BRANCH   6  21
ATOM     21  C   UNL     1       1.315   8.977  19.402  0.00  0.00    +0.000 A 
ATOM     22  C   UNL     1       1.867   9.253  18.142  0.00  0.00    +0.000 A 
ATOM     23  C   UNL     1       2.763   8.354  17.557  0.00  0.00    +0.000 A 
ATOM     24  C   UNL     1       3.110   7.182  18.229  0.00  0.00    +0.000 A 
ATOM     25  C   UNL     1       2.554   6.893  19.469  0.00  0.00    +0.000 A 
ATOM     26  C   UNL     1       1.648   7.779  20.039  0.00  0.00    +0.000 A 
ATOM     27  F   UNL     1       1.113   7.451  21.226  0.00  0.00    +0.000 F 
ENDBRANCH   6  21
TORSDOF 2
ENDMDL
MODEL 9
REMARK VINA RESULT:      -6.6      2.352      6.279
REMARK  Name = 
REMARK  3 active torsions:
REMARK  status: ('A' for Active; 'I' for Inactive)
REMARK    1  A    between atoms: C_1  and  N_2
REMARK    2  A    between atoms: C_5  and  N_6
REMARK    3  A    between atoms: C_11  and  C_12
REMARK                            x       y       z     vdW  Elec       q    Type
REMARK                         _______ _______ _______ _____ _____    ______ ____
ROOT
ATOM      1  N   UNL     1      -0.869  12.705  20.694  0.00  0.00    +0.000 N 
ATOM      2  C   UNL     1      -0.394  12.262  21.941  0.00  0.00    +0.000 C 
ATOM      3  O   UNL     1       0.180  13.002  22.744  0.00  0.00    +0.000 OA
ATOM      4  C   UNL     1      -0.659  10.804  22.289  0.00  0.00    +0.000 C 
ATOM      5  N   UNL     1       0.277   9.968  21.539  0.00  0.00    +0.000 NA
ATOM      6  C   UNL     1       0.122   9.869  20.261  0.00  0.00    +0.000 C 
ATOM      7  C   UNL     1      -1.009  10.491  19.501  0.00  0.00    +0.000 A 
ATOM      8  C   UNL     1      -1.600   9.701  18.485  0.00  0.00    +0.000 A 
ATOM      9  C   UNL     1      -2.594  10.214  17.664  0.00  0.00    +0.000 A 
ATOM     10  C   UNL     1      -3.074  11.480  17.924  0.00  0.00    +0.000 A 
ATOM     11  F   UNL     1      -4.071  11.975  17.179  0.00  0.00    +0.000 F 
ATOM     12  C   UNL     1      -2.540  12.253  18.949  0.00  0.00    +0.000 A 
ATOM     13  C   UNL     1      -1.464  11.811  19.732  0.00  0.00    +0.000 A 
ENDROOT
BRANCH   1  18
ATOM     14  C   UNL     1      -0.276  17.852  18.204  0.00  0.00    +0.000 C 
ATOM     15  N   UNL     1      -0.586  16.496  18.654  0.00  0.00    +0.000 NA
ATOM     16  C   UNL     1       0.611  15.646  18.640  0.00  0.00    +0.000 C 
ATOM     17  C   UNL     1       0.250  14.196  18.976  0.00  0.00    +0.000 C 
ATOM     18  C   UNL     1      -0.524  14.105  20.302  0.00  0.00    +0.000 C 
ATOM     19  C   UNL     1      -1.679  15.118  20.358  0.00  0.00    +0.000 C 
ATOM     20  C   UNL     1      -1.195  16.520  19.991  0.00  0.00    +0.000 C 
ENDBRANCH   1  18
BRANCH   6  21
ATOM     21  C   UNL     1       1.122   9.034  19.519  0.00  0.00    +0.000 A 
ATOM     22  C   UNL     1       1.615   9.489  18.287  0.00  0.00    +0.000 A 
ATOM     23  C   UNL     1       2.581   8.748  17.602  0.00  0.00    +0.000 A 
ATOM     24  C   UNL     1       3.057   7.556  18.146  0.00  0.00    +0.000 A 
ATOM     25  C   UNL     1       2.562   7.089  19.357  0.00  0.00    +0.000 A 
ATOM     26  C   UNL     1       1.586   7.817  20.026  0.00  0.00    +0.000 A 
ATOM     27  F   UNL     1       1.114   7.320  21.180  0.00  0.00    +0.000 F 
ENDBRANCH   6  21
TORSDOF 2
ENDMDL
