MODEL 1
REMARK VINA RESULT:      -5.5      0.000      0.000
REMARK  Name = 
REMARK  5 active torsions:
REMARK  status: ('A' for Active; 'I' for Inactive)
REMARK    1  A    between atoms: C_1  and  C_2
REMARK    2  A    between atoms: C_4  and  O_5
REMARK    3  A    between atoms: C_6  and  C_7
REMARK    4  A    between atoms: C_7  and  N_8
REMARK    5  A    between atoms: C_9  and  C_10
REMARK                            x       y       z     vdW  Elec       q    Type
REMARK                         _______ _______ _______ _____ _____    ______ ____
ROOT
ATOM      1  C   UNL     1       5.030   4.052  16.057  0.00  0.00    +0.000 C 
ATOM      2  C   UNL     1       3.983   4.041  17.140  0.00  0.00    +0.000 A 
ATOM      3  C   UNL     1       3.285   2.861  17.409  0.00  0.00    +0.000 A 
ATOM      4  C   UNL     1       2.284   2.826  18.386  0.00  0.00    +0.000 A 
ATOM      5  C   UNL     1       1.958   3.989  19.118  0.00  0.00    +0.000 A 
ATOM      6  C   UNL     1       2.678   5.193  18.863  0.00  0.00    +0.000 A 
ATOM      7  C   UNL     1       2.390   6.483  19.602  0.00  0.00    +0.000 C 
ATOM      8  C   UNL     1       3.689   5.205  17.872  0.00  0.00    +0.000 A 
ATOM      9 CL   UNL     1       4.583   6.695  17.527  0.00  0.00    +0.000 Cl
ENDROOT
BRANCH   4  10
ATOM     10  O   UNL     1       1.620   1.670  18.608  0.00  0.00    +0.000 OA
ATOM     11  H   UNL     1       1.451   1.025  17.906  0.00  0.00    +0.000 HD
ENDBRANCH   4  10
BRANCH   5  12
ATOM     12  C   UNL     1       0.822   3.939  20.130  0.00  0.00    +0.000 C 
BRANCH  12  13
ATOM     13  N   UNL     1       1.070   2.938  21.160  0.00  0.00    +0.000 NA
ATOM     14  H   UNL     1       0.880   3.357  22.099  0.00  0.00    +0.000 HD
ATOM     15  H   UNL     1       2.082   2.672  21.123  0.00  0.00    +0.000 HD
ENDBRANCH  12  13
ENDBRANCH   5  12
TORSDOF 3
ENDMDL
MODEL 2
REMARK VINA RESULT:      -5.5      2.427      3.170
REMARK  Name = 
REMARK  5 active torsions:
REMARK  status: ('A' for Active; 'I' for Inactive)
REMARK    1  A    between atoms: C_1  and  C_2
REMARK    2  A    between atoms: C_4  and  O_5
REMARK    3  A    between atoms: C_6  and  C_7
REMARK    4  A    between atoms: C_7  and  N_8
REMARK    5  A    between atoms: C_9  and  C_10
REMARK                            x       y       z     vdW  Elec       q    Type
REMARK                         _______ _______ _______ _____ _____    ______ ____
ROOT
ATOM      1  C   UNL     1       3.027   7.846  17.780  0.00  0.00    +0.000 C 
ATOM      2  C   UNL     1       3.226   6.440  18.283  0.00  0.00    +0.000 A 
ATOM      3  C   UNL     1       3.971   5.536  17.522  0.00  0.00    +0.000 A 
ATOM      4  C   UNL     1       4.146   4.215  17.946  0.00  0.00    +0.000 A 
ATOM      5  C   UNL     1       3.568   3.769  19.156  0.00  0.00    +0.000 A 
ATOM      6  C   UNL     1       2.822   4.690  19.949  0.00  0.00    +0.000 A 
ATOM      7  C   UNL     1       2.169   4.293  21.256  0.00  0.00    +0.000 C 
ATOM      8  C   UNL     1       2.660   6.024  19.502  0.00  0.00    +0.000 A 
ATOM      9 CL   UNL     1       1.722   7.179  20.462  0.00  0.00    +0.000 Cl
ENDROOT
BRANCH   4  10
ATOM     10  O   UNL     1       4.860   3.364  17.176  0.00  0.00    +0.000 OA
ATOM     11  H   UNL     1       5.387   3.665  16.421  0.00  0.00    +0.000 HD
ENDBRANCH   4  10
BRANCH   5  12
ATOM     12  C   UNL     1       3.722   2.310  19.562  0.00  0.00    +0.000 C 
BRANCH  12  13
ATOM     13  N   UNL     1       5.088   2.012  19.973  0.00  0.00    +0.000 NA
ATOM     14  H   UNL     1       5.405   1.134  19.502  0.00  0.00    +0.000 HD
ATOM     15  H   UNL     1       5.092   1.846  21.006  0.00  0.00    +0.000 HD
ENDBRANCH  12  13
ENDBRANCH   5  12
TORSDOF 3
ENDMDL
MODEL 3
REMARK VINA RESULT:      -5.5      2.619      3.800
REMARK  Name = 
REMARK  5 active torsions:
REMARK  status: ('A' for Active; 'I' for Inactive)
REMARK    1  A    between atoms: C_1  and  C_2
REMARK    2  A    between atoms: C_4  and  O_5
REMARK    3  A    between atoms: C_6  and  C_7
REMARK    4  A    between atoms: C_7  and  N_8
REMARK    5  A    between atoms: C_9  and  C_10
REMARK                            x       y       z     vdW  Elec       q    Type
REMARK                         _______ _______ _______ _____ _____    ______ ____
ROOT
ATOM      1  C   UNL     1       1.517   2.949  21.510  0.00  0.00    +0.000 C 
ATOM      2  C   UNL     1       2.261   3.254  20.237  0.00  0.00    +0.000 A 
ATOM      3  C   UNL     1       2.864   2.214  19.525  0.00  0.00    +0.000 A 
ATOM      4  C   UNL     1       3.589   2.468  18.357  0.00  0.00    +0.000 A 
ATOM      5  C   UNL     1       3.729   3.789  17.875  0.00  0.00    +0.000 A 
ATOM      6  C   UNL     1       3.101   4.856  18.584  0.00  0.00    +0.000 A 
ATOM      7  C   UNL     1       3.204   6.299  18.136  0.00  0.00    +0.000 C 
ATOM      8  C   UNL     1       2.369   4.575  19.763  0.00  0.00    +0.000 A 
ATOM      9 CL   UNL     1       1.598   5.887  20.669  0.00  0.00    +0.000 Cl
ENDROOT
BRANCH   4  10
ATOM     10  O   UNL     1       4.171   1.438  17.704  0.00  0.00    +0.000 OA
ATOM     11  H   UNL     1       3.869   0.522  17.805  0.00  0.00    +0.000 HD
ENDBRANCH   4  10
BRANCH   5  12
ATOM     12  C   UNL     1       4.577   4.045  16.637  0.00  0.00    +0.000 C 
BRANCH  12  13
ATOM     13  N   UNL     1       5.993   3.829  16.908  0.00  0.00    +0.000 NA
ATOM     14  H   UNL     1       6.093   3.253  17.775  0.00  0.00    +0.000 HD
ATOM     15  H   UNL     1       6.439   4.759  17.084  0.00  0.00    +0.000 HD
ENDBRANCH  12  13
ENDBRANCH   5  12
TORSDOF 3
ENDMDL
MODEL 4
REMARK VINA RESULT:      -5.5      3.036      4.242
REMARK  Name = 
REMARK  5 active torsions:
REMARK  status: ('A' for Active; 'I' for Inactive)
REMARK    1  A    between atoms: C_1  and  C_2
REMARK    2  A    between atoms: C_4  and  O_5
REMARK    3  A    between atoms: C_6  and  C_7
REMARK    4  A    between atoms: C_7  and  N_8
REMARK    5  A    between atoms: C_9  and  C_10
REMARK                            x       y       z     vdW  Elec       q    Type
REMARK                         _______ _______ _______ _____ _____    ______ ____
ROOT
ATOM      1  C   UNL     1       1.941   6.330  20.246  0.00  0.00    +0.000 C 
ATOM      2  C   UNL     1       3.057   5.808  19.381  0.00  0.00    +0.000 A 
ATOM      3  C   UNL     1       3.711   4.626  19.739  0.00  0.00    +0.000 A 
ATOM      4  C   UNL     1       4.773   4.133  18.974  0.00  0.00    +0.000 A 
ATOM      5  C   UNL     1       5.207   4.825  17.821  0.00  0.00    +0.000 A 
ATOM      6  C   UNL     1       4.533   6.022  17.437  0.00  0.00    +0.000 A 
ATOM      7  C   UNL     1       4.936   6.824  16.218  0.00  0.00    +0.000 C 
ATOM      8  C   UNL     1       3.459   6.502  18.224  0.00  0.00    +0.000 A 
ATOM      9 CL   UNL     1       2.620   7.996  17.775  0.00  0.00    +0.000 Cl
ENDROOT
BRANCH   4  10
ATOM     10  O   UNL     1       5.391   2.995  19.360  0.00  0.00    +0.000 OA
ATOM     11  H   UNL     1       6.239   2.712  18.985  0.00  0.00    +0.000 HD
ENDBRANCH   4  10
BRANCH   5  12
ATOM     12  C   UNL     1       6.405   4.300  17.043  0.00  0.00    +0.000 C 
BRANCH  12  13
ATOM     13  N   UNL     1       7.617   4.323  17.852  0.00  0.00    +0.000 NA
ATOM     14  H   UNL     1       8.001   5.295  17.867  0.00  0.00    +0.000 HD
ATOM     15  H   UNL     1       8.326   3.700  17.400  0.00  0.00    +0.000 HD
ENDBRANCH  12  13
ENDBRANCH   5  12
TORSDOF 3
ENDMDL
MODEL 5
REMARK VINA RESULT:      -5.4      1.941      3.465
REMARK  Name = 
REMARK  5 active torsions:
REMARK  status: ('A' for Active; 'I' for Inactive)
REMARK    1  A    between atoms: C_1  and  C_2
REMARK    2  A    between atoms: C_4  and  O_5
REMARK    3  A    between atoms: C_6  and  C_7
REMARK    4  A    between atoms: C_7  and  N_8
REMARK    5  A    between atoms: C_9  and  C_10
REMARK                            x       y       z     vdW  Elec       q    Type
REMARK                         _______ _______ _______ _____ _____    ______ ____
ROOT
ATOM      1  C   UNL     1       1.670   7.474  20.513  0.00  0.00    +0.000 C 
ATOM      2  C   UNL     1       2.197   6.127  20.093  0.00  0.00    +0.000 A 
ATOM      3  C   UNL     1       2.009   5.024  20.930  0.00  0.00    +0.000 A 
ATOM      4  C   UNL     1       2.514   3.766  20.584  0.00  0.00    +0.000 A 
ATOM      5  C   UNL     1       3.228   3.589  19.378  0.00  0.00    +0.000 A 
ATOM      6  C   UNL     1       3.408   4.706  18.508  0.00  0.00    +0.000 A 
ATOM      7  C   UNL     1       4.163   4.601  17.200  0.00  0.00    +0.000 C 
ATOM      8  C   UNL     1       2.886   5.968  18.877  0.00  0.00    +0.000 A 
ATOM      9 CL   UNL     1       3.114   7.372  17.821  0.00  0.00    +0.000 Cl
ENDROOT
BRANCH   4  10
ATOM     10  O   UNL     1       2.326   2.726  21.426  0.00  0.00    +0.000 OA
ATOM     11  H   UNL     1       2.493   1.808  21.161  0.00  0.00    +0.000 HD
ENDBRANCH   4  10
BRANCH   5  12
ATOM     12  C   UNL     1       3.822   2.225  19.056  0.00  0.00    +0.000 C 
BRANCH  12  13
ATOM     13  N   UNL     1       4.956   1.921  19.920  0.00  0.00    +0.000 NA
ATOM     14  H   UNL     1       5.557   2.772  20.009  0.00  0.00    +0.000 HD
ATOM     15  H   UNL     1       5.525   1.170  19.463  0.00  0.00    +0.000 HD
ENDBRANCH  12  13
ENDBRANCH   5  12
TORSDOF 3
ENDMDL
MODEL 6
REMARK VINA RESULT:      -5.3      2.023      2.892
REMARK  Name = 
REMARK  5 active torsions:
REMARK  status: ('A' for Active; 'I' for Inactive)
REMARK    1  A    between atoms: C_1  and  C_2
REMARK    2  A    between atoms: C_4  and  O_5
REMARK    3  A    between atoms: C_6  and  C_7
REMARK    4  A    between atoms: C_7  and  N_8
REMARK    5  A    between atoms: C_9  and  C_10
REMARK                            x       y       z     vdW  Elec       q    Type
REMARK                         _______ _______ _______ _____ _____    ______ ____
ROOT
ATOM      1  C   UNL     1       4.712   6.682  17.152  0.00  0.00    +0.000 C 
ATOM      2  C   UNL     1       3.840   5.804  18.010  0.00  0.00    +0.000 A 
ATOM      3  C   UNL     1       3.184   6.353  19.114  0.00  0.00    +0.000 A 
ATOM      4  C   UNL     1       2.392   5.558  19.949  0.00  0.00    +0.000 A 
ATOM      5  C   UNL     1       2.243   4.177  19.690  0.00  0.00    +0.000 A 
ATOM      6  C   UNL     1       2.893   3.611  18.553  0.00  0.00    +0.000 A 
ATOM      7  C   UNL     1       2.786   2.141  18.207  0.00  0.00    +0.000 C 
ATOM      8  C   UNL     1       3.687   4.436  17.721  0.00  0.00    +0.000 A 
ATOM      9 CL   UNL     1       4.518   3.749  16.315  0.00  0.00    +0.000 Cl
ENDROOT
BRANCH   4  10
ATOM     10  O   UNL     1       1.785   6.122  21.017  0.00  0.00    +0.000 OA
ATOM     11  H   UNL     1       1.369   6.996  20.975  0.00  0.00    +0.000 HD
ENDBRANCH   4  10
BRANCH   5  12
ATOM     12  C   UNL     1       1.428   3.322  20.649  0.00  0.00    +0.000 C 
BRANCH  12  13
ATOM     13  N   UNL     1       2.061   3.241  21.960  0.00  0.00    +0.000 NA
ATOM     14  H   UNL     1       2.969   3.760  21.935  0.00  0.00    +0.000 HD
ATOM     15  H   UNL     1       2.268   2.236  22.163  0.00  0.00    +0.000 HD
ENDBRANCH  12  13
ENDBRANCH   5  12
TORSDOF 3
ENDMDL
MODEL 7
REMARK VINA RESULT:      -5.3      3.146      4.494
REMARK  Name = 
REMARK  5 active torsions:
REMARK  status: ('A' for Active; 'I' for Inactive)
REMARK    1  A    between atoms: C_1  and  C_2
REMARK    2  A    between atoms: C_4  and  O_5
REMARK    3  A    between atoms: C_6  and  C_7
REMARK    4  A    between atoms: C_7  and  N_8
REMARK    5  A    between atoms: C_9  and  C_10
REMARK                            x       y       z     vdW  Elec       q    Type
REMARK                         _______ _______ _______ _____ _____    ______ ____
ROOT
ATOM      1  C   UNL     1       1.327   2.753  21.209  0.00  0.00    +0.000 C 
ATOM      2  C   UNL     1       1.931   3.841  20.360  0.00  0.00    +0.000 A 
ATOM      3  C   UNL     1       1.801   5.175  20.755  0.00  0.00    +0.000 A 
ATOM      4  C   UNL     1       2.322   6.210  19.972  0.00  0.00    +0.000 A 
ATOM      5  C   UNL     1       2.990   5.924  18.761  0.00  0.00    +0.000 A 
ATOM      6  C   UNL     1       3.145   4.564  18.359  0.00  0.00    +0.000 A 
ATOM      7  C   UNL     1       3.846   4.172  17.075  0.00  0.00    +0.000 C 
ATOM      8  C   UNL     1       2.612   3.532  19.168  0.00  0.00    +0.000 A 
ATOM      9 CL   UNL     1       2.777   1.838  18.678  0.00  0.00    +0.000 Cl
ENDROOT
BRANCH   4  10
ATOM     10  O   UNL     1       2.163   7.489  20.379  0.00  0.00    +0.000 OA
ATOM     11  H   UNL     1       2.812   7.939  20.941  0.00  0.00    +0.000 HD
ENDBRANCH   4  10
BRANCH   5  12
ATOM     12  C   UNL     1       3.492   7.072  17.897  0.00  0.00    +0.000 C 
BRANCH  12  13
ATOM     13  N   UNL     1       2.440   8.050  17.648  0.00  0.00    +0.000 NA
ATOM     14  H   UNL     1       2.632   8.538  16.744  0.00  0.00    +0.000 HD
ATOM     15  H   UNL     1       2.466   8.763  18.413  0.00  0.00    +0.000 HD
ENDBRANCH  12  13
ENDBRANCH   5  12
TORSDOF 3
ENDMDL
MODEL 8
REMARK VINA RESULT:      -5.2      2.503      3.794
REMARK  Name = 
REMARK  5 active torsions:
REMARK  status: ('A' for Active; 'I' for Inactive)
REMARK    1  A    between atoms: C_1  and  C_2
REMARK    2  A    between atoms: C_4  and  O_5
REMARK    3  A    between atoms: C_6  and  C_7
REMARK    4  A    between atoms: C_7  and  N_8
REMARK    5  A    between atoms: C_9  and  C_10
REMARK                            x       y       z     vdW  Elec       q    Type
REMARK                         _______ _______ _______ _____ _____    ______ ____
ROOT
ATOM      1  C   UNL     1       1.306   4.696  20.601  0.00  0.00    +0.000 C 
ATOM      2  C   UNL     1       2.307   4.620  19.478  0.00  0.00    +0.000 A 
ATOM      3  C   UNL     1       2.755   3.371  19.040  0.00  0.00    +0.000 A 
ATOM      4  C   UNL     1       3.708   3.267  18.021  0.00  0.00    +0.000 A 
ATOM      5  C   UNL     1       4.239   4.429  17.416  0.00  0.00    +0.000 A 
ATOM      6  C   UNL     1       3.773   5.707  17.844  0.00  0.00    +0.000 A 
ATOM      7  C   UNL     1       4.291   7.000  17.250  0.00  0.00    +0.000 C 
ATOM      8  C   UNL     1       2.806   5.789  18.875  0.00  0.00    +0.000 A 
ATOM      9 CL   UNL     1       2.228   7.367  19.434  0.00  0.00    +0.000 Cl
ENDROOT
BRANCH   4  10
ATOM     10  O   UNL     1       4.129   2.043  17.634  0.00  0.00    +0.000 OA
ATOM     11  H   UNL     1       5.061   1.847  17.452  0.00  0.00    +0.000 HD
ENDBRANCH   4  10
BRANCH   5  12
ATOM     12  C   UNL     1       5.320   4.289  16.355  0.00  0.00    +0.000 C 
BRANCH  12  13
ATOM     13  N   UNL     1       6.623   4.028  16.954  0.00  0.00    +0.000 NA
ATOM     14  H   UNL     1       6.536   3.241  17.637  0.00  0.00    +0.000 HD
ATOM     15  H   UNL     1       6.920   4.882  17.480  0.00  0.00    +0.000 HD
ENDBRANCH  12  13
ENDBRANCH   5  12
TORSDOF 3
ENDMDL
MODEL 9
REMARK VINA RESULT:      -5.2      1.755      2.208
REMARK  Name = 
REMARK  5 active torsions:
REMARK  status: ('A' for Active; 'I' for Inactive)
REMARK    1  A    between atoms: C_1  and  C_2
REMARK    2  A    between atoms: C_4  and  O_5
REMARK    3  A    between atoms: C_6  and  C_7
REMARK    4  A    between atoms: C_7  and  N_8
REMARK    5  A    between atoms: C_9  and  C_10
REMARK                            x       y       z     vdW  Elec       q    Type
REMARK                         _______ _______ _______ _____ _____    ______ ____
ROOT
ATOM      1  C   UNL     1       4.417   7.025  17.073  0.00  0.00    +0.000 C 
ATOM      2  C   UNL     1       3.867   5.811  17.775  0.00  0.00    +0.000 A 
ATOM      3  C   UNL     1       4.313   4.540  17.404  0.00  0.00    +0.000 A 
ATOM      4  C   UNL     1       3.798   3.392  18.015  0.00  0.00    +0.000 A 
ATOM      5  C   UNL     1       2.812   3.497  19.021  0.00  0.00    +0.000 A 
ATOM      6  C   UNL     1       2.365   4.792  19.420  0.00  0.00    +0.000 A 
ATOM      7  C   UNL     1       1.311   4.992  20.488  0.00  0.00    +0.000 C 
ATOM      8  C   UNL     1       2.902   5.940  18.790  0.00  0.00    +0.000 A 
ATOM      9 CL   UNL     1       2.347   7.556  19.258  0.00  0.00    +0.000 Cl
ENDROOT
BRANCH   4  10
ATOM     10  O   UNL     1       4.243   2.178  17.619  0.00  0.00    +0.000 OA
ATOM     11  H   UNL     1       3.874   1.715  16.852  0.00  0.00    +0.000 HD
ENDBRANCH   4  10
BRANCH   5  12
ATOM     12  C   UNL     1       2.224   2.230  19.624  0.00  0.00    +0.000 C 
BRANCH  12  13
ATOM     13  N   UNL     1       1.390   1.520  18.663  0.00  0.00    +0.000 NA
ATOM     14  H   UNL     1       0.661   2.173  18.293  0.00  0.00    +0.000 HD
ATOM     15  H   UNL     1       0.902   0.741  19.162  0.00  0.00    +0.000 HD
ENDBRANCH  12  13
ENDBRANCH   5  12
TORSDOF 3
ENDMDL
