MODEL 1
REMARK VINA RESULT:      -9.4      0.000      0.000
REMARK  Name = 
REMARK  3 active torsions:
REMARK  status: ('A' for Active; 'I' for Inactive)
REMARK    1  A    between atoms: C_7  and  C_8
REMARK    2  A    between atoms: C_14  and  C_15
REMARK    3  A    between atoms: N_23  and  C_24
REMARK                            x       y       z     vdW  Elec       q    Type
REMARK                         _______ _______ _______ _____ _____    ______ ____
ROOT
ATOM      1  O   UNL     1       5.375   6.869  15.209  0.00  0.00    +0.000 OA
ATOM      2  C   UNL     1       4.957   6.000  15.965  0.00  0.00    +0.000 A 
ATOM      3  C   UNL     1       4.122   6.247  17.106  0.00  0.00    +0.000 A 
ATOM      4  O   UNL     1       3.630   7.455  17.509  0.00  0.00    +0.000 OA
ATOM      5  C   UNL     1       2.865   7.210  18.632  0.00  0.00    +0.000 A 
ATOM      6  N   UNL     1       2.210   8.170  19.320  0.00  0.00    +0.000 NA
ATOM      7  C   UNL     1       1.503   7.696  20.379  0.00  0.00    +0.000 A 
ATOM      8  C   UNL     1       1.469   6.353  20.764  0.00  0.00    +0.000 A 
ATOM      9  C   UNL     1       2.165   5.376  20.038  0.00  0.00    +0.000 A 
ATOM     10  C   UNL     1       2.881   5.843  18.928  0.00  0.00    +0.000 A 
ATOM     11  C   UNL     1       3.691   5.264  17.943  0.00  0.00    +0.000 A 
ATOM     12  N   UNL     1       4.024   3.925  17.799  0.00  0.00    +0.000 NA
ATOM     13  C   UNL     1       4.764   3.699  16.757  0.00  0.00    +0.000 A 
ATOM     14  N   UNL     1       5.237   4.624  15.825  0.00  0.00    +0.000 N 
ENDROOT
BRANCH   7  15
ATOM     15  C   UNL     1       0.767   8.717  21.151  0.00  0.00    +0.000 A 
ATOM     16  C   UNL     1       0.069   8.584  22.339  0.00  0.00    +0.000 A 
ATOM     17  C   UNL     1      -0.558   9.798  22.757  0.00  0.00    +0.000 A 
ATOM     18  C   UNL     1      -0.302  10.835  21.890  0.00  0.00    +0.000 A 
ATOM     19  S   UNL     1       0.699  10.350  20.598  0.00  0.00    +0.000 S 
ENDBRANCH   7  15
BRANCH  14  20
ATOM     20  C   UNL     1       6.008   4.104  14.698  0.00  0.00    +0.000 C 
ATOM     21  C   UNL     1       5.205   3.810  13.432  0.00  0.00    +0.000 C 
ATOM     22  C   UNL     1       6.284   3.579  12.381  0.00  0.00    +0.000 C 
ATOM     23  C   UNL     1       7.482   4.428  12.813  0.00  0.00    +0.000 C 
ATOM     24  C   UNL     1       7.151   4.987  14.199  0.00  0.00    +0.000 C 
ENDBRANCH  14  20
BRANCH   9  25
ATOM     25  C   UNL     1       2.138   3.931  20.439  0.00  0.00    +0.000 C 
ATOM     26  F   UNL     1       1.441   3.718  21.592  0.00  0.00    +0.000 F 
ATOM     27  F   UNL     1       1.550   3.130  19.510  0.00  0.00    +0.000 F 
ATOM     28  F   UNL     1       3.379   3.422  20.668  0.00  0.00    +0.000 F 
ENDBRANCH   9  25
TORSDOF 3
ENDMDL
MODEL 2
REMARK VINA RESULT:      -8.8      2.424      8.129
REMARK  Name = 
REMARK  3 active torsions:
REMARK  status: ('A' for Active; 'I' for Inactive)
REMARK    1  A    between atoms: C_7  and  C_8
REMARK    2  A    between atoms: C_14  and  C_15
REMARK    3  A    between atoms: N_23  and  C_24
REMARK                            x       y       z     vdW  Elec       q    Type
REMARK                         _______ _______ _______ _____ _____    ______ ____
ROOT
ATOM      1  O   UNL     1       1.121  11.330  19.142  0.00  0.00    +0.000 OA
ATOM      2  C   UNL     1       1.051  10.248  19.712  0.00  0.00    +0.000 A 
ATOM      3  C   UNL     1       1.729   9.057  19.284  0.00  0.00    +0.000 A 
ATOM      4  O   UNL     1       2.577   8.941  18.220  0.00  0.00    +0.000 OA
ATOM      5  C   UNL     1       3.005   7.628  18.204  0.00  0.00    +0.000 A 
ATOM      6  N   UNL     1       3.861   7.128  17.287  0.00  0.00    +0.000 NA
ATOM      7  C   UNL     1       4.159   5.816  17.478  0.00  0.00    +0.000 A 
ATOM      8  C   UNL     1       3.617   5.027  18.496  0.00  0.00    +0.000 A 
ATOM      9  C   UNL     1       2.722   5.568  19.430  0.00  0.00    +0.000 A 
ATOM     10  C   UNL     1       2.421   6.926  19.262  0.00  0.00    +0.000 A 
ATOM     11  C   UNL     1       1.615   7.861  19.923  0.00  0.00    +0.000 A 
ATOM     12  N   UNL     1       0.822   7.656  21.043  0.00  0.00    +0.000 NA
ATOM     13  C   UNL     1       0.223   8.736  21.442  0.00  0.00    +0.000 A 
ATOM     14  N   UNL     1       0.292  10.012  20.878  0.00  0.00    +0.000 N 
ENDROOT
BRANCH   7  15
ATOM     15  C   UNL     1       5.100   5.236  16.499  0.00  0.00    +0.000 A 
ATOM     16  C   UNL     1       4.868   4.296  15.509  0.00  0.00    +0.000 A 
ATOM     17  C   UNL     1       6.048   3.945  14.785  0.00  0.00    +0.000 A 
ATOM     18  C   UNL     1       7.149   4.644  15.224  0.00  0.00    +0.000 A 
ATOM     19  S   UNL     1       6.755   5.724  16.482  0.00  0.00    +0.000 S 
ENDBRANCH   7  15
BRANCH  14  20
ATOM     20  C   UNL     1      -0.435  11.083  21.556  0.00  0.00    +0.000 C 
ATOM     21  C   UNL     1      -1.627  11.654  20.792  0.00  0.00    +0.000 C 
ATOM     22  C   UNL     1      -2.336  12.506  21.839  0.00  0.00    +0.000 C 
ATOM     23  C   UNL     1      -2.042  11.845  23.189  0.00  0.00    +0.000 C 
ATOM     24  C   UNL     1      -1.019  10.738  22.925  0.00  0.00    +0.000 C 
ENDBRANCH  14  20
BRANCH   9  25
ATOM     25  C   UNL     1       2.131   4.732  20.527  0.00  0.00    +0.000 C 
ATOM     26  F   UNL     1       2.538   3.432  20.475  0.00  0.00    +0.000 F 
ATOM     27  F   UNL     1       2.471   5.167  21.770  0.00  0.00    +0.000 F 
ATOM     28  F   UNL     1       0.771   4.688  20.483  0.00  0.00    +0.000 F 
ENDBRANCH   9  25
TORSDOF 3
ENDMDL
MODEL 3
REMARK VINA RESULT:      -8.4      3.709      5.636
REMARK  Name = 
REMARK  3 active torsions:
REMARK  status: ('A' for Active; 'I' for Inactive)
REMARK    1  A    between atoms: C_7  and  C_8
REMARK    2  A    between atoms: C_14  and  C_15
REMARK    3  A    between atoms: N_23  and  C_24
REMARK                            x       y       z     vdW  Elec       q    Type
REMARK                         _______ _______ _______ _____ _____    ______ ____
ROOT
ATOM      1  O   UNL     1       3.096   7.954  16.941  0.00  0.00    +0.000 OA
ATOM      2  C   UNL     1       2.585   7.870  18.051  0.00  0.00    +0.000 A 
ATOM      3  C   UNL     1       1.902   8.943  18.716  0.00  0.00    +0.000 A 
ATOM      4  O   UNL     1       1.676  10.195  18.221  0.00  0.00    +0.000 OA
ATOM      5  C   UNL     1       0.969  10.877  19.192  0.00  0.00    +0.000 A 
ATOM      6  N   UNL     1       0.560  12.158  19.064  0.00  0.00    +0.000 NA
ATOM      7  C   UNL     1      -0.137  12.617  20.135  0.00  0.00    +0.000 A 
ATOM      8  C   UNL     1      -0.390  11.869  21.289  0.00  0.00    +0.000 A 
ATOM      9  C   UNL     1       0.054  10.544  21.401  0.00  0.00    +0.000 A 
ATOM     10  C   UNL     1       0.756  10.045  20.295  0.00  0.00    +0.000 A 
ATOM     11  C   UNL     1       1.364   8.829  19.962  0.00  0.00    +0.000 A 
ATOM     12  N   UNL     1       1.430   7.675  20.729  0.00  0.00    +0.000 NA
ATOM     13  C   UNL     1       2.032   6.699  20.122  0.00  0.00    +0.000 A 
ATOM     14  N   UNL     1       2.594   6.702  18.843  0.00  0.00    +0.000 N 
ENDROOT
BRANCH   7  15
ATOM     15  C   UNL     1      -0.609  14.012  20.027  0.00  0.00    +0.000 A 
ATOM     16  C   UNL     1      -0.169  15.024  19.190  0.00  0.00    +0.000 A 
ATOM     17  C   UNL     1      -0.843  16.264  19.414  0.00  0.00    +0.000 A 
ATOM     18  C   UNL     1      -1.798  16.162  20.399  0.00  0.00    +0.000 A 
ATOM     19  S   UNL     1      -1.890  14.582  21.032  0.00  0.00    +0.000 S 
ENDBRANCH   7  15
BRANCH  14  20
ATOM     20  C   UNL     1       3.164   5.445  18.361  0.00  0.00    +0.000 C 
ATOM     21  C   UNL     1       3.970   4.653  19.389  0.00  0.00    +0.000 C 
ATOM     22  C   UNL     1       4.171   3.304  18.708  0.00  0.00    +0.000 C 
ATOM     23  C   UNL     1       2.958   3.107  17.796  0.00  0.00    +0.000 C 
ATOM     24  C   UNL     1       2.171   4.420  17.818  0.00  0.00    +0.000 C 
ENDBRANCH  14  20
BRANCH   9  25
ATOM     25  C   UNL     1      -0.208   9.729  22.633  0.00  0.00    +0.000 C 
ATOM     26  F   UNL     1       0.939   9.348  23.265  0.00  0.00    +0.000 F 
ATOM     27  F   UNL     1      -0.931  10.399  23.571  0.00  0.00    +0.000 F 
ATOM     28  F   UNL     1      -0.877   8.574  22.371  0.00  0.00    +0.000 F 
ENDBRANCH   9  25
TORSDOF 3
ENDMDL
MODEL 4
REMARK VINA RESULT:      -8.2      3.798      5.632
REMARK  Name = 
REMARK  3 active torsions:
REMARK  status: ('A' for Active; 'I' for Inactive)
REMARK    1  A    between atoms: C_7  and  C_8
REMARK    2  A    between atoms: C_14  and  C_15
REMARK    3  A    between atoms: N_23  and  C_24
REMARK                            x       y       z     vdW  Elec       q    Type
REMARK                         _______ _______ _______ _____ _____    ______ ____
ROOT
ATOM      1  O   UNL     1       3.119   7.482  17.292  0.00  0.00    +0.000 OA
ATOM      2  C   UNL     1       2.548   7.460  18.376  0.00  0.00    +0.000 A 
ATOM      3  C   UNL     1       1.902   8.592  18.978  0.00  0.00    +0.000 A 
ATOM      4  O   UNL     1       1.781   9.842  18.441  0.00  0.00    +0.000 OA
ATOM      5  C   UNL     1       1.071  10.593  19.357  0.00  0.00    +0.000 A 
ATOM      6  N   UNL     1       0.751  11.893  19.176  0.00  0.00    +0.000 NA
ATOM      7  C   UNL     1       0.031  12.424  20.198  0.00  0.00    +0.000 A 
ATOM      8  C   UNL     1      -0.326  11.725  21.355  0.00  0.00    +0.000 A 
ATOM      9  C   UNL     1       0.026  10.379  21.523  0.00  0.00    +0.000 A 
ATOM     10  C   UNL     1       0.749   9.807  20.467  0.00  0.00    +0.000 A 
ATOM     11  C   UNL     1       1.295   8.546  20.196  0.00  0.00    +0.000 A 
ATOM     12  N   UNL     1       1.249   7.412  20.994  0.00  0.00    +0.000 NA
ATOM     13  C   UNL     1       1.817   6.384  20.443  0.00  0.00    +0.000 A 
ATOM     14  N   UNL     1       2.442   6.316  19.195  0.00  0.00    +0.000 N 
ENDROOT
BRANCH   7  15
ATOM     15  C   UNL     1      -0.344  13.843  20.032  0.00  0.00    +0.000 A 
ATOM     16  C   UNL     1      -1.353  14.561  20.651  0.00  0.00    +0.000 A 
ATOM     17  C   UNL     1      -1.438  15.911  20.191  0.00  0.00    +0.000 A 
ATOM     18  C   UNL     1      -0.476  16.198  19.251  0.00  0.00    +0.000 A 
ATOM     19  S   UNL     1       0.529  14.856  18.941  0.00  0.00    +0.000 S 
ENDBRANCH   7  15
BRANCH  14  20
ATOM     20  C   UNL     1       2.955   5.014  18.774  0.00  0.00    +0.000 C 
ATOM     21  C   UNL     1       3.170   4.000  19.896  0.00  0.00    +0.000 C 
ATOM     22  C   UNL     1       3.409   2.696  19.143  0.00  0.00    +0.000 C 
ATOM     23  C   UNL     1       2.628   2.815  17.833  0.00  0.00    +0.000 C 
ATOM     24  C   UNL     1       2.104   4.252  17.760  0.00  0.00    +0.000 C 
ENDBRANCH  14  20
BRANCH   9  25
ATOM     25  C   UNL     1      -0.350   9.616  22.759  0.00  0.00    +0.000 C 
ATOM     26  F   UNL     1      -0.912   8.405  22.479  0.00  0.00    +0.000 F 
ATOM     27  F   UNL     1       0.715   9.342  23.560  0.00  0.00    +0.000 F 
ATOM     28  F   UNL     1      -1.263  10.270  23.527  0.00  0.00    +0.000 F 
ENDBRANCH   9  25
TORSDOF 3
ENDMDL
MODEL 5
REMARK VINA RESULT:      -8.1      3.418      5.484
REMARK  Name = 
REMARK  3 active torsions:
REMARK  status: ('A' for Active; 'I' for Inactive)
REMARK    1  A    between atoms: C_7  and  C_8
REMARK    2  A    between atoms: C_14  and  C_15
REMARK    3  A    between atoms: N_23  and  C_24
REMARK                            x       y       z     vdW  Elec       q    Type
REMARK                         _______ _______ _______ _____ _____    ______ ____
ROOT
ATOM      1  O   UNL     1       3.042   7.567  17.273  0.00  0.00    +0.000 OA
ATOM      2  C   UNL     1       2.499   7.561  18.371  0.00  0.00    +0.000 A 
ATOM      3  C   UNL     1       1.843   8.693  18.961  0.00  0.00    +0.000 A 
ATOM      4  O   UNL     1       1.681   9.926  18.396  0.00  0.00    +0.000 OA
ATOM      5  C   UNL     1       0.978  10.685  19.310  0.00  0.00    +0.000 A 
ATOM      6  N   UNL     1       0.625  11.972  19.106  0.00  0.00    +0.000 NA
ATOM      7  C   UNL     1      -0.082  12.514  20.132  0.00  0.00    +0.000 A 
ATOM      8  C   UNL     1      -0.395  11.837  21.314  0.00  0.00    +0.000 A 
ATOM      9  C   UNL     1      -0.009  10.503  21.506  0.00  0.00    +0.000 A 
ATOM     10  C   UNL     1       0.701   9.921  20.448  0.00  0.00    +0.000 A 
ATOM     11  C   UNL     1       1.268   8.665  20.194  0.00  0.00    +0.000 A 
ATOM     12  N   UNL     1       1.266   7.552  21.021  0.00  0.00    +0.000 NA
ATOM     13  C   UNL     1       1.843   6.522  20.481  0.00  0.00    +0.000 A 
ATOM     14  N   UNL     1       2.438   6.436  19.221  0.00  0.00    +0.000 N 
ENDROOT
BRANCH   7  15
ATOM     15  C   UNL     1      -0.492  13.919  19.940  0.00  0.00    +0.000 A 
ATOM     16  C   UNL     1      -0.093  14.825  18.972  0.00  0.00    +0.000 A 
ATOM     17  C   UNL     1      -0.678  16.118  19.143  0.00  0.00    +0.000 A 
ATOM     18  C   UNL     1      -1.530  16.160  20.222  0.00  0.00    +0.000 A 
ATOM     19  S   UNL     1      -1.634  14.650  21.008  0.00  0.00    +0.000 S 
ENDBRANCH   7  15
BRANCH  14  20
ATOM     20  C   UNL     1       2.970   5.135  18.820  0.00  0.00    +0.000 C 
ATOM     21  C   UNL     1       2.127   4.368  17.802  0.00  0.00    +0.000 C 
ATOM     22  C   UNL     1       3.052   3.236  17.369  0.00  0.00    +0.000 C 
ATOM     23  C   UNL     1       4.476   3.778  17.509  0.00  0.00    +0.000 C 
ATOM     24  C   UNL     1       4.365   5.141  18.197  0.00  0.00    +0.000 C 
ENDBRANCH  14  20
BRANCH   9  25
ATOM     25  C   UNL     1      -0.337   9.765  22.770  0.00  0.00    +0.000 C 
ATOM     26  F   UNL     1      -1.130  10.488  23.611  0.00  0.00    +0.000 F 
ATOM     27  F   UNL     1      -1.010   8.603  22.549  0.00  0.00    +0.000 F 
ATOM     28  F   UNL     1       0.767   9.447  23.499  0.00  0.00    +0.000 F 
ENDBRANCH   9  25
TORSDOF 3
ENDMDL
MODEL 6
REMARK VINA RESULT:      -8.1      3.551      5.604
REMARK  Name = 
REMARK  3 active torsions:
REMARK  status: ('A' for Active; 'I' for Inactive)
REMARK    1  A    between atoms: C_7  and  C_8
REMARK    2  A    between atoms: C_14  and  C_15
REMARK    3  A    between atoms: N_23  and  C_24
REMARK                            x       y       z     vdW  Elec       q    Type
REMARK                         _______ _______ _______ _____ _____    ______ ____
ROOT
ATOM      1  O   UNL     1       2.972   8.194  16.966  0.00  0.00    +0.000 OA
ATOM      2  C   UNL     1       2.476   8.062  18.078  0.00  0.00    +0.000 A 
ATOM      3  C   UNL     1       1.767   9.094  18.781  0.00  0.00    +0.000 A 
ATOM      4  O   UNL     1       1.496  10.352  18.324  0.00  0.00    +0.000 OA
ATOM      5  C   UNL     1       0.780  10.983  19.321  0.00  0.00    +0.000 A 
ATOM      6  N   UNL     1       0.329  12.253  19.234  0.00  0.00    +0.000 NA
ATOM      7  C   UNL     1      -0.370  12.659  20.325  0.00  0.00    +0.000 A 
ATOM      8  C   UNL     1      -0.587  11.872  21.459  0.00  0.00    +0.000 A 
ATOM      9  C   UNL     1      -0.101  10.558  21.529  0.00  0.00    +0.000 A 
ATOM     10  C   UNL     1       0.604  10.114  20.402  0.00  0.00    +0.000 A 
ATOM     11  C   UNL     1       1.247   8.927  20.027  0.00  0.00    +0.000 A 
ATOM     12  N   UNL     1       1.357   7.755  20.761  0.00  0.00    +0.000 NA
ATOM     13  C   UNL     1       1.982   6.816  20.119  0.00  0.00    +0.000 A 
ATOM     14  N   UNL     1       2.529   6.873  18.836  0.00  0.00    +0.000 N 
ENDROOT
BRANCH   7  15
ATOM     15  C   UNL     1      -0.886  14.042  20.263  0.00  0.00    +0.000 A 
ATOM     16  C   UNL     1      -1.949  14.614  20.943  0.00  0.00    +0.000 A 
ATOM     17  C   UNL     1      -2.174  15.977  20.579  0.00  0.00    +0.000 A 
ATOM     18  C   UNL     1      -1.263  16.420  19.649  0.00  0.00    +0.000 A 
ATOM     19  S   UNL     1      -0.138  15.208  19.234  0.00  0.00    +0.000 S 
ENDBRANCH   7  15
BRANCH  14  20
ATOM     20  C   UNL     1       3.134   5.650  18.312  0.00  0.00    +0.000 C 
ATOM     21  C   UNL     1       4.615   5.459  18.633  0.00  0.00    +0.000 C 
ATOM     22  C   UNL     1       4.874   4.012  18.232  0.00  0.00    +0.000 C 
ATOM     23  C   UNL     1       3.548   3.274  18.434  0.00  0.00    +0.000 C 
ATOM     24  C   UNL     1       2.498   4.337  18.765  0.00  0.00    +0.000 C 
ENDBRANCH  14  20
BRANCH   9  25
ATOM     25  C   UNL     1      -0.324   9.701  22.739  0.00  0.00    +0.000 C 
ATOM     26  F   UNL     1      -1.098  10.313  23.681  0.00  0.00    +0.000 F 
ATOM     27  F   UNL     1      -0.960   8.532  22.455  0.00  0.00    +0.000 F 
ATOM     28  F   UNL     1       0.832   9.374  23.377  0.00  0.00    +0.000 F 
ENDBRANCH   9  25
TORSDOF 3
ENDMDL
MODEL 7
REMARK VINA RESULT:      -8.1      4.333      6.451
REMARK  Name = 
REMARK  3 active torsions:
REMARK  status: ('A' for Active; 'I' for Inactive)
REMARK    1  A    between atoms: C_7  and  C_8
REMARK    2  A    between atoms: C_14  and  C_15
REMARK    3  A    between atoms: N_23  and  C_24
REMARK                            x       y       z     vdW  Elec       q    Type
REMARK                         _______ _______ _______ _____ _____    ______ ____
ROOT
ATOM      1  O   UNL     1       1.849   6.543  21.125  0.00  0.00    +0.000 OA
ATOM      2  C   UNL     1       1.714   7.480  20.347  0.00  0.00    +0.000 A 
ATOM      3  C   UNL     1       0.958   8.667  20.628  0.00  0.00    +0.000 A 
ATOM      4  O   UNL     1       0.312   8.965  21.794  0.00  0.00    +0.000 OA
ATOM      5  C   UNL     1      -0.258  10.210  21.617  0.00  0.00    +0.000 A 
ATOM      6  N   UNL     1      -0.985  10.845  22.562  0.00  0.00    +0.000 NA
ATOM      7  C   UNL     1      -1.429  12.070  22.176  0.00  0.00    +0.000 A 
ATOM      8  C   UNL     1      -1.201  12.628  20.916  0.00  0.00    +0.000 A 
ATOM      9  C   UNL     1      -0.450  11.945  19.949  0.00  0.00    +0.000 A 
ATOM     10  C   UNL     1       0.036  10.689  20.337  0.00  0.00    +0.000 A 
ATOM     11  C   UNL     1       0.804   9.684  19.736  0.00  0.00    +0.000 A 
ATOM     12  N   UNL     1       1.343   9.678  18.458  0.00  0.00    +0.000 NA
ATOM     13  C   UNL     1       2.041   8.614  18.209  0.00  0.00    +0.000 A 
ATOM     14  N   UNL     1       2.283   7.530  19.057  0.00  0.00    +0.000 N 
ENDROOT
BRANCH   7  15
ATOM     15  C   UNL     1      -2.222  12.798  23.188  0.00  0.00    +0.000 A 
ATOM     16  C   UNL     1      -3.432  12.455  23.766  0.00  0.00    +0.000 A 
ATOM     17  C   UNL     1      -3.915  13.445  24.677  0.00  0.00    +0.000 A 
ATOM     18  C   UNL     1      -3.049  14.508  24.790  0.00  0.00    +0.000 A 
ATOM     19  S   UNL     1      -1.661  14.302  23.821  0.00  0.00    +0.000 S 
ENDBRANCH   7  15
BRANCH  14  20
ATOM     20  C   UNL     1       3.160   6.473  18.558  0.00  0.00    +0.000 C 
ATOM     21  C   UNL     1       2.451   5.256  17.966  0.00  0.00    +0.000 C 
ATOM     22  C   UNL     1       3.581   4.494  17.283  0.00  0.00    +0.000 C 
ATOM     23  C   UNL     1       4.605   5.550  16.858  0.00  0.00    +0.000 C 
ATOM     24  C   UNL     1       4.148   6.878  17.465  0.00  0.00    +0.000 C 
ENDBRANCH  14  20
BRANCH   9  25
ATOM     25  C   UNL     1      -0.197  12.531  18.591  0.00  0.00    +0.000 C 
ATOM     26  F   UNL     1      -0.692  13.796  18.465  0.00  0.00    +0.000 F 
ATOM     27  F   UNL     1       1.126  12.629  18.291  0.00  0.00    +0.000 F 
ATOM     28  F   UNL     1      -0.776  11.815  17.590  0.00  0.00    +0.000 F 
ENDBRANCH   9  25
TORSDOF 3
ENDMDL
MODEL 8
REMARK VINA RESULT:      -8.1      3.612      5.266
REMARK  Name = 
REMARK  3 active torsions:
REMARK  status: ('A' for Active; 'I' for Inactive)
REMARK    1  A    between atoms: C_7  and  C_8
REMARK    2  A    between atoms: C_14  and  C_15
REMARK    3  A    between atoms: N_23  and  C_24
REMARK                            x       y       z     vdW  Elec       q    Type
REMARK                         _______ _______ _______ _____ _____    ______ ____
ROOT
ATOM      1  O   UNL     1       3.721   6.782  17.133  0.00  0.00    +0.000 OA
ATOM      2  C   UNL     1       3.047   6.826  18.156  0.00  0.00    +0.000 A 
ATOM      3  C   UNL     1       2.425   8.014  18.669  0.00  0.00    +0.000 A 
ATOM      4  O   UNL     1       2.444   9.255  18.099  0.00  0.00    +0.000 OA
ATOM      5  C   UNL     1       1.702  10.075  18.927  0.00  0.00    +0.000 A 
ATOM      6  N   UNL     1       1.492  11.388  18.691  0.00  0.00    +0.000 NA
ATOM      7  C   UNL     1       0.715  11.992  19.626  0.00  0.00    +0.000 A 
ATOM      8  C   UNL     1       0.199  11.349  20.755  0.00  0.00    +0.000 A 
ATOM      9  C   UNL     1       0.440   9.987  20.982  0.00  0.00    +0.000 A 
ATOM     10  C   UNL     1       1.221   9.341  20.014  0.00  0.00    +0.000 A 
ATOM     11  C   UNL     1       1.702   8.040  19.822  0.00  0.00    +0.000 A 
ATOM     12  N   UNL     1       1.501   6.933  20.633  0.00  0.00    +0.000 NA
ATOM     13  C   UNL     1       2.047   5.855  20.160  0.00  0.00    +0.000 A 
ATOM     14  N   UNL     1       2.783   5.714  18.982  0.00  0.00    +0.000 N 
ENDROOT
BRANCH   7  15
ATOM     15  C   UNL     1       0.456  13.428  19.397  0.00  0.00    +0.000 A 
ATOM     16  C   UNL     1       1.283  14.391  18.843  0.00  0.00    +0.000 A 
ATOM     17  C   UNL     1       0.693  15.692  18.832  0.00  0.00    +0.000 A 
ATOM     18  C   UNL     1      -0.579  15.687  19.354  0.00  0.00    +0.000 A 
ATOM     19  S   UNL     1      -1.061  14.124  19.835  0.00  0.00    +0.000 S 
ENDBRANCH   7  15
BRANCH  14  20
ATOM     20  C   UNL     1       3.244   4.370  18.638  0.00  0.00    +0.000 C 
ATOM     21  C   UNL     1       3.453   3.425  19.820  0.00  0.00    +0.000 C 
ATOM     22  C   UNL     1       3.632   2.067  19.153  0.00  0.00    +0.000 C 
ATOM     23  C   UNL     1       2.823   2.125  17.855  0.00  0.00    +0.000 C 
ATOM     24  C   UNL     1       2.344   3.570  17.697  0.00  0.00    +0.000 C 
ENDBRANCH  14  20
BRANCH   9  25
ATOM     25  C   UNL     1      -0.106   9.283  22.190  0.00  0.00    +0.000 C 
ATOM     26  F   UNL     1      -0.896   8.219  21.866  0.00  0.00    +0.000 F 
ATOM     27  F   UNL     1       0.866   8.777  22.996  0.00  0.00    +0.000 F 
ATOM     28  F   UNL     1      -0.882  10.087  22.965  0.00  0.00    +0.000 F 
ENDBRANCH   9  25
TORSDOF 3
ENDMDL
MODEL 9
REMARK VINA RESULT:      -8.1      2.488      8.106
REMARK  Name = 
REMARK  3 active torsions:
REMARK  status: ('A' for Active; 'I' for Inactive)
REMARK    1  A    between atoms: C_7  and  C_8
REMARK    2  A    between atoms: C_14  and  C_15
REMARK    3  A    between atoms: N_23  and  C_24
REMARK                            x       y       z     vdW  Elec       q    Type
REMARK                         _______ _______ _______ _____ _____    ______ ____
ROOT
ATOM      1  O   UNL     1       0.926  11.295  18.946  0.00  0.00    +0.000 OA
ATOM      2  C   UNL     1       0.904  10.239  19.565  0.00  0.00    +0.000 A 
ATOM      3  C   UNL     1       1.639   9.063  19.194  0.00  0.00    +0.000 A 
ATOM      4  O   UNL     1       2.497   8.938  18.139  0.00  0.00    +0.000 OA
ATOM      5  C   UNL     1       2.985   7.647  18.185  0.00  0.00    +0.000 A 
ATOM      6  N   UNL     1       3.869   7.146  17.294  0.00  0.00    +0.000 NA
ATOM      7  C   UNL     1       4.227   5.860  17.547  0.00  0.00    +0.000 A 
ATOM      8  C   UNL     1       3.718   5.093  18.598  0.00  0.00    +0.000 A 
ATOM      9  C   UNL     1       2.794   5.634  19.504  0.00  0.00    +0.000 A 
ATOM     10  C   UNL     1       2.430   6.968  19.273  0.00  0.00    +0.000 A 
ATOM     11  C   UNL     1       1.578   7.893  19.888  0.00  0.00    +0.000 A 
ATOM     12  N   UNL     1       0.791   7.703  21.014  0.00  0.00    +0.000 NA
ATOM     13  C   UNL     1       0.140   8.771  21.361  0.00  0.00    +0.000 A 
ATOM     14  N   UNL     1       0.151  10.021  20.738  0.00  0.00    +0.000 N 
ENDROOT
BRANCH   7  15
ATOM     15  C   UNL     1       5.199   5.281  16.598  0.00  0.00    +0.000 A 
ATOM     16  C   UNL     1       6.381   5.817  16.115  0.00  0.00    +0.000 A 
ATOM     17  C   UNL     1       7.032   4.970  15.167  0.00  0.00    +0.000 A 
ATOM     18  C   UNL     1       6.344   3.796  14.966  0.00  0.00    +0.000 A 
ATOM     19  S   UNL     1       4.938   3.712  15.927  0.00  0.00    +0.000 S 
ENDBRANCH   7  15
BRANCH  14  20
ATOM     20  C   UNL     1      -0.628  11.087  21.365  0.00  0.00    +0.000 C 
ATOM     21  C   UNL     1      -1.130  10.790  22.777  0.00  0.00    +0.000 C 
ATOM     22  C   UNL     1      -1.627  12.147  23.262  0.00  0.00    +0.000 C 
ATOM     23  C   UNL     1      -0.772  13.191  22.540  0.00  0.00    +0.000 C 
ATOM     24  C   UNL     1       0.074  12.436  21.512  0.00  0.00    +0.000 C 
ENDBRANCH  14  20
BRANCH   9  25
ATOM     25  C   UNL     1       2.238   4.824  20.637  0.00  0.00    +0.000 C 
ATOM     26  F   UNL     1       2.499   5.377  21.856  0.00  0.00    +0.000 F 
ATOM     27  F   UNL     1       0.885   4.691  20.584  0.00  0.00    +0.000 F 
ATOM     28  F   UNL     1       2.755   3.566  20.692  0.00  0.00    +0.000 F 
ENDBRANCH   9  25
TORSDOF 3
ENDMDL
