MODEL 1
REMARK VINA RESULT:      -7.8      0.000      0.000
REMARK  Name = 
REMARK  1 active torsions:
REMARK  status: ('A' for Active; 'I' for Inactive)
REMARK    1  A    between atoms: C_1  and  C_2
REMARK                            x       y       z     vdW  Elec       q    Type
REMARK                         _______ _______ _______ _____ _____    ______ ____
ROOT
ATOM      1  C   UNL     1       6.690   4.371  14.056  0.00  0.00    +0.000 C 
ATOM      2  C   UNL     1       5.795   4.739  15.202  0.00  0.00    +0.000 A 
ATOM      3  C   UNL     1       5.566   6.077  15.528  0.00  0.00    +0.000 A 
ATOM      4  C   UNL     1       4.737   6.407  16.599  0.00  0.00    +0.000 A 
ATOM      5  C   UNL     1       4.113   5.410  17.376  0.00  0.00    +0.000 A 
ATOM      6  C   UNL     1       4.335   4.051  17.057  0.00  0.00    +0.000 A 
ATOM      7  C   UNL     1       5.178   3.737  15.966  0.00  0.00    +0.000 A 
ATOM      8  N   UNL     1       3.717   3.040  17.826  0.00  0.00    +0.000 N 
ATOM      9  O   UNL     1       3.901   1.807  17.545  0.00  0.00    +0.000 OA
ATOM     10  C   UNL     1       2.897   3.394  18.895  0.00  0.00    +0.000 A 
ATOM     11  C   UNL     1       2.657   4.747  19.190  0.00  0.00    +0.000 A 
ATOM     12  N   UNL     1       3.275   5.752  18.455  0.00  0.00    +0.000 N 
ATOM     13  O   UNL     1       3.081   6.977  18.760  0.00  0.00    +0.000 OA
ATOM     14  C   UNL     1       1.773   5.162  20.331  0.00  0.00    +0.000 C 
ATOM     15  C   UNL     1       0.794   4.057  20.721  0.00  0.00    +0.000 C 
ATOM     16  C   UNL     1       1.545   2.750  20.947  0.00  0.00    +0.000 C 
ATOM     17  C   UNL     1       2.234   2.281  19.662  0.00  0.00    +0.000 C 
ENDROOT
TORSDOF 0
ENDMDL
MODEL 2
REMARK VINA RESULT:      -7.2      0.770      5.060
REMARK  Name = 
REMARK  1 active torsions:
REMARK  status: ('A' for Active; 'I' for Inactive)
REMARK    1  A    between atoms: C_1  and  C_2
REMARK                            x       y       z     vdW  Elec       q    Type
REMARK                         _______ _______ _______ _____ _____    ______ ____
ROOT
ATOM      1  C   UNL     1       1.214   2.760  21.788  0.00  0.00    +0.000 C 
ATOM      2  C   UNL     1       1.889   3.613  20.755  0.00  0.00    +0.000 A 
ATOM      3  C   UNL     1       1.775   5.004  20.792  0.00  0.00    +0.000 A 
ATOM      4  C   UNL     1       2.401   5.786  19.824  0.00  0.00    +0.000 A 
ATOM      5  C   UNL     1       3.160   5.201  18.789  0.00  0.00    +0.000 A 
ATOM      6  C   UNL     1       3.285   3.794  18.739  0.00  0.00    +0.000 A 
ATOM      7  C   UNL     1       2.643   3.019  19.733  0.00  0.00    +0.000 A 
ATOM      8  N   UNL     1       4.041   3.193  17.708  0.00  0.00    +0.000 N 
ATOM      9  O   UNL     1       4.171   1.923  17.655  0.00  0.00    +0.000 OA
ATOM     10  C   UNL     1       4.654   3.995  16.749  0.00  0.00    +0.000 A 
ATOM     11  C   UNL     1       4.551   5.395  16.819  0.00  0.00    +0.000 A 
ATOM     12  N   UNL     1       3.792   5.999  17.816  0.00  0.00    +0.000 N 
ATOM     13  O   UNL     1       3.672   7.271  17.844  0.00  0.00    +0.000 OA
ATOM     14  C   UNL     1       5.205   6.288  15.805  0.00  0.00    +0.000 C 
ATOM     15  C   UNL     1       6.369   5.592  15.102  0.00  0.00    +0.000 C 
ATOM     16  C   UNL     1       5.917   4.242  14.558  0.00  0.00    +0.000 C 
ATOM     17  C   UNL     1       5.478   3.310  15.691  0.00  0.00    +0.000 C 
ENDROOT
TORSDOF 0
ENDMDL
MODEL 3
REMARK VINA RESULT:      -7.1      1.672      1.765
REMARK  Name = 
REMARK  1 active torsions:
REMARK  status: ('A' for Active; 'I' for Inactive)
REMARK    1  A    between atoms: C_1  and  C_2
REMARK                            x       y       z     vdW  Elec       q    Type
REMARK                         _______ _______ _______ _____ _____    ______ ____
ROOT
ATOM      1  C   UNL     1       6.757   4.380  13.678  0.00  0.00    +0.000 C 
ATOM      2  C   UNL     1       6.300   4.386  15.106  0.00  0.00    +0.000 A 
ATOM      3  C   UNL     1       7.167   4.769  16.131  0.00  0.00    +0.000 A 
ATOM      4  C   UNL     1       6.734   4.765  17.456  0.00  0.00    +0.000 A 
ATOM      5  C   UNL     1       5.421   4.377  17.795  0.00  0.00    +0.000 A 
ATOM      6  C   UNL     1       4.532   3.988  16.768  0.00  0.00    +0.000 A 
ATOM      7  C   UNL     1       4.991   4.001  15.430  0.00  0.00    +0.000 A 
ATOM      8  N   UNL     1       3.214   3.596  17.091  0.00  0.00    +0.000 N 
ATOM      9  O   UNL     1       2.396   3.250  16.173  0.00  0.00    +0.000 OA
ATOM     10  C   UNL     1       2.805   3.595  18.422  0.00  0.00    +0.000 A 
ATOM     11  C   UNL     1       3.683   4.011  19.438  0.00  0.00    +0.000 A 
ATOM     12  N   UNL     1       4.990   4.378  19.135  0.00  0.00    +0.000 N 
ATOM     13  O   UNL     1       5.791   4.714  20.073  0.00  0.00    +0.000 OA
ATOM     14  C   UNL     1       3.271   4.028  20.881  0.00  0.00    +0.000 C 
ATOM     15  C   UNL     1       1.754   4.100  21.038  0.00  0.00    +0.000 C 
ATOM     16  C   UNL     1       1.091   3.010  20.205  0.00  0.00    +0.000 C 
ATOM     17  C   UNL     1       1.380   3.204  18.713  0.00  0.00    +0.000 C 
ENDROOT
TORSDOF 0
ENDMDL
MODEL 4
REMARK VINA RESULT:      -6.7      2.180      3.315
REMARK  Name = 
REMARK  1 active torsions:
REMARK  status: ('A' for Active; 'I' for Inactive)
REMARK    1  A    between atoms: C_1  and  C_2
REMARK                            x       y       z     vdW  Elec       q    Type
REMARK                         _______ _______ _______ _____ _____    ______ ____
ROOT
ATOM      1  C   UNL     1       7.840   8.127  17.444  0.00  0.00    +0.000 C 
ATOM      2  C   UNL     1       7.061   6.951  17.955  0.00  0.00    +0.000 A 
ATOM      3  C   UNL     1       7.690   5.940  18.684  0.00  0.00    +0.000 A 
ATOM      4  C   UNL     1       6.957   4.850  19.148  0.00  0.00    +0.000 A 
ATOM      5  C   UNL     1       5.574   4.737  18.897  0.00  0.00    +0.000 A 
ATOM      6  C   UNL     1       4.924   5.753  18.161  0.00  0.00    +0.000 A 
ATOM      7  C   UNL     1       5.685   6.853  17.701  0.00  0.00    +0.000 A 
ATOM      8  N   UNL     1       3.539   5.655  17.901  0.00  0.00    +0.000 N 
ATOM      9  O   UNL     1       2.935   6.570  17.245  0.00  0.00    +0.000 OA
ATOM     10  C   UNL     1       2.829   4.553  18.371  0.00  0.00    +0.000 A 
ATOM     11  C   UNL     1       3.473   3.559  19.126  0.00  0.00    +0.000 A 
ATOM     12  N   UNL     1       4.840   3.633  19.372  0.00  0.00    +0.000 N 
ATOM     13  O   UNL     1       5.422   2.701  20.025  0.00  0.00    +0.000 OA
ATOM     14  C   UNL     1       2.735   2.363  19.653  0.00  0.00    +0.000 C 
ATOM     15  C   UNL     1       1.235   2.625  19.766  0.00  0.00    +0.000 C 
ATOM     16  C   UNL     1       0.700   3.167  18.446  0.00  0.00    +0.000 C 
ATOM     17  C   UNL     1       1.348   4.511  18.098  0.00  0.00    +0.000 C 
ENDROOT
TORSDOF 0
ENDMDL
MODEL 5
REMARK VINA RESULT:      -6.5      1.650      5.227
REMARK  Name = 
REMARK  1 active torsions:
REMARK  status: ('A' for Active; 'I' for Inactive)
REMARK    1  A    between atoms: C_1  and  C_2
REMARK                            x       y       z     vdW  Elec       q    Type
REMARK                         _______ _______ _______ _____ _____    ______ ____
ROOT
ATOM      1  C   UNL     1       1.095   2.499  21.939  0.00  0.00    +0.000 C 
ATOM      2  C   UNL     1       1.752   3.501  21.037  0.00  0.00    +0.000 A 
ATOM      3  C   UNL     1       1.119   4.706  20.727  0.00  0.00    +0.000 A 
ATOM      4  C   UNL     1       1.736   5.627  19.883  0.00  0.00    +0.000 A 
ATOM      5  C   UNL     1       3.005   5.371  19.324  0.00  0.00    +0.000 A 
ATOM      6  C   UNL     1       3.658   4.155  19.629  0.00  0.00    +0.000 A 
ATOM      7  C   UNL     1       3.015   3.235  20.489  0.00  0.00    +0.000 A 
ATOM      8  N   UNL     1       4.929   3.883  19.076  0.00  0.00    +0.000 N 
ATOM      9  O   UNL     1       5.537   2.793  19.350  0.00  0.00    +0.000 OA
ATOM     10  C   UNL     1       5.524   4.817  18.231  0.00  0.00    +0.000 A 
ATOM     11  C   UNL     1       4.884   6.036  17.953  0.00  0.00    +0.000 A 
ATOM     12  N   UNL     1       3.623   6.308  18.474  0.00  0.00    +0.000 N 
ATOM     13  O   UNL     1       3.034   7.403  18.179  0.00  0.00    +0.000 OA
ATOM     14  C   UNL     1       5.502   7.066  17.052  0.00  0.00    +0.000 C 
ATOM     15  C   UNL     1       7.017   6.903  16.957  0.00  0.00    +0.000 C 
ATOM     16  C   UNL     1       7.365   5.462  16.603  0.00  0.00    +0.000 C 
ATOM     17  C   UNL     1       6.894   4.497  17.694  0.00  0.00    +0.000 C 
ENDROOT
TORSDOF 0
ENDMDL
MODEL 6
REMARK VINA RESULT:      -6.4      1.835      5.532
REMARK  Name = 
REMARK  1 active torsions:
REMARK  status: ('A' for Active; 'I' for Inactive)
REMARK    1  A    between atoms: C_1  and  C_2
REMARK                            x       y       z     vdW  Elec       q    Type
REMARK                         _______ _______ _______ _____ _____    ______ ____
ROOT
ATOM      1  C   UNL     1       1.374   2.583  22.194  0.00  0.00    +0.000 C 
ATOM      2  C   UNL     1       1.870   2.841  20.802  0.00  0.00    +0.000 A 
ATOM      3  C   UNL     1       1.045   2.625  19.698  0.00  0.00    +0.000 A 
ATOM      4  C   UNL     1       1.518   2.863  18.409  0.00  0.00    +0.000 A 
ATOM      5  C   UNL     1       2.832   3.324  18.185  0.00  0.00    +0.000 A 
ATOM      6  C   UNL     1       3.679   3.549  19.294  0.00  0.00    +0.000 A 
ATOM      7  C   UNL     1       3.178   3.303  20.594  0.00  0.00    +0.000 A 
ATOM      8  N   UNL     1       4.998   4.011  19.087  0.00  0.00    +0.000 N 
ATOM      9  O   UNL     1       5.773   4.227  20.079  0.00  0.00    +0.000 OA
ATOM     10  C   UNL     1       5.451   4.236  17.790  0.00  0.00    +0.000 A 
ATOM     11  C   UNL     1       4.596   4.039  16.692  0.00  0.00    +0.000 A 
ATOM     12  N   UNL     1       3.302   3.565  16.880  0.00  0.00    +0.000 N 
ATOM     13  O   UNL     1       2.549   3.350  15.871  0.00  0.00    +0.000 OA
ATOM     14  C   UNL     1       5.051   4.280  15.282  0.00  0.00    +0.000 C 
ATOM     15  C   UNL     1       6.241   5.235  15.224  0.00  0.00    +0.000 C 
ATOM     16  C   UNL     1       7.337   4.759  16.170  0.00  0.00    +0.000 C 
ATOM     17  C   UNL     1       6.852   4.762  17.622  0.00  0.00    +0.000 C 
ENDROOT
TORSDOF 0
ENDMDL
MODEL 7
REMARK VINA RESULT:      -6.4      1.438      5.700
REMARK  Name = 
REMARK  1 active torsions:
REMARK  status: ('A' for Active; 'I' for Inactive)
REMARK    1  A    between atoms: C_1  and  C_2
REMARK                            x       y       z     vdW  Elec       q    Type
REMARK                         _______ _______ _______ _____ _____    ______ ____
ROOT
ATOM      1  C   UNL     1       0.793   7.858  21.365  0.00  0.00    +0.000 C 
ATOM      2  C   UNL     1       1.599   6.866  20.581  0.00  0.00    +0.000 A 
ATOM      3  C   UNL     1       1.652   5.525  20.965  0.00  0.00    +0.000 A 
ATOM      4  C   UNL     1       2.409   4.613  20.231  0.00  0.00    +0.000 A 
ATOM      5  C   UNL     1       3.136   5.015  19.092  0.00  0.00    +0.000 A 
ATOM      6  C   UNL     1       3.092   6.370  18.691  0.00  0.00    +0.000 A 
ATOM      7  C   UNL     1       2.316   7.278  19.448  0.00  0.00    +0.000 A 
ATOM      8  N   UNL     1       3.815   6.788  17.552  0.00  0.00    +0.000 N 
ATOM      9  O   UNL     1       3.778   8.007  17.171  0.00  0.00    +0.000 OA
ATOM     10  C   UNL     1       4.569   5.860  16.838  0.00  0.00    +0.000 A 
ATOM     11  C   UNL     1       4.588   4.509  17.224  0.00  0.00    +0.000 A 
ATOM     12  N   UNL     1       3.897   4.087  18.355  0.00  0.00    +0.000 N 
ATOM     13  O   UNL     1       3.956   2.864  18.719  0.00  0.00    +0.000 OA
ATOM     14  C   UNL     1       5.384   3.483  16.472  0.00  0.00    +0.000 C 
ATOM     15  C   UNL     1       5.667   3.923  15.037  0.00  0.00    +0.000 C 
ATOM     16  C   UNL     1       6.272   5.322  15.031  0.00  0.00    +0.000 C 
ATOM     17  C   UNL     1       5.295   6.348  15.612  0.00  0.00    +0.000 C 
ENDROOT
TORSDOF 0
ENDMDL
MODEL 8
REMARK VINA RESULT:      -6.3      2.710      5.563
REMARK  Name = 
REMARK  1 active torsions:
REMARK  status: ('A' for Active; 'I' for Inactive)
REMARK    1  A    between atoms: C_1  and  C_2
REMARK                            x       y       z     vdW  Elec       q    Type
REMARK                         _______ _______ _______ _____ _____    ______ ____
ROOT
ATOM      1  C   UNL     1      -0.322   9.204  22.323  0.00  0.00    +0.000 C 
ATOM      2  C   UNL     1       0.543   8.744  21.188  0.00  0.00    +0.000 A 
ATOM      3  C   UNL     1       0.791   9.577  20.096  0.00  0.00    +0.000 A 
ATOM      4  C   UNL     1       1.591   9.137  19.044  0.00  0.00    +0.000 A 
ATOM      5  C   UNL     1       2.168   7.851  19.051  0.00  0.00    +0.000 A 
ATOM      6  C   UNL     1       1.927   6.996  20.151  0.00  0.00    +0.000 A 
ATOM      7  C   UNL     1       1.113   7.463  21.209  0.00  0.00    +0.000 A 
ATOM      8  N   UNL     1       2.497   5.703  20.174  0.00  0.00    +0.000 N 
ATOM      9  O   UNL     1       2.295   4.922  21.164  0.00  0.00    +0.000 OA
ATOM     10  C   UNL     1       3.289   5.284  19.108  0.00  0.00    +0.000 A 
ATOM     11  C   UNL     1       3.550   6.147  18.031  0.00  0.00    +0.000 A 
ATOM     12  N   UNL     1       2.978   7.414  17.986  0.00  0.00    +0.000 N 
ATOM     13  O   UNL     1       3.189   8.174  16.980  0.00  0.00    +0.000 OA
ATOM     14  C   UNL     1       4.406   5.728  16.870  0.00  0.00    +0.000 C 
ATOM     15  C   UNL     1       5.347   4.585  17.243  0.00  0.00    +0.000 C 
ATOM     16  C   UNL     1       4.560   3.451  17.890  0.00  0.00    +0.000 C 
ATOM     17  C   UNL     1       3.903   3.911  19.194  0.00  0.00    +0.000 C 
ENDROOT
TORSDOF 0
ENDMDL
MODEL 9
REMARK VINA RESULT:      -6.3      2.453      4.064
REMARK  Name = 
REMARK  1 active torsions:
REMARK  status: ('A' for Active; 'I' for Inactive)
REMARK    1  A    between atoms: C_1  and  C_2
REMARK                            x       y       z     vdW  Elec       q    Type
REMARK                         _______ _______ _______ _____ _____    ______ ____
ROOT
ATOM      1  C   UNL     1       5.706   3.781  15.799  0.00  0.00    +0.000 C 
ATOM      2  C   UNL     1       4.851   4.281  16.926  0.00  0.00    +0.000 A 
ATOM      3  C   UNL     1       4.549   3.458  18.012  0.00  0.00    +0.000 A 
ATOM      4  C   UNL     1       3.748   3.931  19.050  0.00  0.00    +0.000 A 
ATOM      5  C   UNL     1       3.226   5.241  19.033  0.00  0.00    +0.000 A 
ATOM      6  C   UNL     1       3.525   6.086  17.940  0.00  0.00    +0.000 A 
ATOM      7  C   UNL     1       4.340   5.587  16.898  0.00  0.00    +0.000 A 
ATOM      8  N   UNL     1       3.009   7.401  17.908  0.00  0.00    +0.000 N 
ATOM      9  O   UNL     1       3.277   8.179  16.931  0.00  0.00    +0.000 OA
ATOM     10  C   UNL     1       2.207   7.849  18.954  0.00  0.00    +0.000 A 
ATOM     11  C   UNL     1       1.936   7.016  20.053  0.00  0.00    +0.000 A 
ATOM     12  N   UNL     1       2.420   5.712  20.087  0.00  0.00    +0.000 N 
ATOM     13  O   UNL     1       2.132   4.951  21.072  0.00  0.00    +0.000 OA
ATOM     14  C   UNL     1       1.082   7.472  21.200  0.00  0.00    +0.000 C 
ATOM     15  C   UNL     1       1.036   8.995  21.303  0.00  0.00    +0.000 C 
ATOM     16  C   UNL     1       0.659   9.598  19.955  0.00  0.00    +0.000 C 
ATOM     17  C   UNL     1       1.710   9.269  18.891  0.00  0.00    +0.000 C 
ENDROOT
TORSDOF 0
ENDMDL
