MODEL 1
REMARK VINA RESULT:      -8.2      0.000      0.000
REMARK  Name = 
REMARK  6 active torsions:
REMARK  status: ('A' for Active; 'I' for Inactive)
REMARK    1  A    between atoms: N_5  and  S_6
REMARK    2  A    between atoms: S_6  and  C_9
REMARK    3  A    between atoms: C_9  and  C_10
REMARK    4  A    between atoms: N_20  and  C_21
REMARK    5  A    between atoms: C_24  and  O_25
REMARK    6  A    between atoms: O_25  and  C_26
REMARK                            x       y       z     vdW  Elec       q    Type
REMARK                         _______ _______ _______ _____ _____    ______ ____
ROOT
ATOM      1  O   UNL     1       2.604   4.661  21.246  0.00  0.00    +0.000 OA
ATOM      2  C   UNL     1       2.826   4.658  20.035  0.00  0.00    +0.000 C 
ATOM      3  C   UNL     1       3.937   3.801  19.487  0.00  0.00    +0.000 C 
ATOM      4  C   UNL     1       5.183   4.668  19.357  0.00  0.00    +0.000 C 
ATOM      5  N   UNL     1       6.011   4.010  18.315  0.00  0.00    +0.000 NA
ATOM      6  C   UNL     1       5.172   2.969  17.645  0.00  0.00    +0.000 C 
ATOM      7  C   UNL     1       3.731   3.244  18.092  0.00  0.00    +0.000 C 
ATOM      8  C   UNL     1       3.027   4.216  17.145  0.00  0.00    +0.000 C 
ATOM      9  C   UNL     1       1.902   4.998  17.808  0.00  0.00    +0.000 C 
ATOM     10  N   UNL     1       2.275   5.545  19.109  0.00  0.00    +0.000 N 
ENDROOT
BRANCH  10  11
ATOM     11  C   UNL     1       1.916   6.878  19.496  0.00  0.00    +0.000 A 
ATOM     12  C   UNL     1       2.007   7.926  18.567  0.00  0.00    +0.000 A 
ATOM     13  C   UNL     1       1.591   9.222  18.882  0.00  0.00    +0.000 A 
ATOM     14  C   UNL     1       1.054   9.508  20.131  0.00  0.00    +0.000 A 
ATOM     15  C   UNL     1       0.990   8.493  21.081  0.00  0.00    +0.000 A 
ATOM     16  C   UNL     1       1.398   7.188  20.759  0.00  0.00    +0.000 A 
BRANCH  14  17
ATOM     17  O   UNL     1       0.701  10.807  20.316  0.00  0.00    +0.000 OA
BRANCH  17  18
ATOM     18  C   UNL     1      -0.653  11.199  20.144  0.00  0.00    +0.000 C 
ATOM     19  F   UNL     1      -0.819  12.388  19.525  0.00  0.00    +0.000 F 
ATOM     20  F   UNL     1      -1.300  10.250  19.436  0.00  0.00    +0.000 F 
ATOM     21  F   UNL     1      -1.233  11.285  21.363  0.00  0.00    +0.000 F 
ENDBRANCH  17  18
ENDBRANCH  14  17
ENDBRANCH  10  11
BRANCH   5  22
ATOM     22  S   UNL     1       6.887   5.045  17.274  0.00  0.00    +0.000 S 
ATOM     23  O   UNL     1       7.170   6.245  18.036  0.00  0.00    +0.000 OA
ATOM     24  O   UNL     1       7.958   4.251  16.699  0.00  0.00    +0.000 OA
BRANCH  22  25
ATOM     25  C   UNL     1       5.658   5.410  16.009  0.00  0.00    +0.000 C 
BRANCH  25  26
ATOM     26  C   UNL     1       6.166   4.936  14.670  0.00  0.00    +0.000 A 
ATOM     27  C   UNL     1       5.509   3.908  13.979  0.00  0.00    +0.000 A 
ATOM     28  C   UNL     1       5.990   3.463  12.746  0.00  0.00    +0.000 A 
ATOM     29  C   UNL     1       7.133   4.038  12.194  0.00  0.00    +0.000 A 
ATOM     30  C   UNL     1       7.795   5.059  12.875  0.00  0.00    +0.000 A 
ATOM     31  C   UNL     1       7.315   5.506  14.105  0.00  0.00    +0.000 A 
ENDBRANCH  25  26
ENDBRANCH  22  25
ENDBRANCH   5  22
TORSDOF 6
ENDMDL
MODEL 2
REMARK VINA RESULT:      -8.1      5.256     10.173
REMARK  Name = 
REMARK  6 active torsions:
REMARK  status: ('A' for Active; 'I' for Inactive)
REMARK    1  A    between atoms: N_5  and  S_6
REMARK    2  A    between atoms: S_6  and  C_9
REMARK    3  A    between atoms: C_9  and  C_10
REMARK    4  A    between atoms: N_20  and  C_21
REMARK    5  A    between atoms: C_24  and  O_25
REMARK    6  A    between atoms: O_25  and  C_26
REMARK                            x       y       z     vdW  Elec       q    Type
REMARK                         _______ _______ _______ _____ _____    ______ ____
ROOT
ATOM      1  O   UNL     1      -1.159  10.098  17.984  0.00  0.00    +0.000 OA
ATOM      2  C   UNL     1      -0.649  10.692  18.934  0.00  0.00    +0.000 C 
ATOM      3  C   UNL     1      -0.853  12.178  19.075  0.00  0.00    +0.000 C 
ATOM      4  C   UNL     1       0.344  12.881  18.447  0.00  0.00    +0.000 C 
ATOM      5  N   UNL     1       0.408  14.211  19.106  0.00  0.00    +0.000 NA
ATOM      6  C   UNL     1      -0.522  14.192  20.278  0.00  0.00    +0.000 C 
ATOM      7  C   UNL     1      -0.895  12.719  20.491  0.00  0.00    +0.000 C 
ATOM      8  C   UNL     1       0.084  12.027  21.438  0.00  0.00    +0.000 C 
ATOM      9  C   UNL     1       0.175  10.523  21.219  0.00  0.00    +0.000 C 
ATOM     10  N   UNL     1       0.295  10.157  19.811  0.00  0.00    +0.000 N 
ENDROOT
BRANCH  10  11
ATOM     11  C   UNL     1       1.210   9.143  19.372  0.00  0.00    +0.000 A 
ATOM     12  C   UNL     1       1.480   8.039  20.196  0.00  0.00    +0.000 A 
ATOM     13  C   UNL     1       2.302   6.992  19.771  0.00  0.00    +0.000 A 
ATOM     14  C   UNL     1       2.866   7.007  18.502  0.00  0.00    +0.000 A 
ATOM     15  C   UNL     1       2.644   8.110  17.683  0.00  0.00    +0.000 A 
ATOM     16  C   UNL     1       1.808   9.156  18.107  0.00  0.00    +0.000 A 
BRANCH  14  17
ATOM     17  O   UNL     1       3.656   5.939  18.216  0.00  0.00    +0.000 OA
BRANCH  17  18
ATOM     18  C   UNL     1       3.063   4.714  17.815  0.00  0.00    +0.000 C 
ATOM     19  F   UNL     1       1.763   4.809  17.461  0.00  0.00    +0.000 F 
ATOM     20  F   UNL     1       3.757   4.206  16.774  0.00  0.00    +0.000 F 
ATOM     21  F   UNL     1       3.146   3.839  18.843  0.00  0.00    +0.000 F 
ENDBRANCH  17  18
ENDBRANCH  14  17
ENDBRANCH  10  11
BRANCH   5  22
ATOM     22  S   UNL     1       1.969  14.838  19.403  0.00  0.00    +0.000 S 
ATOM     23  O   UNL     1       2.494  14.103  20.536  0.00  0.00    +0.000 OA
ATOM     24  O   UNL     1       2.665  14.848  18.128  0.00  0.00    +0.000 OA
BRANCH  22  25
ATOM     25  C   UNL     1       1.594  16.527  19.901  0.00  0.00    +0.000 C 
BRANCH  25  26
ATOM     26  C   UNL     1       0.950  17.254  18.747  0.00  0.00    +0.000 A 
ATOM     27  C   UNL     1       1.719  17.693  17.659  0.00  0.00    +0.000 A 
ATOM     28  C   UNL     1       1.121  18.376  16.599  0.00  0.00    +0.000 A 
ATOM     29  C   UNL     1      -0.250  18.630  16.617  0.00  0.00    +0.000 A 
ATOM     30  C   UNL     1      -1.022  18.201  17.695  0.00  0.00    +0.000 A 
ATOM     31  C   UNL     1      -0.427  17.516  18.753  0.00  0.00    +0.000 A 
ENDBRANCH  25  26
ENDBRANCH  22  25
ENDBRANCH   5  22
TORSDOF 6
ENDMDL
MODEL 3
REMARK VINA RESULT:      -8.1      5.222     10.824
REMARK  Name = 
REMARK  6 active torsions:
REMARK  status: ('A' for Active; 'I' for Inactive)
REMARK    1  A    between atoms: N_5  and  S_6
REMARK    2  A    between atoms: S_6  and  C_9
REMARK    3  A    between atoms: C_9  and  C_10
REMARK    4  A    between atoms: N_20  and  C_21
REMARK    5  A    between atoms: C_24  and  O_25
REMARK    6  A    between atoms: O_25  and  C_26
REMARK                            x       y       z     vdW  Elec       q    Type
REMARK                         _______ _______ _______ _____ _____    ______ ____
ROOT
ATOM      1  O   UNL     1       2.729  11.602  18.050  0.00  0.00    +0.000 OA
ATOM      2  C   UNL     1       1.541  11.546  18.368  0.00  0.00    +0.000 C 
ATOM      3  C   UNL     1       0.857  12.777  18.902  0.00  0.00    +0.000 C 
ATOM      4  C   UNL     1       0.904  12.722  20.423  0.00  0.00    +0.000 C 
ATOM      5  N   UNL     1      -0.232  13.562  20.881  0.00  0.00    +0.000 NA
ATOM      6  C   UNL     1      -1.093  13.863  19.695  0.00  0.00    +0.000 C 
ATOM      7  C   UNL     1      -0.619  12.917  18.585  0.00  0.00    +0.000 C 
ATOM      8  C   UNL     1      -1.378  11.591  18.619  0.00  0.00    +0.000 C 
ATOM      9  C   UNL     1      -0.595  10.430  18.021  0.00  0.00    +0.000 C 
ATOM     10  N   UNL     1       0.788  10.376  18.482  0.00  0.00    +0.000 N 
ENDROOT
BRANCH  10  11
ATOM     11  C   UNL     1       1.411   9.138  18.851  0.00  0.00    +0.000 A 
ATOM     12  C   UNL     1       1.367   8.700  20.184  0.00  0.00    +0.000 A 
ATOM     13  C   UNL     1       1.891   7.463  20.566  0.00  0.00    +0.000 A 
ATOM     14  C   UNL     1       2.461   6.616  19.625  0.00  0.00    +0.000 A 
ATOM     15  C   UNL     1       2.552   7.046  18.305  0.00  0.00    +0.000 A 
ATOM     16  C   UNL     1       2.014   8.284  17.919  0.00  0.00    +0.000 A 
BRANCH  14  17
ATOM     17  O   UNL     1       2.947   5.450  20.127  0.00  0.00    +0.000 OA
BRANCH  17  18
ATOM     18  C   UNL     1       2.048   4.412  20.487  0.00  0.00    +0.000 C 
ATOM     19  F   UNL     1       0.761   4.643  20.152  0.00  0.00    +0.000 F 
ATOM     20  F   UNL     1       2.447   3.261  19.903  0.00  0.00    +0.000 F 
ATOM     21  F   UNL     1       2.102   4.243  21.828  0.00  0.00    +0.000 F 
ENDBRANCH  17  18
ENDBRANCH  14  17
ENDBRANCH  10  11
BRANCH   5  22
ATOM     22  S   UNL     1      -1.053  13.030  22.283  0.00  0.00    +0.000 S 
ATOM     23  O   UNL     1      -0.278  11.930  22.817  0.00  0.00    +0.000 OA
ATOM     24  O   UNL     1      -1.327  14.213  23.081  0.00  0.00    +0.000 OA
BRANCH  22  25
ATOM     25  C   UNL     1      -2.591  12.402  21.586  0.00  0.00    +0.000 C 
BRANCH  25  26
ATOM     26  C   UNL     1      -3.707  12.607  22.579  0.00  0.00    +0.000 A 
ATOM     27  C   UNL     1      -3.567  12.187  23.910  0.00  0.00    +0.000 A 
ATOM     28  C   UNL     1      -4.608  12.368  24.822  0.00  0.00    +0.000 A 
ATOM     29  C   UNL     1      -5.799  12.966  24.414  0.00  0.00    +0.000 A 
ATOM     30  C   UNL     1      -5.949  13.384  23.092  0.00  0.00    +0.000 A 
ATOM     31  C   UNL     1      -4.910  13.207  22.180  0.00  0.00    +0.000 A 
ENDBRANCH  25  26
ENDBRANCH  22  25
ENDBRANCH   5  22
TORSDOF 6
ENDMDL
MODEL 4
REMARK VINA RESULT:      -8.0      0.557      1.355
REMARK  Name = 
REMARK  6 active torsions:
REMARK  status: ('A' for Active; 'I' for Inactive)
REMARK    1  A    between atoms: N_5  and  S_6
REMARK    2  A    between atoms: S_6  and  C_9
REMARK    3  A    between atoms: C_9  and  C_10
REMARK    4  A    between atoms: N_20  and  C_21
REMARK    5  A    between atoms: C_24  and  O_25
REMARK    6  A    between atoms: O_25  and  C_26
REMARK                            x       y       z     vdW  Elec       q    Type
REMARK                         _______ _______ _______ _____ _____    ______ ____
ROOT
ATOM      1  O   UNL     1       2.592   5.335  21.191  0.00  0.00    +0.000 OA
ATOM      2  C   UNL     1       2.836   5.145  20.000  0.00  0.00    +0.000 C 
ATOM      3  C   UNL     1       3.977   4.241  19.611  0.00  0.00    +0.000 C 
ATOM      4  C   UNL     1       5.204   5.110  19.362  0.00  0.00    +0.000 C 
ATOM      5  N   UNL     1       6.067   4.317  18.450  0.00  0.00    +0.000 NA
ATOM      6  C   UNL     1       5.265   3.161  17.942  0.00  0.00    +0.000 C 
ATOM      7  C   UNL     1       3.809   3.465  18.320  0.00  0.00    +0.000 C 
ATOM      8  C   UNL     1       3.101   4.254  17.220  0.00  0.00    +0.000 C 
ATOM      9  C   UNL     1       1.945   5.102  17.734  0.00  0.00    +0.000 C 
ATOM     10  N   UNL     1       2.281   5.859  18.936  0.00  0.00    +0.000 N 
ENDROOT
BRANCH  10  11
ATOM     11  C   UNL     1       1.883   7.227  19.101  0.00  0.00    +0.000 A 
ATOM     12  C   UNL     1       1.463   7.687  20.358  0.00  0.00    +0.000 A 
ATOM     13  C   UNL     1       1.144   9.030  20.577  0.00  0.00    +0.000 A 
ATOM     14  C   UNL     1       1.252   9.958  19.550  0.00  0.00    +0.000 A 
ATOM     15  C   UNL     1       1.629   9.517  18.286  0.00  0.00    +0.000 A 
ATOM     16  C   UNL     1       1.960   8.169  18.069  0.00  0.00    +0.000 A 
BRANCH  14  17
ATOM     17  O   UNL     1       0.899  11.226  19.888  0.00  0.00    +0.000 OA
BRANCH  17  18
ATOM     18  C   UNL     1      -0.344  11.751  19.446  0.00  0.00    +0.000 C 
ATOM     19  F   UNL     1      -0.300  12.362  18.243  0.00  0.00    +0.000 F 
ATOM     20  F   UNL     1      -1.249  10.751  19.390  0.00  0.00    +0.000 F 
ATOM     21  F   UNL     1      -0.773  12.658  20.353  0.00  0.00    +0.000 F 
ENDBRANCH  17  18
ENDBRANCH  14  17
ENDBRANCH  10  11
BRANCH   5  22
ATOM     22  S   UNL     1       6.936   5.196  17.270  0.00  0.00    +0.000 S 
ATOM     23  O   UNL     1       7.288   6.461  17.881  0.00  0.00    +0.000 OA
ATOM     24  O   UNL     1       7.958   4.303  16.752  0.00  0.00    +0.000 OA
BRANCH  22  25
ATOM     25  C   UNL     1       5.674   5.463  16.013  0.00  0.00    +0.000 C 
BRANCH  25  26
ATOM     26  C   UNL     1       6.177   4.954  14.686  0.00  0.00    +0.000 A 
ATOM     27  C   UNL     1       7.342   5.482  14.112  0.00  0.00    +0.000 A 
ATOM     28  C   UNL     1       7.797   5.016  12.877  0.00  0.00    +0.000 A 
ATOM     29  C   UNL     1       7.091   4.021  12.204  0.00  0.00    +0.000 A 
ATOM     30  C   UNL     1       5.930   3.492  12.765  0.00  0.00    +0.000 A 
ATOM     31  C   UNL     1       5.475   3.953  13.999  0.00  0.00    +0.000 A 
ENDBRANCH  25  26
ENDBRANCH  22  25
ENDBRANCH   5  22
TORSDOF 6
ENDMDL
MODEL 5
REMARK VINA RESULT:      -7.9      5.254     10.110
REMARK  Name = 
REMARK  6 active torsions:
REMARK  status: ('A' for Active; 'I' for Inactive)
REMARK    1  A    between atoms: N_5  and  S_6
REMARK    2  A    between atoms: S_6  and  C_9
REMARK    3  A    between atoms: C_9  and  C_10
REMARK    4  A    between atoms: N_20  and  C_21
REMARK    5  A    between atoms: C_24  and  O_25
REMARK    6  A    between atoms: O_25  and  C_26
REMARK                            x       y       z     vdW  Elec       q    Type
REMARK                         _______ _______ _______ _____ _____    ______ ____
ROOT
ATOM      1  O   UNL     1      -1.274  10.129  18.026  0.00  0.00    +0.000 OA
ATOM      2  C   UNL     1      -0.746  10.736  18.957  0.00  0.00    +0.000 C 
ATOM      3  C   UNL     1      -0.882  12.235  19.037  0.00  0.00    +0.000 C 
ATOM      4  C   UNL     1       0.351  12.856  18.395  0.00  0.00    +0.000 C 
ATOM      5  N   UNL     1       0.470  14.207  19.001  0.00  0.00    +0.000 NA
ATOM      6  C   UNL     1      -0.470  14.277  20.163  0.00  0.00    +0.000 C 
ATOM      7  C   UNL     1      -0.912  12.833  20.430  0.00  0.00    +0.000 C 
ATOM      8  C   UNL     1       0.025  12.135  21.414  0.00  0.00    +0.000 C 
ATOM      9  C   UNL     1       0.049  10.621  21.256  0.00  0.00    +0.000 C 
ATOM     10  N   UNL     1       0.165  10.194  19.865  0.00  0.00    +0.000 N 
ENDROOT
BRANCH  10  11
ATOM     11  C   UNL     1       1.036   9.123  19.476  0.00  0.00    +0.000 A 
ATOM     12  C   UNL     1       1.671   9.156  18.225  0.00  0.00    +0.000 A 
ATOM     13  C   UNL     1       2.587   8.173  17.843  0.00  0.00    +0.000 A 
ATOM     14  C   UNL     1       2.911   7.135  18.707  0.00  0.00    +0.000 A 
ATOM     15  C   UNL     1       2.264   7.060  19.936  0.00  0.00    +0.000 A 
ATOM     16  C   UNL     1       1.351   8.055  20.324  0.00  0.00    +0.000 A 
BRANCH  14  17
ATOM     17  O   UNL     1       3.803   6.237  18.211  0.00  0.00    +0.000 OA
BRANCH  17  18
ATOM     18  C   UNL     1       3.367   4.931  17.864  0.00  0.00    +0.000 C 
ATOM     19  F   UNL     1       4.042   4.367  16.839  0.00  0.00    +0.000 F 
ATOM     20  F   UNL     1       3.474   4.129  18.945  0.00  0.00    +0.000 F 
ATOM     21  F   UNL     1       2.062   4.994  17.514  0.00  0.00    +0.000 F 
ENDBRANCH  17  18
ENDBRANCH  14  17
ENDBRANCH  10  11
BRANCH   5  22
ATOM     22  S   UNL     1       2.056  14.773  19.290  0.00  0.00    +0.000 S 
ATOM     23  O   UNL     1       2.563  14.012  20.413  0.00  0.00    +0.000 OA
ATOM     24  O   UNL     1       2.742  14.768  18.009  0.00  0.00    +0.000 OA
BRANCH  22  25
ATOM     25  C   UNL     1       1.748  16.472  19.803  0.00  0.00    +0.000 C 
BRANCH  25  26
ATOM     26  C   UNL     1       1.078  17.218  18.677  0.00  0.00    +0.000 A 
ATOM     27  C   UNL     1       1.813  17.632  17.556  0.00  0.00    +0.000 A 
ATOM     28  C   UNL     1       1.191  18.333  16.522  0.00  0.00    +0.000 A 
ATOM     29  C   UNL     1      -0.169  18.630  16.598  0.00  0.00    +0.000 A 
ATOM     30  C   UNL     1      -0.907  18.225  17.709  0.00  0.00    +0.000 A 
ATOM     31  C   UNL     1      -0.289  17.523  18.742  0.00  0.00    +0.000 A 
ENDBRANCH  25  26
ENDBRANCH  22  25
ENDBRANCH   5  22
TORSDOF 6
ENDMDL
MODEL 6
REMARK VINA RESULT:      -7.9      0.453      1.210
REMARK  Name = 
REMARK  6 active torsions:
REMARK  status: ('A' for Active; 'I' for Inactive)
REMARK    1  A    between atoms: N_5  and  S_6
REMARK    2  A    between atoms: S_6  and  C_9
REMARK    3  A    between atoms: C_9  and  C_10
REMARK    4  A    between atoms: N_20  and  C_21
REMARK    5  A    between atoms: C_24  and  O_25
REMARK    6  A    between atoms: O_25  and  C_26
REMARK                            x       y       z     vdW  Elec       q    Type
REMARK                         _______ _______ _______ _____ _____    ______ ____
ROOT
ATOM      1  O   UNL     1       2.617   5.060  21.241  0.00  0.00    +0.000 OA
ATOM      2  C   UNL     1       2.831   4.930  20.036  0.00  0.00    +0.000 C 
ATOM      3  C   UNL     1       3.955   4.041  19.573  0.00  0.00    +0.000 C 
ATOM      4  C   UNL     1       5.182   4.913  19.339  0.00  0.00    +0.000 C 
ATOM      5  N   UNL     1       6.016   4.162  18.366  0.00  0.00    +0.000 NA
ATOM      6  C   UNL     1       5.193   3.039  17.820  0.00  0.00    +0.000 C 
ATOM      7  C   UNL     1       3.750   3.333  18.249  0.00  0.00    +0.000 C 
ATOM      8  C   UNL     1       3.021   4.183  17.209  0.00  0.00    +0.000 C 
ATOM      9  C   UNL     1       1.884   5.010  17.794  0.00  0.00    +0.000 C 
ATOM     10  N   UNL     1       2.256   5.702  19.025  0.00  0.00    +0.000 N 
ENDROOT
BRANCH  10  11
ATOM     11  C   UNL     1       1.872   7.062  19.270  0.00  0.00    +0.000 A 
ATOM     12  C   UNL     1       1.432   7.447  20.546  0.00  0.00    +0.000 A 
ATOM     13  C   UNL     1       1.127   8.777  20.845  0.00  0.00    +0.000 A 
ATOM     14  C   UNL     1       1.268   9.767  19.882  0.00  0.00    +0.000 A 
ATOM     15  C   UNL     1       1.665   9.403  18.600  0.00  0.00    +0.000 A 
ATOM     16  C   UNL     1       1.983   8.068  18.303  0.00  0.00    +0.000 A 
BRANCH  14  17
ATOM     17  O   UNL     1       0.925  11.017  20.294  0.00  0.00    +0.000 OA
BRANCH  17  18
ATOM     18  C   UNL     1      -0.257  11.622  19.793  0.00  0.00    +0.000 C 
ATOM     19  F   UNL     1      -1.331  10.804  19.748  0.00  0.00    +0.000 F 
ATOM     20  F   UNL     1      -0.562  12.693  20.556  0.00  0.00    +0.000 F 
ATOM     21  F   UNL     1      -0.016  12.056  18.535  0.00  0.00    +0.000 F 
ENDBRANCH  17  18
ENDBRANCH  14  17
ENDBRANCH  10  11
BRANCH   5  22
ATOM     22  S   UNL     1       6.863   5.096  17.212  0.00  0.00    +0.000 S 
ATOM     23  O   UNL     1       7.162   6.361  17.851  0.00  0.00    +0.000 OA
ATOM     24  O   UNL     1       7.923   4.251  16.688  0.00  0.00    +0.000 OA
BRANCH  22  25
ATOM     25  C   UNL     1       5.604   5.340  15.949  0.00  0.00    +0.000 C 
BRANCH  25  26
ATOM     26  C   UNL     1       6.141   4.885  14.615  0.00  0.00    +0.000 A 
ATOM     27  C   UNL     1       5.504   3.862  13.898  0.00  0.00    +0.000 A 
ATOM     28  C   UNL     1       6.013   3.436  12.670  0.00  0.00    +0.000 A 
ATOM     29  C   UNL     1       7.163   4.025  12.149  0.00  0.00    +0.000 A 
ATOM     30  C   UNL     1       7.805   5.040  12.855  0.00  0.00    +0.000 A 
ATOM     31  C   UNL     1       7.298   5.470  14.081  0.00  0.00    +0.000 A 
ENDBRANCH  25  26
ENDBRANCH  22  25
ENDBRANCH   5  22
TORSDOF 6
ENDMDL
MODEL 7
REMARK VINA RESULT:      -7.9      5.103      9.430
REMARK  Name = 
REMARK  6 active torsions:
REMARK  status: ('A' for Active; 'I' for Inactive)
REMARK    1  A    between atoms: N_5  and  S_6
REMARK    2  A    between atoms: S_6  and  C_9
REMARK    3  A    between atoms: C_9  and  C_10
REMARK    4  A    between atoms: N_20  and  C_21
REMARK    5  A    between atoms: C_24  and  O_25
REMARK    6  A    between atoms: O_25  and  C_26
REMARK                            x       y       z     vdW  Elec       q    Type
REMARK                         _______ _______ _______ _____ _____    ______ ____
ROOT
ATOM      1  O   UNL     1      -1.763  10.253  18.415  0.00  0.00    +0.000 OA
ATOM      2  C   UNL     1      -1.240  10.898  19.323  0.00  0.00    +0.000 C 
ATOM      3  C   UNL     1      -1.566  12.361  19.478  0.00  0.00    +0.000 C 
ATOM      4  C   UNL     1      -0.489  13.164  18.761  0.00  0.00    +0.000 C 
ATOM      5  N   UNL     1      -0.497  14.499  19.412  0.00  0.00    +0.000 NA
ATOM      6  C   UNL     1      -1.330  14.405  20.651  0.00  0.00    +0.000 C 
ATOM      7  C   UNL     1      -1.551  12.906  20.893  0.00  0.00    +0.000 C 
ATOM      8  C   UNL     1      -0.445  12.312  21.764  0.00  0.00    +0.000 C 
ATOM      9  C   UNL     1      -0.234  10.821  21.539  0.00  0.00    +0.000 C 
ATOM     10  N   UNL     1      -0.187  10.457  20.126  0.00  0.00    +0.000 N 
ENDROOT
BRANCH  10  11
ATOM     11  C   UNL     1       0.780   9.527  19.620  0.00  0.00    +0.000 A 
ATOM     12  C   UNL     1       1.207   8.455  20.420  0.00  0.00    +0.000 A 
ATOM     13  C   UNL     1       2.086   7.484  19.934  0.00  0.00    +0.000 A 
ATOM     14  C   UNL     1       2.553   7.544  18.627  0.00  0.00    +0.000 A 
ATOM     15  C   UNL     1       2.174   8.619  17.829  0.00  0.00    +0.000 A 
ATOM     16  C   UNL     1       1.281   9.588  18.314  0.00  0.00    +0.000 A 
BRANCH  14  17
ATOM     17  O   UNL     1       3.412   6.549  18.282  0.00  0.00    +0.000 OA
BRANCH  17  18
ATOM     18  C   UNL     1       2.911   5.247  18.019  0.00  0.00    +0.000 C 
ATOM     19  F   UNL     1       2.978   4.397  19.066  0.00  0.00    +0.000 F 
ATOM     20  F   UNL     1       1.624   5.342  17.621  0.00  0.00    +0.000 F 
ATOM     21  F   UNL     1       3.626   4.709  17.005  0.00  0.00    +0.000 F 
ENDBRANCH  17  18
ENDBRANCH  14  17
ENDBRANCH  10  11
BRANCH   5  22
ATOM     22  S   UNL     1       1.020  15.267  19.591  0.00  0.00    +0.000 S 
ATOM     23  O   UNL     1       1.161  16.157  18.457  0.00  0.00    +0.000 OA
ATOM     24  O   UNL     1       1.076  15.771  20.952  0.00  0.00    +0.000 OA
BRANCH  22  25
ATOM     25  C   UNL     1       2.153  13.878  19.412  0.00  0.00    +0.000 C 
BRANCH  25  26
ATOM     26  C   UNL     1       3.562  14.399  19.288  0.00  0.00    +0.000 A 
ATOM     27  C   UNL     1       4.184  14.488  18.034  0.00  0.00    +0.000 A 
ATOM     28  C   UNL     1       5.493  14.959  17.924  0.00  0.00    +0.000 A 
ATOM     29  C   UNL     1       6.195  15.343  19.066  0.00  0.00    +0.000 A 
ATOM     30  C   UNL     1       5.587  15.255  20.317  0.00  0.00    +0.000 A 
ATOM     31  C   UNL     1       4.278  14.788  20.429  0.00  0.00    +0.000 A 
ENDBRANCH  25  26
ENDBRANCH  22  25
ENDBRANCH   5  22
TORSDOF 6
ENDMDL
MODEL 8
REMARK VINA RESULT:      -7.9      0.385      1.472
REMARK  Name = 
REMARK  6 active torsions:
REMARK  status: ('A' for Active; 'I' for Inactive)
REMARK    1  A    between atoms: N_5  and  S_6
REMARK    2  A    between atoms: S_6  and  C_9
REMARK    3  A    between atoms: C_9  and  C_10
REMARK    4  A    between atoms: N_20  and  C_21
REMARK    5  A    between atoms: C_24  and  O_25
REMARK    6  A    between atoms: O_25  and  C_26
REMARK                            x       y       z     vdW  Elec       q    Type
REMARK                         _______ _______ _______ _____ _____    ______ ____
ROOT
ATOM      1  O   UNL     1       2.585   4.870  21.263  0.00  0.00    +0.000 OA
ATOM      2  C   UNL     1       2.809   4.809  20.054  0.00  0.00    +0.000 C 
ATOM      3  C   UNL     1       3.946   3.958  19.551  0.00  0.00    +0.000 C 
ATOM      4  C   UNL     1       5.165   4.855  19.376  0.00  0.00    +0.000 C 
ATOM      5  N   UNL     1       6.014   4.168  18.369  0.00  0.00    +0.000 NA
ATOM      6  C   UNL     1       5.207   3.069  17.755  0.00  0.00    +0.000 C 
ATOM      7  C   UNL     1       3.758   3.323  18.188  0.00  0.00    +0.000 C 
ATOM      8  C   UNL     1       3.027   4.223  17.191  0.00  0.00    +0.000 C 
ATOM      9  C   UNL     1       1.878   5.005  17.812  0.00  0.00    +0.000 C 
ATOM     10  N   UNL     1       2.233   5.630  19.083  0.00  0.00    +0.000 N 
ENDROOT
BRANCH  10  11
ATOM     11  C   UNL     1       1.834   6.970  19.400  0.00  0.00    +0.000 A 
ATOM     12  C   UNL     1       1.426   7.290  20.705  0.00  0.00    +0.000 A 
ATOM     13  C   UNL     1       1.107   8.599  21.073  0.00  0.00    +0.000 A 
ATOM     14  C   UNL     1       1.201   9.634  20.152  0.00  0.00    +0.000 A 
ATOM     15  C   UNL     1       1.565   9.335  18.842  0.00  0.00    +0.000 A 
ATOM     16  C   UNL     1       1.897   8.020  18.477  0.00  0.00    +0.000 A 
BRANCH  14  17
ATOM     17  O   UNL     1       0.849  10.857  20.629  0.00  0.00    +0.000 OA
BRANCH  17  18
ATOM     18  C   UNL     1      -0.517  11.143  20.889  0.00  0.00    +0.000 C 
ATOM     19  F   UNL     1      -1.006  10.577  22.013  0.00  0.00    +0.000 F 
ATOM     20  F   UNL     1      -0.679  12.481  20.974  0.00  0.00    +0.000 F 
ATOM     21  F   UNL     1      -1.254  10.695  19.847  0.00  0.00    +0.000 F 
ENDBRANCH  17  18
ENDBRANCH  14  17
ENDBRANCH  10  11
BRANCH   5  22
ATOM     22  S   UNL     1       6.860   5.173  17.275  0.00  0.00    +0.000 S 
ATOM     23  O   UNL     1       7.112   6.416  17.975  0.00  0.00    +0.000 OA
ATOM     24  O   UNL     1       7.952   4.380  16.738  0.00  0.00    +0.000 OA
BRANCH  22  25
ATOM     25  C   UNL     1       5.620   5.441  15.997  0.00  0.00    +0.000 C 
BRANCH  25  26
ATOM     26  C   UNL     1       6.151   4.941  14.677  0.00  0.00    +0.000 A 
ATOM     27  C   UNL     1       7.301   5.506  14.107  0.00  0.00    +0.000 A 
ATOM     28  C   UNL     1       7.781   5.048  12.879  0.00  0.00    +0.000 A 
ATOM     29  C   UNL     1       7.116   4.024  12.207  0.00  0.00    +0.000 A 
ATOM     30  C   UNL     1       5.970   3.458  12.764  0.00  0.00    +0.000 A 
ATOM     31  C   UNL     1       5.490   3.912  13.992  0.00  0.00    +0.000 A 
ENDBRANCH  25  26
ENDBRANCH  22  25
ENDBRANCH   5  22
TORSDOF 6
ENDMDL
MODEL 9
REMARK VINA RESULT:      -7.9      1.255      1.707
REMARK  Name = 
REMARK  6 active torsions:
REMARK  status: ('A' for Active; 'I' for Inactive)
REMARK    1  A    between atoms: N_5  and  S_6
REMARK    2  A    between atoms: S_6  and  C_9
REMARK    3  A    between atoms: C_9  and  C_10
REMARK    4  A    between atoms: N_20  and  C_21
REMARK    5  A    between atoms: C_24  and  O_25
REMARK    6  A    between atoms: O_25  and  C_26
REMARK                            x       y       z     vdW  Elec       q    Type
REMARK                         _______ _______ _______ _____ _____    ______ ____
ROOT
ATOM      1  O   UNL     1       2.651   5.770  21.221  0.00  0.00    +0.000 OA
ATOM      2  C   UNL     1       2.846   5.464  20.045  0.00  0.00    +0.000 C 
ATOM      3  C   UNL     1       3.937   4.482  19.704  0.00  0.00    +0.000 C 
ATOM      4  C   UNL     1       5.188   5.273  19.340  0.00  0.00    +0.000 C 
ATOM      5  N   UNL     1       5.987   4.366  18.477  0.00  0.00    +0.000 NA
ATOM      6  C   UNL     1       5.123   3.203  18.102  0.00  0.00    +0.000 C 
ATOM      7  C   UNL     1       3.695   3.601  18.495  0.00  0.00    +0.000 C 
ATOM      8  C   UNL     1       2.980   4.318  17.351  0.00  0.00    +0.000 C 
ATOM      9  C   UNL     1       1.877   5.256  17.821  0.00  0.00    +0.000 C 
ATOM     10  N   UNL     1       2.283   6.102  18.938  0.00  0.00    +0.000 N 
ENDROOT
BRANCH  10  11
ATOM     11  C   UNL     1       1.945   7.495  18.991  0.00  0.00    +0.000 A 
ATOM     12  C   UNL     1       2.125   8.303  17.857  0.00  0.00    +0.000 A 
ATOM     13  C   UNL     1       1.733   9.644  17.843  0.00  0.00    +0.000 A 
ATOM     14  C   UNL     1       1.132  10.215  18.958  0.00  0.00    +0.000 A 
ATOM     15  C   UNL     1       0.980   9.444  20.106  0.00  0.00    +0.000 A 
ATOM     16  C   UNL     1       1.363   8.094  20.115  0.00  0.00    +0.000 A 
BRANCH  14  17
ATOM     17  O   UNL     1       0.811  11.529  18.822  0.00  0.00    +0.000 OA
BRANCH  17  18
ATOM     18  C   UNL     1       1.608  12.516  19.459  0.00  0.00    +0.000 C 
ATOM     19  F   UNL     1       1.042  13.741  19.520  0.00  0.00    +0.000 F 
ATOM     20  F   UNL     1       1.893  12.110  20.715  0.00  0.00    +0.000 F 
ATOM     21  F   UNL     1       2.771  12.633  18.780  0.00  0.00    +0.000 F 
ENDBRANCH  17  18
ENDBRANCH  14  17
ENDBRANCH  10  11
BRANCH   5  22
ATOM     22  S   UNL     1       6.848   5.099  17.196  0.00  0.00    +0.000 S 
ATOM     23  O   UNL     1       7.203   6.427  17.652  0.00  0.00    +0.000 OA
ATOM     24  O   UNL     1       7.868   4.150  16.782  0.00  0.00    +0.000 OA
BRANCH  22  25
ATOM     25  C   UNL     1       5.578   5.215  15.925  0.00  0.00    +0.000 C 
BRANCH  25  26
ATOM     26  C   UNL     1       6.169   4.826  14.594  0.00  0.00    +0.000 A 
ATOM     27  C   UNL     1       7.332   5.450  14.117  0.00  0.00    +0.000 A 
ATOM     28  C   UNL     1       7.868   5.094  12.878  0.00  0.00    +0.000 A 
ATOM     29  C   UNL     1       7.248   4.116  12.103  0.00  0.00    +0.000 A 
ATOM     30  C   UNL     1       6.091   3.492  12.567  0.00  0.00    +0.000 A 
ATOM     31  C   UNL     1       5.555   3.843  13.805  0.00  0.00    +0.000 A 
ENDBRANCH  25  26
ENDBRANCH  22  25
ENDBRANCH   5  22
TORSDOF 6
ENDMDL
