MODEL 1
REMARK VINA RESULT:      -8.6      0.000      0.000
REMARK  Name = 
REMARK  6 active torsions:
REMARK  status: ('A' for Active; 'I' for Inactive)
REMARK    1  A    between atoms: C_1  and  C_2
REMARK    2  A    between atoms: C_7  and  C_8
REMARK    3  A    between atoms: C_8  and  O_9
REMARK    4  A    between atoms: C_13  and  C_15
REMARK    5  A    between atoms: C_15  and  C_16
REMARK    6  A    between atoms: C_16  and  C_17
REMARK                            x       y       z     vdW  Elec       q    Type
REMARK                         _______ _______ _______ _____ _____    ______ ____
ROOT
ATOM      1  C   UNL     1       4.737   4.091  18.615  0.00  0.00    +0.000 C 
ATOM      2  C   UNL     1       4.821   3.695  17.122  0.00  0.00    +0.000 C 
ATOM      3  C   UNL     1       6.160   4.253  16.669  0.00  0.00    +0.000 C 
ATOM      4  N   UNL     1       6.260   5.505  17.383  0.00  0.00    +0.000 N 
ATOM      5  C   UNL     1       7.004   6.555  16.895  0.00  0.00    +0.000 C 
ATOM      6  O   UNL     1       7.649   6.463  15.844  0.00  0.00    +0.000 OA
ATOM      7  C   UNL     1       5.488   5.451  18.628  0.00  0.00    +0.000 C 
ENDROOT
BRANCH   1  14
ATOM      8  C   UNL     1       2.708   1.779  18.452  0.00  0.00    +0.000 C 
ATOM      9  C   UNL     1       2.408   3.081  19.150  0.00  0.00    +0.000 A 
ATOM     10  C   UNL     1       1.132   3.208  19.740  0.00  0.00    +0.000 A 
ATOM     11  C   UNL     1       0.758   4.363  20.418  0.00  0.00    +0.000 A 
ATOM     12  C   UNL     1       1.654   5.413  20.518  0.00  0.00    +0.000 A 
ATOM     13  C   UNL     1       2.919   5.311  19.933  0.00  0.00    +0.000 A 
ATOM     14  C   UNL     1       3.338   4.152  19.240  0.00  0.00    +0.000 A 
ENDBRANCH   1  14
BRANCH   1  15
ATOM     15  O   UNL     1       5.507   3.105  19.322  0.00  0.00    +0.000 OA
ATOM     16  H   UNL     1       6.012   2.613  18.650  0.00  0.00    +0.000 HD
ENDBRANCH   1  15
BRANCH   5  17
ATOM     17  C   UNL     1       7.023   7.824  17.729  0.00  0.00    +0.000 C 
BRANCH  17  18
ATOM     18  C   UNL     1       8.394   8.026  18.363  0.00  0.00    +0.000 C 
BRANCH  18  19
ATOM     19  C   UNL     1       8.739   9.464  18.534  0.00  0.00    +0.000 A 
ATOM     20  C   UNL     1       8.466  10.518  17.688  0.00  0.00    +0.000 A 
ATOM     21  N   UNL     1       8.966  11.633  18.310  0.00  0.00    +0.000 N 
ATOM     22  C   UNL     1       8.957  12.961  17.889  0.00  0.00    +0.000 A 
ATOM     23  C   UNL     1       9.509  13.901  18.676  0.00  0.00    +0.000 A 
ATOM     24  C   UNL     1      10.096  13.495  19.946  0.00  0.00    +0.000 A 
ATOM     25  C   UNL     1      10.101  12.207  20.344  0.00  0.00    +0.000 A 
ATOM     26  C   UNL     1       9.520  11.208  19.511  0.00  0.00    +0.000 A 
ATOM     27  N   UNL     1       9.396   9.905  19.662  0.00  0.00    +0.000 NA
ENDBRANCH  18  19
ENDBRANCH  17  18
ENDBRANCH   5  17
TORSDOF 5
ENDMDL
MODEL 2
REMARK VINA RESULT:      -8.6      0.554      1.168
REMARK  Name = 
REMARK  6 active torsions:
REMARK  status: ('A' for Active; 'I' for Inactive)
REMARK    1  A    between atoms: C_1  and  C_2
REMARK    2  A    between atoms: C_7  and  C_8
REMARK    3  A    between atoms: C_8  and  O_9
REMARK    4  A    between atoms: C_13  and  C_15
REMARK    5  A    between atoms: C_15  and  C_16
REMARK    6  A    between atoms: C_16  and  C_17
REMARK                            x       y       z     vdW  Elec       q    Type
REMARK                         _______ _______ _______ _____ _____    ______ ____
ROOT
ATOM      1  C   UNL     1       4.718   4.013  18.599  0.00  0.00    +0.000 C 
ATOM      2  C   UNL     1       4.821   3.550  17.127  0.00  0.00    +0.000 C 
ATOM      3  C   UNL     1       6.159   4.102  16.661  0.00  0.00    +0.000 C 
ATOM      4  N   UNL     1       6.237   5.386  17.318  0.00  0.00    +0.000 N 
ATOM      5  C   UNL     1       6.974   6.421  16.789  0.00  0.00    +0.000 C 
ATOM      6  O   UNL     1       7.631   6.289  15.750  0.00  0.00    +0.000 OA
ATOM      7  C   UNL     1       5.453   5.382  18.556  0.00  0.00    +0.000 C 
ENDROOT
BRANCH   1  14
ATOM      8  C   UNL     1       2.614   1.787  18.271  0.00  0.00    +0.000 C 
ATOM      9  C   UNL     1       2.347   3.056  19.041  0.00  0.00    +0.000 A 
ATOM     10  C   UNL     1       1.067   3.193  19.619  0.00  0.00    +0.000 A 
ATOM     11  C   UNL     1       0.721   4.319  20.359  0.00  0.00    +0.000 A 
ATOM     12  C   UNL     1       1.652   5.329  20.533  0.00  0.00    +0.000 A 
ATOM     13  C   UNL     1       2.921   5.217  19.961  0.00  0.00    +0.000 A 
ATOM     14  C   UNL     1       3.311   4.087  19.207  0.00  0.00    +0.000 A 
ENDBRANCH   1  14
BRANCH   1  15
ATOM     15  O   UNL     1       5.491   3.070  19.358  0.00  0.00    +0.000 OA
ATOM     16  H   UNL     1       4.930   2.283  19.479  0.00  0.00    +0.000 HD
ENDBRANCH   1  15
BRANCH   5  17
ATOM     17  C   UNL     1       6.971   7.728  17.564  0.00  0.00    +0.000 C 
BRANCH  17  18
ATOM     18  C   UNL     1       8.284   7.906  18.316  0.00  0.00    +0.000 C 
BRANCH  18  19
ATOM     19  C   UNL     1       8.639   9.338  18.514  0.00  0.00    +0.000 A 
ATOM     20  C   UNL     1       9.379   9.907  19.529  0.00  0.00    +0.000 A 
ATOM     21  N   UNL     1       9.440  11.245  19.241  0.00  0.00    +0.000 N 
ATOM     22  C   UNL     1      10.066  12.275  19.941  0.00  0.00    +0.000 A 
ATOM     23  C   UNL     1       9.998  13.529  19.460  0.00  0.00    +0.000 A 
ATOM     24  C   UNL     1       9.272  13.766  18.220  0.00  0.00    +0.000 A 
ATOM     25  C   UNL     1       8.668  12.764  17.550  0.00  0.00    +0.000 A 
ATOM     26  C   UNL     1       8.736  11.434  18.058  0.00  0.00    +0.000 A 
ATOM     27  N   UNL     1       8.243  10.298  17.607  0.00  0.00    +0.000 NA
ENDBRANCH  18  19
ENDBRANCH  17  18
ENDBRANCH   5  17
TORSDOF 5
ENDMDL
MODEL 3
REMARK VINA RESULT:      -8.4      0.943      1.826
REMARK  Name = 
REMARK  6 active torsions:
REMARK  status: ('A' for Active; 'I' for Inactive)
REMARK    1  A    between atoms: C_1  and  C_2
REMARK    2  A    between atoms: C_7  and  C_8
REMARK    3  A    between atoms: C_8  and  O_9
REMARK    4  A    between atoms: C_13  and  C_15
REMARK    5  A    between atoms: C_15  and  C_16
REMARK    6  A    between atoms: C_16  and  C_17
REMARK                            x       y       z     vdW  Elec       q    Type
REMARK                         _______ _______ _______ _____ _____    ______ ____
ROOT
ATOM      1  C   UNL     1       4.791   3.999  18.670  0.00  0.00    +0.000 C 
ATOM      2  C   UNL     1       4.630   3.873  17.137  0.00  0.00    +0.000 C 
ATOM      3  C   UNL     1       5.995   4.259  16.591  0.00  0.00    +0.000 C 
ATOM      4  N   UNL     1       6.419   5.322  17.473  0.00  0.00    +0.000 N 
ATOM      5  C   UNL     1       7.298   6.295  17.056  0.00  0.00    +0.000 C 
ATOM      6  O   UNL     1       7.793   6.284  15.923  0.00  0.00    +0.000 OA
ATOM      7  C   UNL     1       5.794   5.180  18.791  0.00  0.00    +0.000 C 
ENDROOT
BRANCH   1  14
ATOM      8  C   UNL     1       3.052   6.537  18.520  0.00  0.00    +0.000 C 
ATOM      9  C   UNL     1       2.720   5.371  19.416  0.00  0.00    +0.000 A 
ATOM     10  C   UNL     1       1.556   5.487  20.206  0.00  0.00    +0.000 A 
ATOM     11  C   UNL     1       1.153   4.465  21.060  0.00  0.00    +0.000 A 
ATOM     12  C   UNL     1       1.908   3.308  21.138  0.00  0.00    +0.000 A 
ATOM     13  C   UNL     1       3.069   3.178  20.371  0.00  0.00    +0.000 A 
ATOM     14  C   UNL     1       3.509   4.192  19.490  0.00  0.00    +0.000 A 
ENDBRANCH   1  14
BRANCH   1  15
ATOM     15  O   UNL     1       5.423   2.781  19.095  0.00  0.00    +0.000 OA
ATOM     16  H   UNL     1       4.718   2.112  19.165  0.00  0.00    +0.000 HD
ENDBRANCH   1  15
BRANCH   5  17
ATOM     17  C   UNL     1       7.661   7.368  18.069  0.00  0.00    +0.000 C 
BRANCH  17  18
ATOM     18  C   UNL     1       7.430   8.756  17.482  0.00  0.00    +0.000 C 
BRANCH  18  19
ATOM     19  C   UNL     1       8.314   9.787  18.091  0.00  0.00    +0.000 A 
ATOM     20  C   UNL     1       9.192   9.651  19.146  0.00  0.00    +0.000 A 
ATOM     21  N   UNL     1       9.781  10.879  19.300  0.00  0.00    +0.000 N 
ATOM     22  C   UNL     1      10.744  11.290  20.220  0.00  0.00    +0.000 A 
ATOM     23  C   UNL     1      11.186  12.559  20.181  0.00  0.00    +0.000 A 
ATOM     24  C   UNL     1      10.643  13.461  19.174  0.00  0.00    +0.000 A 
ATOM     25  C   UNL     1       9.711  13.054  18.289  0.00  0.00    +0.000 A 
ATOM     26  C   UNL     1       9.238  11.710  18.329  0.00  0.00    +0.000 A 
ATOM     27  N   UNL     1       8.350  11.072  17.593  0.00  0.00    +0.000 NA
ENDBRANCH  18  19
ENDBRANCH  17  18
ENDBRANCH   5  17
TORSDOF 5
ENDMDL
MODEL 4
REMARK VINA RESULT:      -8.2      0.836      1.470
REMARK  Name = 
REMARK  6 active torsions:
REMARK  status: ('A' for Active; 'I' for Inactive)
REMARK    1  A    between atoms: C_1  and  C_2
REMARK    2  A    between atoms: C_7  and  C_8
REMARK    3  A    between atoms: C_8  and  O_9
REMARK    4  A    between atoms: C_13  and  C_15
REMARK    5  A    between atoms: C_15  and  C_16
REMARK    6  A    between atoms: C_16  and  C_17
REMARK                            x       y       z     vdW  Elec       q    Type
REMARK                         _______ _______ _______ _____ _____    ______ ____
ROOT
ATOM      1  C   UNL     1       4.803   4.042  18.662  0.00  0.00    +0.000 C 
ATOM      2  C   UNL     1       4.690   3.879  17.128  0.00  0.00    +0.000 C 
ATOM      3  C   UNL     1       6.067   4.268  16.615  0.00  0.00    +0.000 C 
ATOM      4  N   UNL     1       6.452   5.357  17.484  0.00  0.00    +0.000 N 
ATOM      5  C   UNL     1       7.333   6.330  17.070  0.00  0.00    +0.000 C 
ATOM      6  O   UNL     1       7.862   6.299  15.953  0.00  0.00    +0.000 OA
ATOM      7  C   UNL     1       5.789   5.238  18.785  0.00  0.00    +0.000 C 
ENDROOT
BRANCH   1  14
ATOM      8  C   UNL     1       3.072   6.581  18.443  0.00  0.00    +0.000 C 
ATOM      9  C   UNL     1       2.709   5.419  19.333  0.00  0.00    +0.000 A 
ATOM     10  C   UNL     1       1.520   5.539  20.083  0.00  0.00    +0.000 A 
ATOM     11  C   UNL     1       1.088   4.520  20.927  0.00  0.00    +0.000 A 
ATOM     12  C   UNL     1       1.839   3.363  21.035  0.00  0.00    +0.000 A 
ATOM     13  C   UNL     1       3.025   3.229  20.308  0.00  0.00    +0.000 A 
ATOM     14  C   UNL     1       3.495   4.239  19.438  0.00  0.00    +0.000 A 
ENDBRANCH   1  14
BRANCH   1  15
ATOM     15  O   UNL     1       5.435   2.842  19.135  0.00  0.00    +0.000 OA
ATOM     16  H   UNL     1       6.390   2.952  18.981  0.00  0.00    +0.000 HD
ENDBRANCH   1  15
BRANCH   5  17
ATOM     17  C   UNL     1       7.653   7.431  18.068  0.00  0.00    +0.000 C 
BRANCH  17  18
ATOM     18  C   UNL     1       7.325   8.797  17.478  0.00  0.00    +0.000 C 
BRANCH  18  19
ATOM     19  C   UNL     1       8.192   9.877  18.024  0.00  0.00    +0.000 A 
ATOM     20  C   UNL     1       8.276  11.195  17.626  0.00  0.00    +0.000 A 
ATOM     21  N   UNL     1       9.196  11.777  18.457  0.00  0.00    +0.000 N 
ATOM     22  C   UNL     1       9.655  13.092  18.488  0.00  0.00    +0.000 A 
ATOM     23  C   UNL     1      10.570  13.445  19.408  0.00  0.00    +0.000 A 
ATOM     24  C   UNL     1      11.049  12.436  20.344  0.00  0.00    +0.000 A 
ATOM     25  C   UNL     1      10.600  11.166  20.305  0.00  0.00    +0.000 A 
ATOM     26  C   UNL     1       9.632  10.788  19.330  0.00  0.00    +0.000 A 
ATOM     27  N   UNL     1       9.041   9.636  19.083  0.00  0.00    +0.000 NA
ENDBRANCH  18  19
ENDBRANCH  17  18
ENDBRANCH   5  17
TORSDOF 5
ENDMDL
MODEL 5
REMARK VINA RESULT:      -8.2      5.537      8.458
REMARK  Name = 
REMARK  6 active torsions:
REMARK  status: ('A' for Active; 'I' for Inactive)
REMARK    1  A    between atoms: C_1  and  C_2
REMARK    2  A    between atoms: C_7  and  C_8
REMARK    3  A    between atoms: C_8  and  O_9
REMARK    4  A    between atoms: C_13  and  C_15
REMARK    5  A    between atoms: C_15  and  C_16
REMARK    6  A    between atoms: C_16  and  C_17
REMARK                            x       y       z     vdW  Elec       q    Type
REMARK                         _______ _______ _______ _____ _____    ______ ____
ROOT
ATOM      1  C   UNL     1       2.728   5.489  18.342  0.00  0.00    +0.000 C 
ATOM      2  C   UNL     1       2.999   5.155  19.828  0.00  0.00    +0.000 C 
ATOM      3  C   UNL     1       1.955   5.963  20.582  0.00  0.00    +0.000 C 
ATOM      4  N   UNL     1       1.876   7.193  19.827  0.00  0.00    +0.000 N 
ATOM      5  C   UNL     1       1.489   8.375  20.416  0.00  0.00    +0.000 C 
ATOM      6  O   UNL     1       1.157   8.432  21.606  0.00  0.00    +0.000 OA
ATOM      7  C   UNL     1       2.248   6.965  18.428  0.00  0.00    +0.000 C 
ENDROOT
BRANCH   1  14
ATOM      8  C   UNL     1       3.817   2.706  17.595  0.00  0.00    +0.000 C 
ATOM      9  C   UNL     1       4.384   3.984  17.030  0.00  0.00    +0.000 A 
ATOM     10  C   UNL     1       5.461   3.857  16.125  0.00  0.00    +0.000 A 
ATOM     11  C   UNL     1       6.049   4.973  15.538  0.00  0.00    +0.000 A 
ATOM     12  C   UNL     1       5.572   6.234  15.846  0.00  0.00    +0.000 A 
ATOM     13  C   UNL     1       4.513   6.381  16.746  0.00  0.00    +0.000 A 
ATOM     14  C   UNL     1       3.887   5.273  17.360  0.00  0.00    +0.000 A 
ENDBRANCH   1  14
BRANCH   1  15
ATOM     15  O   UNL     1       1.635   4.645  17.947  0.00  0.00    +0.000 OA
ATOM     16  H   UNL     1       0.924   4.789  18.597  0.00  0.00    +0.000 HD
ENDBRANCH   1  15
BRANCH   5  17
ATOM     17  C   UNL     1       1.454   9.604  19.523  0.00  0.00    +0.000 C 
BRANCH  17  18
ATOM     18  C   UNL     1       0.403  10.592  20.015  0.00  0.00    +0.000 C 
BRANCH  18  19
ATOM     19  C   UNL     1      -0.766  10.684  19.100  0.00  0.00    +0.000 A 
ATOM     20  C   UNL     1      -1.942  11.383  19.276  0.00  0.00    +0.000 A 
ATOM     21  N   UNL     1      -2.678  11.166  18.141  0.00  0.00    +0.000 N 
ATOM     22  C   UNL     1      -3.943  11.641  17.801  0.00  0.00    +0.000 A 
ATOM     23  C   UNL     1      -4.474  11.298  16.614  0.00  0.00    +0.000 A 
ATOM     24  C   UNL     1      -3.703  10.443  15.721  0.00  0.00    +0.000 A 
ATOM     25  C   UNL     1      -2.480   9.988  16.060  0.00  0.00    +0.000 A 
ATOM     26  C   UNL     1      -1.916  10.346  17.318  0.00  0.00    +0.000 A 
ATOM     27  N   UNL     1      -0.763  10.042  17.880  0.00  0.00    +0.000 NA
ENDBRANCH  18  19
ENDBRANCH  17  18
ENDBRANCH   5  17
TORSDOF 5
ENDMDL
MODEL 6
REMARK VINA RESULT:      -8.2      5.209      8.328
REMARK  Name = 
REMARK  6 active torsions:
REMARK  status: ('A' for Active; 'I' for Inactive)
REMARK    1  A    between atoms: C_1  and  C_2
REMARK    2  A    between atoms: C_7  and  C_8
REMARK    3  A    between atoms: C_8  and  O_9
REMARK    4  A    between atoms: C_13  and  C_15
REMARK    5  A    between atoms: C_15  and  C_16
REMARK    6  A    between atoms: C_16  and  C_17
REMARK                            x       y       z     vdW  Elec       q    Type
REMARK                         _______ _______ _______ _____ _____    ______ ____
ROOT
ATOM      1  C   UNL     1       3.494   4.834  18.138  0.00  0.00    +0.000 C 
ATOM      2  C   UNL     1       3.606   4.563  19.657  0.00  0.00    +0.000 C 
ATOM      3  C   UNL     1       2.418   5.302  20.251  0.00  0.00    +0.000 C 
ATOM      4  N   UNL     1       2.335   6.501  19.448  0.00  0.00    +0.000 N 
ATOM      5  C   UNL     1       1.787   7.662  19.943  0.00  0.00    +0.000 C 
ATOM      6  O   UNL     1       1.309   7.723  21.082  0.00  0.00    +0.000 OA
ATOM      7  C   UNL     1       2.892   6.267  18.113  0.00  0.00    +0.000 C 
ENDROOT
BRANCH   1  14
ATOM      8  C   UNL     1       6.304   5.416  19.257  0.00  0.00    +0.000 C 
ATOM      9  C   UNL     1       6.067   4.968  17.837  0.00  0.00    +0.000 A 
ATOM     10  C   UNL     1       7.206   4.823  17.017  0.00  0.00    +0.000 A 
ATOM     11  C   UNL     1       7.100   4.405  15.694  0.00  0.00    +0.000 A 
ATOM     12  C   UNL     1       5.851   4.124  15.169  0.00  0.00    +0.000 A 
ATOM     13  C   UNL     1       4.709   4.271  15.962  0.00  0.00    +0.000 A 
ATOM     14  C   UNL     1       4.777   4.689  17.310  0.00  0.00    +0.000 A 
ENDBRANCH   1  14
BRANCH   1  15
ATOM     15  O   UNL     1       2.527   3.893  17.646  0.00  0.00    +0.000 OA
ATOM     16  H   UNL     1       2.135   3.463  18.427  0.00  0.00    +0.000 HD
ENDBRANCH   1  15
BRANCH   5  17
ATOM     17  C   UNL     1       1.766   8.860  19.009  0.00  0.00    +0.000 C 
BRANCH  17  18
ATOM     18  C   UNL     1       0.987  10.011  19.636  0.00  0.00    +0.000 C 
BRANCH  18  19
ATOM     19  C   UNL     1      -0.298  10.280  18.934  0.00  0.00    +0.000 A 
ATOM     20  C   UNL     1      -1.363  11.047  19.356  0.00  0.00    +0.000 A 
ATOM     21  N   UNL     1      -2.283  10.997  18.342  0.00  0.00    +0.000 N 
ATOM     22  C   UNL     1      -3.537  11.597  18.253  0.00  0.00    +0.000 A 
ATOM     23  C   UNL     1      -4.275  11.411  17.145  0.00  0.00    +0.000 A 
ATOM     24  C   UNL     1      -3.734  10.587  16.072  0.00  0.00    +0.000 A 
ATOM     25  C   UNL     1      -2.520  10.009  16.168  0.00  0.00    +0.000 A 
ATOM     26  C   UNL     1      -1.737  10.202  17.342  0.00  0.00    +0.000 A 
ATOM     27  N   UNL     1      -0.543   9.758  17.681  0.00  0.00    +0.000 NA
ENDBRANCH  18  19
ENDBRANCH  17  18
ENDBRANCH   5  17
TORSDOF 5
ENDMDL
MODEL 7
REMARK VINA RESULT:      -7.7      6.003      8.313
REMARK  Name = 
REMARK  6 active torsions:
REMARK  status: ('A' for Active; 'I' for Inactive)
REMARK    1  A    between atoms: C_1  and  C_2
REMARK    2  A    between atoms: C_7  and  C_8
REMARK    3  A    between atoms: C_8  and  O_9
REMARK    4  A    between atoms: C_13  and  C_15
REMARK    5  A    between atoms: C_15  and  C_16
REMARK    6  A    between atoms: C_16  and  C_17
REMARK                            x       y       z     vdW  Elec       q    Type
REMARK                         _______ _______ _______ _____ _____    ______ ____
ROOT
ATOM      1  C   UNL     1       3.155   5.894  19.068  0.00  0.00    +0.000 C 
ATOM      2  C   UNL     1       3.403   6.243  17.581  0.00  0.00    +0.000 C 
ATOM      3  C   UNL     1       3.443   7.762  17.563  0.00  0.00    +0.000 C 
ATOM      4  N   UNL     1       2.435   8.135  18.528  0.00  0.00    +0.000 N 
ATOM      5  C   UNL     1       1.772   9.339  18.448  0.00  0.00    +0.000 C 
ATOM      6  O   UNL     1       2.034  10.170  17.570  0.00  0.00    +0.000 OA
ATOM      7  C   UNL     1       2.266   7.081  19.531  0.00  0.00    +0.000 C 
ENDROOT
BRANCH   1  14
ATOM      8  C   UNL     1       4.089   3.302  17.690  0.00  0.00    +0.000 C 
ATOM      9  C   UNL     1       2.985   3.329  18.717  0.00  0.00    +0.000 A 
ATOM     10  C   UNL     1       2.378   2.094  19.032  0.00  0.00    +0.000 A 
ATOM     11  C   UNL     1       1.358   2.006  19.974  0.00  0.00    +0.000 A 
ATOM     12  C   UNL     1       0.928   3.153  20.618  0.00  0.00    +0.000 A 
ATOM     13  C   UNL     1       1.510   4.387  20.314  0.00  0.00    +0.000 A 
ATOM     14  C   UNL     1       2.550   4.516  19.366  0.00  0.00    +0.000 A 
ENDBRANCH   1  14
BRANCH   1  15
ATOM     15  O   UNL     1       4.440   5.973  19.705  0.00  0.00    +0.000 OA
ATOM     16  H   UNL     1       4.293   6.374  20.580  0.00  0.00    +0.000 HD
ENDBRANCH   1  15
BRANCH   5  17
ATOM     17  C   UNL     1       0.724   9.614  19.512  0.00  0.00    +0.000 C 
BRANCH  17  18
ATOM     18  C   UNL     1       0.320  11.084  19.496  0.00  0.00    +0.000 C 
BRANCH  18  19
ATOM     19  C   UNL     1      -1.060  11.291  18.976  0.00  0.00    +0.000 A 
ATOM     20  C   UNL     1      -1.564  10.976  17.731  0.00  0.00    +0.000 A 
ATOM     21  N   UNL     1      -2.885  11.340  17.763  0.00  0.00    +0.000 N 
ATOM     22  C   UNL     1      -3.856  11.240  16.768  0.00  0.00    +0.000 A 
ATOM     23  C   UNL     1      -5.105  11.661  17.028  0.00  0.00    +0.000 A 
ATOM     24  C   UNL     1      -5.402  12.206  18.346  0.00  0.00    +0.000 A 
ATOM     25  C   UNL     1      -4.456  12.300  19.302  0.00  0.00    +0.000 A 
ATOM     26  C   UNL     1      -3.129  11.858  19.029  0.00  0.00    +0.000 A 
ATOM     27  N   UNL     1      -2.042  11.840  19.772  0.00  0.00    +0.000 NA
ENDBRANCH  18  19
ENDBRANCH  17  18
ENDBRANCH   5  17
TORSDOF 5
ENDMDL
MODEL 8
REMARK VINA RESULT:      -7.7      6.372     10.050
REMARK  Name = 
REMARK  6 active torsions:
REMARK  status: ('A' for Active; 'I' for Inactive)
REMARK    1  A    between atoms: C_1  and  C_2
REMARK    2  A    between atoms: C_7  and  C_8
REMARK    3  A    between atoms: C_8  and  O_9
REMARK    4  A    between atoms: C_13  and  C_15
REMARK    5  A    between atoms: C_15  and  C_16
REMARK    6  A    between atoms: C_16  and  C_17
REMARK                            x       y       z     vdW  Elec       q    Type
REMARK                         _______ _______ _______ _____ _____    ______ ____
ROOT
ATOM      1  C   UNL     1      -1.389  11.701  19.618  0.00  0.00    +0.000 C 
ATOM      2  C   UNL     1      -1.403  12.381  21.007  0.00  0.00    +0.000 C 
ATOM      3  C   UNL     1      -0.143  11.862  21.682  0.00  0.00    +0.000 C 
ATOM      4  N   UNL     1      -0.067  10.490  21.237  0.00  0.00    +0.000 N 
ATOM      5  C   UNL     1       0.565   9.524  21.986  0.00  0.00    +0.000 C 
ATOM      6  O   UNL     1       1.127   9.792  23.054  0.00  0.00    +0.000 OA
ATOM      7  C   UNL     1      -0.729  10.331  19.939  0.00  0.00    +0.000 C 
ENDROOT
BRANCH   1  14
ATOM      8  C   UNL     1      -1.784  10.047  17.049  0.00  0.00    +0.000 C 
ATOM      9  C   UNL     1      -2.901  10.822  17.701  0.00  0.00    +0.000 A 
ATOM     10  C   UNL     1      -4.165  10.763  17.076  0.00  0.00    +0.000 A 
ATOM     11  C   UNL     1      -5.266  11.433  17.602  0.00  0.00    +0.000 A 
ATOM     12  C   UNL     1      -5.120  12.172  18.763  0.00  0.00    +0.000 A 
ATOM     13  C   UNL     1      -3.875  12.251  19.391  0.00  0.00    +0.000 A 
ATOM     14  C   UNL     1      -2.735  11.582  18.890  0.00  0.00    +0.000 A 
ENDBRANCH   1  14
BRANCH   1  15
ATOM     15  O   UNL     1      -0.503  12.489  18.808  0.00  0.00    +0.000 OA
ATOM     16  H   UNL     1       0.324  11.980  18.725  0.00  0.00    +0.000 HD
ENDBRANCH   1  15
BRANCH   5  17
ATOM     17  C   UNL     1       0.571   8.114  21.419  0.00  0.00    +0.000 C 
BRANCH  17  18
ATOM     18  C   UNL     1       1.839   7.869  20.610  0.00  0.00    +0.000 C 
BRANCH  18  19
ATOM     19  C   UNL     1       1.885   6.503  20.020  0.00  0.00    +0.000 A 
ATOM     20  C   UNL     1       2.506   6.089  18.861  0.00  0.00    +0.000 A 
ATOM     21  N   UNL     1       2.275   4.741  18.776  0.00  0.00    +0.000 N 
ATOM     22  C   UNL     1       2.681   3.832  17.801  0.00  0.00    +0.000 A 
ATOM     23  C   UNL     1       2.339   2.538  17.929  0.00  0.00    +0.000 A 
ATOM     24  C   UNL     1       1.556   2.131  19.088  0.00  0.00    +0.000 A 
ATOM     25  C   UNL     1       1.167   3.018  20.026  0.00  0.00    +0.000 A 
ATOM     26  C   UNL     1       1.525   4.391  19.892  0.00  0.00    +0.000 A 
ATOM     27  N   UNL     1       1.277   5.439  20.651  0.00  0.00    +0.000 NA
ENDBRANCH  18  19
ENDBRANCH  17  18
ENDBRANCH   5  17
TORSDOF 5
ENDMDL
MODEL 9
REMARK VINA RESULT:      -7.7      5.946      8.307
REMARK  Name = 
REMARK  6 active torsions:
REMARK  status: ('A' for Active; 'I' for Inactive)
REMARK    1  A    between atoms: C_1  and  C_2
REMARK    2  A    between atoms: C_7  and  C_8
REMARK    3  A    between atoms: C_8  and  O_9
REMARK    4  A    between atoms: C_13  and  C_15
REMARK    5  A    between atoms: C_15  and  C_16
REMARK    6  A    between atoms: C_16  and  C_17
REMARK                            x       y       z     vdW  Elec       q    Type
REMARK                         _______ _______ _______ _____ _____    ______ ____
ROOT
ATOM      1  C   UNL     1       3.114   5.837  19.156  0.00  0.00    +0.000 C 
ATOM      2  C   UNL     1       3.323   6.099  17.646  0.00  0.00    +0.000 C 
ATOM      3  C   UNL     1       3.419   7.613  17.545  0.00  0.00    +0.000 C 
ATOM      4  N   UNL     1       2.458   8.073  18.521  0.00  0.00    +0.000 N 
ATOM      5  C   UNL     1       1.838   9.296  18.398  0.00  0.00    +0.000 C 
ATOM      6  O   UNL     1       2.100  10.070  17.470  0.00  0.00    +0.000 OA
ATOM      7  C   UNL     1       2.284   7.080  19.584  0.00  0.00    +0.000 C 
ENDROOT
BRANCH   1  14
ATOM      8  C   UNL     1       2.928   3.426  17.247  0.00  0.00    +0.000 C 
ATOM      9  C   UNL     1       2.383   3.399  18.653  0.00  0.00    +0.000 A 
ATOM     10  C   UNL     1       1.767   2.201  19.073  0.00  0.00    +0.000 A 
ATOM     11  C   UNL     1       1.241   2.066  20.354  0.00  0.00    +0.000 A 
ATOM     12  C   UNL     1       1.322   3.129  21.237  0.00  0.00    +0.000 A 
ATOM     13  C   UNL     1       1.920   4.327  20.837  0.00  0.00    +0.000 A 
ATOM     14  C   UNL     1       2.469   4.501  19.546  0.00  0.00    +0.000 A 
ENDBRANCH   1  14
BRANCH   1  15
ATOM     15  O   UNL     1       4.422   5.899  19.746  0.00  0.00    +0.000 OA
ATOM     16  H   UNL     1       4.923   6.564  19.240  0.00  0.00    +0.000 HD
ENDBRANCH   1  15
BRANCH   5  17
ATOM     17  C   UNL     1       0.837   9.667  19.480  0.00  0.00    +0.000 C 
BRANCH  17  18
ATOM     18  C   UNL     1       0.447  11.135  19.365  0.00  0.00    +0.000 C 
BRANCH  18  19
ATOM     19  C   UNL     1      -0.993  11.319  19.037  0.00  0.00    +0.000 A 
ATOM     20  C   UNL     1      -1.975  11.929  19.790  0.00  0.00    +0.000 A 
ATOM     21  N   UNL     1      -3.117  11.862  19.036  0.00  0.00    +0.000 N 
ATOM     22  C   UNL     1      -4.398  12.327  19.326  0.00  0.00    +0.000 A 
ATOM     23  C   UNL     1      -5.378  12.153  18.422  0.00  0.00    +0.000 A 
ATOM     24  C   UNL     1      -5.063  11.485  17.166  0.00  0.00    +0.000 A 
ATOM     25  C   UNL     1      -3.821  11.037  16.896  0.00  0.00    +0.000 A 
ATOM     26  C   UNL     1      -2.781  11.216  17.853  0.00  0.00    +0.000 A 
ATOM     27  N   UNL     1      -1.507  10.879  17.836  0.00  0.00    +0.000 NA
ENDBRANCH  18  19
ENDBRANCH  17  18
ENDBRANCH   5  17
TORSDOF 5
ENDMDL
