MODEL 1
REMARK VINA RESULT:      -6.8      0.000      0.000
REMARK  Name = 
REMARK  9 active torsions:
REMARK  status: ('A' for Active; 'I' for Inactive)
REMARK    1  A    between atoms: C_1  and  C_2
REMARK    2  A    between atoms: C_2  and  N_3
REMARK    3  A    between atoms: N_3  and  C_4
REMARK    4  A    between atoms: C_4  and  C_5
REMARK    5  A    between atoms: C_6  and  C_8
REMARK    6  A    between atoms: C_8  and  N_9
REMARK    7  A    between atoms: C_11  and  S_12
REMARK    8  A    between atoms: S_12  and  C_15
REMARK    9  A    between atoms: C_15  and  C_16
REMARK                            x       y       z     vdW  Elec       q    Type
REMARK                         _______ _______ _______ _____ _____    ______ ____
ROOT
ATOM      1  N   UNL     1       5.121   4.423  15.964  0.00  0.00    +0.000 N 
ATOM      2  C   UNL     1       4.413   3.374  16.493  0.00  0.00    +0.000 A 
ATOM      3  C   UNL     1       4.691   3.320  17.843  0.00  0.00    +0.000 A 
ATOM      4  C   UNL     1       5.640   4.339  18.142  0.00  0.00    +0.000 A 
ATOM      5  C   UNL     1       6.304   4.763  19.314  0.00  0.00    +0.000 A 
ATOM      6  C   UNL     1       7.195   5.837  19.259  0.00  0.00    +0.000 A 
ATOM      7  C   UNL     1       7.446   6.481  18.055  0.00  0.00    +0.000 A 
ATOM      8  C   UNL     1       6.809   6.081  16.877  0.00  0.00    +0.000 A 
ATOM      9  C   UNL     1       5.901   5.010  16.941  0.00  0.00    +0.000 A 
ENDROOT
BRANCH   3  10
ATOM     10  S   UNL     1       4.004   2.229  18.990  0.00  0.00    +0.000 S 
ATOM     11  O   UNL     1       4.214   0.891  18.473  0.00  0.00    +0.000 OA
ATOM     12  O   UNL     1       4.606   2.630  20.250  0.00  0.00    +0.000 OA
BRANCH  10  13
ATOM     13  C   UNL     1       2.282   2.608  19.084  0.00  0.00    +0.000 C 
BRANCH  13  14
ATOM     14  C   UNL     1       1.966   3.678  20.083  0.00  0.00    +0.000 C 
ATOM     15  O   UNL     1       1.898   3.459  21.288  0.00  0.00    +0.000 OA
ATOM     16  N   UNL     1       1.760   4.956  19.583  0.00  0.00    +0.000 N 
ATOM     17  C   UNL     1       1.790   5.372  18.177  0.00  0.00    +0.000 C 
ATOM     18  C   UNL     1       2.706   6.591  18.002  0.00  0.00    +0.000 C 
ATOM     19  O   UNL     1       2.336   7.657  18.890  0.00  0.00    +0.000 OA
ATOM     20  C   UNL     1       2.399   7.229  20.262  0.00  0.00    +0.000 C 
ATOM     21  C   UNL     1       1.452   6.051  20.510  0.00  0.00    +0.000 C 
ENDBRANCH  13  14
ENDBRANCH  10  13
ENDBRANCH   3  10
BRANCH   1  22
ATOM     22  C   UNL     1       5.086   4.819  14.559  0.00  0.00    +0.000 C 
BRANCH  22  24
ATOM     23  N   UNL     1       5.948   3.491  12.622  0.00  0.00    +0.000 N 
ATOM     24  C   UNL     1       6.262   4.277  13.748  0.00  0.00    +0.000 C 
ATOM     25  O   UNL     1       7.436   4.529  14.042  0.00  0.00    +0.000 OA
BRANCH  23  27
ATOM     26  C   UNL     1       7.024   1.702  11.231  0.00  0.00    +0.000 C 
ATOM     27  C   UNL     1       7.059   3.140  11.728  0.00  0.00    +0.000 C 
ENDBRANCH  23  27
BRANCH  23  28
ATOM     28  C   UNL     1       4.556   3.150  12.292  0.00  0.00    +0.000 C 
ATOM     29  C   UNL     1       3.976   3.614  10.966  0.00  0.00    +0.000 C 
ENDBRANCH  23  28
ENDBRANCH  22  24
ENDBRANCH   1  22
TORSDOF 7
ENDMDL
MODEL 2
REMARK VINA RESULT:      -6.8      2.405      8.149
REMARK  Name = 
REMARK  9 active torsions:
REMARK  status: ('A' for Active; 'I' for Inactive)
REMARK    1  A    between atoms: C_1  and  C_2
REMARK    2  A    between atoms: C_2  and  N_3
REMARK    3  A    between atoms: N_3  and  C_4
REMARK    4  A    between atoms: C_4  and  C_5
REMARK    5  A    between atoms: C_6  and  C_8
REMARK    6  A    between atoms: C_8  and  N_9
REMARK    7  A    between atoms: C_11  and  S_12
REMARK    8  A    between atoms: S_12  and  C_15
REMARK    9  A    between atoms: C_15  and  C_16
REMARK                            x       y       z     vdW  Elec       q    Type
REMARK                         _______ _______ _______ _____ _____    ______ ____
ROOT
ATOM      1  N   UNL     1       2.956   6.205  18.927  0.00  0.00    +0.000 N 
ATOM      2  C   UNL     1       4.157   6.548  18.358  0.00  0.00    +0.000 A 
ATOM      3  C   UNL     1       4.588   5.471  17.611  0.00  0.00    +0.000 A 
ATOM      4  C   UNL     1       3.645   4.415  17.768  0.00  0.00    +0.000 A 
ATOM      5  C   UNL     1       3.544   3.095  17.279  0.00  0.00    +0.000 A 
ATOM      6  C   UNL     1       2.449   2.304  17.630  0.00  0.00    +0.000 A 
ATOM      7  C   UNL     1       1.464   2.801  18.474  0.00  0.00    +0.000 A 
ATOM      8  C   UNL     1       1.538   4.103  18.979  0.00  0.00    +0.000 A 
ATOM      9  C   UNL     1       2.635   4.900  18.609  0.00  0.00    +0.000 A 
ENDROOT
BRANCH   3  10
ATOM     10  S   UNL     1       6.008   5.403  16.634  0.00  0.00    +0.000 S 
ATOM     11  O   UNL     1       6.474   6.767  16.477  0.00  0.00    +0.000 OA
ATOM     12  O   UNL     1       6.840   4.418  17.304  0.00  0.00    +0.000 OA
BRANCH  10  13
ATOM     13  C   UNL     1       5.526   4.716  15.081  0.00  0.00    +0.000 C 
BRANCH  13  14
ATOM     14  C   UNL     1       6.637   4.679  14.079  0.00  0.00    +0.000 C 
ATOM     15  O   UNL     1       7.749   5.147  14.305  0.00  0.00    +0.000 OA
ATOM     16  N   UNL     1       6.360   4.070  12.863  0.00  0.00    +0.000 N 
ATOM     17  C   UNL     1       5.085   3.483  12.438  0.00  0.00    +0.000 C 
ATOM     18  C   UNL     1       5.307   2.062  11.900  0.00  0.00    +0.000 C 
ATOM     19  O   UNL     1       6.301   2.044  10.864  0.00  0.00    +0.000 OA
ATOM     20  C   UNL     1       7.557   2.552  11.348  0.00  0.00    +0.000 C 
ATOM     21  C   UNL     1       7.409   3.995  11.839  0.00  0.00    +0.000 C 
ENDBRANCH  13  14
ENDBRANCH  10  13
ENDBRANCH   3  10
BRANCH   1  22
ATOM     22  C   UNL     1       2.168   7.084  19.785  0.00  0.00    +0.000 C 
BRANCH  22  24
ATOM     23  N   UNL     1       1.133   9.360  19.881  0.00  0.00    +0.000 N 
ATOM     24  C   UNL     1       1.670   8.340  19.071  0.00  0.00    +0.000 C 
ATOM     25  O   UNL     1       1.750   8.475  17.845  0.00  0.00    +0.000 OA
BRANCH  23  27
ATOM     26  C   UNL     1       1.011  11.853  20.134  0.00  0.00    +0.000 C 
ATOM     27  C   UNL     1       0.843  10.642  19.226  0.00  0.00    +0.000 C 
ENDBRANCH  23  27
BRANCH  23  28
ATOM     28  C   UNL     1       0.994   9.189  21.334  0.00  0.00    +0.000 C 
ATOM     29  C   UNL     1      -0.372   8.858  21.913  0.00  0.00    +0.000 C 
ENDBRANCH  23  28
ENDBRANCH  22  24
ENDBRANCH   1  22
TORSDOF 7
ENDMDL
MODEL 3
REMARK VINA RESULT:      -6.5      2.531      7.900
REMARK  Name = 
REMARK  9 active torsions:
REMARK  status: ('A' for Active; 'I' for Inactive)
REMARK    1  A    between atoms: C_1  and  C_2
REMARK    2  A    between atoms: C_2  and  N_3
REMARK    3  A    between atoms: N_3  and  C_4
REMARK    4  A    between atoms: C_4  and  C_5
REMARK    5  A    between atoms: C_6  and  C_8
REMARK    6  A    between atoms: C_8  and  N_9
REMARK    7  A    between atoms: C_11  and  S_12
REMARK    8  A    between atoms: S_12  and  C_15
REMARK    9  A    between atoms: C_15  and  C_16
REMARK                            x       y       z     vdW  Elec       q    Type
REMARK                         _______ _______ _______ _____ _____    ______ ____
ROOT
ATOM      1  N   UNL     1       2.491   6.339  19.783  0.00  0.00    +0.000 N 
ATOM      2  C   UNL     1       3.759   6.605  19.333  0.00  0.00    +0.000 A 
ATOM      3  C   UNL     1       4.292   5.423  18.862  0.00  0.00    +0.000 A 
ATOM      4  C   UNL     1       3.337   4.388  19.076  0.00  0.00    +0.000 A 
ATOM      5  C   UNL     1       3.307   2.999  18.826  0.00  0.00    +0.000 A 
ATOM      6  C   UNL     1       2.173   2.256  19.160  0.00  0.00    +0.000 A 
ATOM      7  C   UNL     1       1.079   2.871  19.755  0.00  0.00    +0.000 A 
ATOM      8  C   UNL     1       1.081   4.244  20.020  0.00  0.00    +0.000 A 
ATOM      9  C   UNL     1       2.218   4.989  19.666  0.00  0.00    +0.000 A 
ENDROOT
BRANCH   3  10
ATOM     10  S   UNL     1       5.836   5.218  18.120  0.00  0.00    +0.000 S 
ATOM     11  O   UNL     1       6.342   6.545  17.833  0.00  0.00    +0.000 OA
ATOM     12  O   UNL     1       6.547   4.346  19.040  0.00  0.00    +0.000 OA
BRANCH  10  13
ATOM     13  C   UNL     1       5.569   4.306  16.632  0.00  0.00    +0.000 C 
BRANCH  13  14
ATOM     14  C   UNL     1       6.671   4.468  15.632  0.00  0.00    +0.000 C 
ATOM     15  O   UNL     1       7.852   4.552  15.955  0.00  0.00    +0.000 OA
ATOM     16  N   UNL     1       6.300   4.507  14.295  0.00  0.00    +0.000 N 
ATOM     17  C   UNL     1       4.939   4.436  13.753  0.00  0.00    +0.000 C 
ATOM     18  C   UNL     1       4.860   3.367  12.653  0.00  0.00    +0.000 C 
ATOM     19  O   UNL     1       5.853   3.584  11.640  0.00  0.00    +0.000 OA
ATOM     20  C   UNL     1       7.176   3.565  12.203  0.00  0.00    +0.000 C 
ATOM     21  C   UNL     1       7.333   4.657  13.264  0.00  0.00    +0.000 C 
ENDBRANCH  13  14
ENDBRANCH  10  13
ENDBRANCH   3  10
BRANCH   1  22
ATOM     22  C   UNL     1       1.588   7.337  20.349  0.00  0.00    +0.000 C 
BRANCH  22  24
ATOM     23  N   UNL     1       1.090   9.775  20.093  0.00  0.00    +0.000 N 
ATOM     24  C   UNL     1       1.398   8.559  19.452  0.00  0.00    +0.000 C 
ATOM     25  O   UNL     1       1.529   8.501  18.224  0.00  0.00    +0.000 OA
BRANCH  23  27
ATOM     26  C   UNL     1      -0.250  11.362  18.686  0.00  0.00    +0.000 C 
ATOM     27  C   UNL     1       1.108  10.986  19.261  0.00  0.00    +0.000 C 
ENDBRANCH  23  27
BRANCH  23  28
ATOM     28  C   UNL     1       0.890   9.843  21.548  0.00  0.00    +0.000 C 
ATOM     29  C   UNL     1      -0.484  10.205  22.089  0.00  0.00    +0.000 C 
ENDBRANCH  23  28
ENDBRANCH  22  24
ENDBRANCH   1  22
TORSDOF 7
ENDMDL
MODEL 4
REMARK VINA RESULT:      -6.5      7.058     10.230
REMARK  Name = 
REMARK  9 active torsions:
REMARK  status: ('A' for Active; 'I' for Inactive)
REMARK    1  A    between atoms: C_1  and  C_2
REMARK    2  A    between atoms: C_2  and  N_3
REMARK    3  A    between atoms: N_3  and  C_4
REMARK    4  A    between atoms: C_4  and  C_5
REMARK    5  A    between atoms: C_6  and  C_8
REMARK    6  A    between atoms: C_8  and  N_9
REMARK    7  A    between atoms: C_11  and  S_12
REMARK    8  A    between atoms: S_12  and  C_15
REMARK    9  A    between atoms: C_15  and  C_16
REMARK                            x       y       z     vdW  Elec       q    Type
REMARK                         _______ _______ _______ _____ _____    ______ ____
ROOT
ATOM      1  N   UNL     1       0.889  10.429  18.889  0.00  0.00    +0.000 N 
ATOM      2  C   UNL     1       1.262  11.368  19.817  0.00  0.00    +0.000 A 
ATOM      3  C   UNL     1       0.143  12.109  20.134  0.00  0.00    +0.000 A 
ATOM      4  C   UNL     1      -0.941  11.642  19.338  0.00  0.00    +0.000 A 
ATOM      5  C   UNL     1      -2.299  12.001  19.201  0.00  0.00    +0.000 A 
ATOM      6  C   UNL     1      -3.116  11.309  18.305  0.00  0.00    +0.000 A 
ATOM      7  C   UNL     1      -2.597  10.278  17.533  0.00  0.00    +0.000 A 
ATOM      8  C   UNL     1      -1.255   9.902  17.641  0.00  0.00    +0.000 A 
ATOM      9  C   UNL     1      -0.442  10.592  18.556  0.00  0.00    +0.000 A 
ENDROOT
BRANCH   3  10
ATOM     10  S   UNL     1       0.048  13.374  21.305  0.00  0.00    +0.000 S 
ATOM     11  O   UNL     1       1.406  13.666  21.717  0.00  0.00    +0.000 OA
ATOM     12  O   UNL     1      -0.753  14.392  20.647  0.00  0.00    +0.000 OA
BRANCH  10  13
ATOM     13  C   UNL     1      -0.902  12.747  22.655  0.00  0.00    +0.000 C 
BRANCH  13  14
ATOM     14  C   UNL     1      -1.430  13.820  23.556  0.00  0.00    +0.000 C 
ATOM     15  O   UNL     1      -0.723  14.718  24.002  0.00  0.00    +0.000 OA
ATOM     16  N   UNL     1      -2.782  13.766  23.864  0.00  0.00    +0.000 N 
ATOM     17  C   UNL     1      -3.749  12.754  23.426  0.00  0.00    +0.000 C 
ATOM     18  C   UNL     1      -4.991  13.429  22.826  0.00  0.00    +0.000 C 
ATOM     19  O   UNL     1      -5.558  14.385  23.735  0.00  0.00    +0.000 OA
ATOM     20  C   UNL     1      -4.601  15.403  24.073  0.00  0.00    +0.000 C 
ATOM     21  C   UNL     1      -3.364  14.792  24.737  0.00  0.00    +0.000 C 
ENDBRANCH  13  14
ENDBRANCH  10  13
ENDBRANCH   3  10
BRANCH   1  22
ATOM     22  C   UNL     1       1.790   9.438  18.308  0.00  0.00    +0.000 C 
BRANCH  22  24
ATOM     23  N   UNL     1       2.757   7.156  18.645  0.00  0.00    +0.000 N 
ATOM     24  C   UNL     1       1.937   8.178  19.160  0.00  0.00    +0.000 C 
ATOM     25  O   UNL     1       1.386   8.061  20.260  0.00  0.00    +0.000 OA
BRANCH  23  27
ATOM     26  C   UNL     1       2.415   4.720  19.139  0.00  0.00    +0.000 C 
ATOM     27  C   UNL     1       3.064   6.036  19.545  0.00  0.00    +0.000 C 
ENDBRANCH  23  27
BRANCH  23  28
ATOM     28  C   UNL     1       3.379   7.270  17.318  0.00  0.00    +0.000 C 
ATOM     29  C   UNL     1       4.824   6.832  17.138  0.00  0.00    +0.000 C 
ENDBRANCH  23  28
ENDBRANCH  22  24
ENDBRANCH   1  22
TORSDOF 7
ENDMDL
MODEL 5
REMARK VINA RESULT:      -6.4      4.609      8.609
REMARK  Name = 
REMARK  9 active torsions:
REMARK  status: ('A' for Active; 'I' for Inactive)
REMARK    1  A    between atoms: C_1  and  C_2
REMARK    2  A    between atoms: C_2  and  N_3
REMARK    3  A    between atoms: N_3  and  C_4
REMARK    4  A    between atoms: C_4  and  C_5
REMARK    5  A    between atoms: C_6  and  C_8
REMARK    6  A    between atoms: C_8  and  N_9
REMARK    7  A    between atoms: C_11  and  S_12
REMARK    8  A    between atoms: S_12  and  C_15
REMARK    9  A    between atoms: C_15  and  C_16
REMARK                            x       y       z     vdW  Elec       q    Type
REMARK                         _______ _______ _______ _____ _____    ______ ____
ROOT
ATOM      1  N   UNL     1       0.037  10.600  18.821  0.00  0.00    +0.000 N 
ATOM      2  C   UNL     1       0.787   9.737  18.063  0.00  0.00    +0.000 A 
ATOM      3  C   UNL     1       1.335   8.800  18.915  0.00  0.00    +0.000 A 
ATOM      4  C   UNL     1       0.948   9.130  20.245  0.00  0.00    +0.000 A 
ATOM      5  C   UNL     1       1.200   8.573  21.517  0.00  0.00    +0.000 A 
ATOM      6  C   UNL     1       0.641   9.157  22.656  0.00  0.00    +0.000 A 
ATOM      7  C   UNL     1      -0.147  10.296  22.548  0.00  0.00    +0.000 A 
ATOM      8  C   UNL     1      -0.409  10.874  21.302  0.00  0.00    +0.000 A 
ATOM      9  C   UNL     1       0.142  10.272  20.159  0.00  0.00    +0.000 A 
ENDROOT
BRANCH   3  10
ATOM     10  S   UNL     1       2.304   7.446  18.464  0.00  0.00    +0.000 S 
ATOM     11  O   UNL     1       1.475   6.595  17.633  0.00  0.00    +0.000 OA
ATOM     12  O   UNL     1       3.508   8.051  17.919  0.00  0.00    +0.000 OA
BRANCH  10  13
ATOM     13  C   UNL     1       2.758   6.624  19.959  0.00  0.00    +0.000 C 
BRANCH  13  14
ATOM     14  C   UNL     1       2.177   5.249  20.078  0.00  0.00    +0.000 C 
ATOM     15  O   UNL     1       1.084   5.034  20.593  0.00  0.00    +0.000 OA
ATOM     16  N   UNL     1       2.933   4.206  19.562  0.00  0.00    +0.000 N 
ATOM     17  C   UNL     1       4.256   4.298  18.936  0.00  0.00    +0.000 C 
ATOM     18  C   UNL     1       4.257   3.570  17.584  0.00  0.00    +0.000 C 
ATOM     19  O   UNL     1       3.797   2.217  17.718  0.00  0.00    +0.000 OA
ATOM     20  C   UNL     1       2.465   2.177  18.260  0.00  0.00    +0.000 C 
ATOM     21  C   UNL     1       2.418   2.834  19.642  0.00  0.00    +0.000 C 
ENDBRANCH  13  14
ENDBRANCH  10  13
ENDBRANCH   3  10
BRANCH   1  22
ATOM     22  C   UNL     1      -0.717  11.729  18.285  0.00  0.00    +0.000 C 
BRANCH  22  24
ATOM     23  N   UNL     1      -2.956  10.866  17.577  0.00  0.00    +0.000 N 
ATOM     24  C   UNL     1      -2.223  11.617  18.517  0.00  0.00    +0.000 C 
ATOM     25  O   UNL     1      -2.778  12.136  19.491  0.00  0.00    +0.000 OA
BRANCH  23  27
ATOM     26  C   UNL     1      -5.337  11.634  17.389  0.00  0.00    +0.000 C 
ATOM     27  C   UNL     1      -4.360  10.586  17.903  0.00  0.00    +0.000 C 
ENDBRANCH  23  27
BRANCH  23  28
ATOM     28  C   UNL     1      -2.309  10.284  16.392  0.00  0.00    +0.000 C 
ATOM     29  C   UNL     1      -2.959  10.464  15.030  0.00  0.00    +0.000 C 
ENDBRANCH  23  28
ENDBRANCH  22  24
ENDBRANCH   1  22
TORSDOF 7
ENDMDL
MODEL 6
REMARK VINA RESULT:      -6.4      4.122      6.289
REMARK  Name = 
REMARK  9 active torsions:
REMARK  status: ('A' for Active; 'I' for Inactive)
REMARK    1  A    between atoms: C_1  and  C_2
REMARK    2  A    between atoms: C_2  and  N_3
REMARK    3  A    between atoms: N_3  and  C_4
REMARK    4  A    between atoms: C_4  and  C_5
REMARK    5  A    between atoms: C_6  and  C_8
REMARK    6  A    between atoms: C_8  and  N_9
REMARK    7  A    between atoms: C_11  and  S_12
REMARK    8  A    between atoms: S_12  and  C_15
REMARK    9  A    between atoms: C_15  and  C_16
REMARK                            x       y       z     vdW  Elec       q    Type
REMARK                         _______ _______ _______ _____ _____    ______ ____
ROOT
ATOM      1  N   UNL     1       3.073   7.049  18.111  0.00  0.00    +0.000 N 
ATOM      2  C   UNL     1       2.450   8.182  18.568  0.00  0.00    +0.000 A 
ATOM      3  C   UNL     1       1.808   7.859  19.746  0.00  0.00    +0.000 A 
ATOM      4  C   UNL     1       2.002   6.470  19.992  0.00  0.00    +0.000 A 
ATOM      5  C   UNL     1       1.588   5.575  21.002  0.00  0.00    +0.000 A 
ATOM      6  C   UNL     1       1.975   4.234  20.944  0.00  0.00    +0.000 A 
ATOM      7  C   UNL     1       2.750   3.770  19.889  0.00  0.00    +0.000 A 
ATOM      8  C   UNL     1       3.170   4.631  18.871  0.00  0.00    +0.000 A 
ATOM      9  C   UNL     1       2.792   5.983  18.943  0.00  0.00    +0.000 A 
ENDROOT
BRANCH   3  10
ATOM     10  S   UNL     1       0.933   8.941  20.768  0.00  0.00    +0.000 S 
ATOM     11  O   UNL     1      -0.412   8.415  20.881  0.00  0.00    +0.000 OA
ATOM     12  O   UNL     1       1.775   9.057  21.947  0.00  0.00    +0.000 OA
BRANCH  10  13
ATOM     13  C   UNL     1       0.934  10.512  19.964  0.00  0.00    +0.000 C 
BRANCH  13  14
ATOM     14  C   UNL     1      -0.189  10.678  18.987  0.00  0.00    +0.000 C 
ATOM     15  O   UNL     1      -0.309   9.974  17.989  0.00  0.00    +0.000 OA
ATOM     16  N   UNL     1      -1.116  11.672  19.267  0.00  0.00    +0.000 N 
ATOM     17  C   UNL     1      -1.102  12.601  20.402  0.00  0.00    +0.000 C 
ATOM     18  C   UNL     1      -2.465  12.598  21.109  0.00  0.00    +0.000 C 
ATOM     19  O   UNL     1      -3.534  12.860  20.187  0.00  0.00    +0.000 OA
ATOM     20  C   UNL     1      -3.560  11.878  19.136  0.00  0.00    +0.000 C 
ATOM     21  C   UNL     1      -2.245  11.882  18.352  0.00  0.00    +0.000 C 
ENDBRANCH  13  14
ENDBRANCH  10  13
ENDBRANCH   3  10
BRANCH   1  22
ATOM     22  C   UNL     1       3.873   6.981  16.892  0.00  0.00    +0.000 C 
BRANCH  22  24
ATOM     23  N   UNL     1       5.898   5.556  16.537  0.00  0.00    +0.000 N 
ATOM     24  C   UNL     1       5.352   6.699  17.152  0.00  0.00    +0.000 C 
ATOM     25  O   UNL     1       6.051   7.444  17.848  0.00  0.00    +0.000 OA
BRANCH  23  27
ATOM     26  C   UNL     1       7.821   4.542  17.788  0.00  0.00    +0.000 C 
ATOM     27  C   UNL     1       7.356   5.394  16.616  0.00  0.00    +0.000 C 
ENDBRANCH  23  27
BRANCH  23  28
ATOM     28  C   UNL     1       5.064   4.642  15.744  0.00  0.00    +0.000 C 
ATOM     29  C   UNL     1       5.544   4.207  14.368  0.00  0.00    +0.000 C 
ENDBRANCH  23  28
ENDBRANCH  22  24
ENDBRANCH   1  22
TORSDOF 7
ENDMDL
MODEL 7
REMARK VINA RESULT:      -6.4      1.072      1.430
REMARK  Name = 
REMARK  9 active torsions:
REMARK  status: ('A' for Active; 'I' for Inactive)
REMARK    1  A    between atoms: C_1  and  C_2
REMARK    2  A    between atoms: C_2  and  N_3
REMARK    3  A    between atoms: N_3  and  C_4
REMARK    4  A    between atoms: C_4  and  C_5
REMARK    5  A    between atoms: C_6  and  C_8
REMARK    6  A    between atoms: C_8  and  N_9
REMARK    7  A    between atoms: C_11  and  S_12
REMARK    8  A    between atoms: S_12  and  C_15
REMARK    9  A    between atoms: C_15  and  C_16
REMARK                            x       y       z     vdW  Elec       q    Type
REMARK                         _______ _______ _______ _____ _____    ______ ____
ROOT
ATOM      1  N   UNL     1       5.404   4.924  15.954  0.00  0.00    +0.000 N 
ATOM      2  C   UNL     1       4.552   3.935  16.376  0.00  0.00    +0.000 A 
ATOM      3  C   UNL     1       4.743   3.770  17.733  0.00  0.00    +0.000 A 
ATOM      4  C   UNL     1       5.780   4.653  18.146  0.00  0.00    +0.000 A 
ATOM      5  C   UNL     1       6.418   4.927  19.375  0.00  0.00    +0.000 A 
ATOM      6  C   UNL     1       7.426   5.892  19.437  0.00  0.00    +0.000 A 
ATOM      7  C   UNL     1       7.819   6.573  18.292  0.00  0.00    +0.000 A 
ATOM      8  C   UNL     1       7.211   6.319  17.059  0.00  0.00    +0.000 A 
ATOM      9  C   UNL     1       6.186   5.359  17.006  0.00  0.00    +0.000 A 
ENDROOT
BRANCH   3  10
ATOM     10  S   UNL     1       3.870   2.701  18.769  0.00  0.00    +0.000 S 
ATOM     11  O   UNL     1       3.591   1.506  17.997  0.00  0.00    +0.000 OA
ATOM     12  O   UNL     1       4.698   2.625  19.961  0.00  0.00    +0.000 OA
BRANCH  10  13
ATOM     13  C   UNL     1       2.378   3.530  19.216  0.00  0.00    +0.000 C 
BRANCH  13  14
ATOM     14  C   UNL     1       1.959   4.571  18.224  0.00  0.00    +0.000 C 
ATOM     15  O   UNL     1       1.372   4.295  17.182  0.00  0.00    +0.000 OA
ATOM     16  N   UNL     1       2.254   5.889  18.541  0.00  0.00    +0.000 N 
ATOM     17  C   UNL     1       2.960   6.376  19.731  0.00  0.00    +0.000 C 
ATOM     18  C   UNL     1       2.159   7.500  20.402  0.00  0.00    +0.000 C 
ATOM     19  O   UNL     1       1.846   8.548  19.472  0.00  0.00    +0.000 OA
ATOM     20  C   UNL     1       1.084   8.041  18.363  0.00  0.00    +0.000 C 
ATOM     21  C   UNL     1       1.865   6.958  17.614  0.00  0.00    +0.000 C 
ENDBRANCH  13  14
ENDBRANCH  10  13
ENDBRANCH   3  10
BRANCH   1  22
ATOM     22  C   UNL     1       5.496   5.403  14.578  0.00  0.00    +0.000 C 
BRANCH  22  24
ATOM     23  N   UNL     1       6.307   3.783  12.853  0.00  0.00    +0.000 N 
ATOM     24  C   UNL     1       6.647   4.774  13.794  0.00  0.00    +0.000 C 
ATOM     25  O   UNL     1       7.821   5.128  13.953  0.00  0.00    +0.000 OA
BRANCH  23  27
ATOM     26  C   UNL     1       7.135   1.946  11.358  0.00  0.00    +0.000 C 
ATOM     27  C   UNL     1       7.378   3.324  11.958  0.00  0.00    +0.000 C 
ENDBRANCH  23  27
BRANCH  23  28
ATOM     28  C   UNL     1       4.919   3.327  12.691  0.00  0.00    +0.000 C 
ATOM     29  C   UNL     1       4.199   3.600  11.380  0.00  0.00    +0.000 C 
ENDBRANCH  23  28
ENDBRANCH  22  24
ENDBRANCH   1  22
TORSDOF 7
ENDMDL
MODEL 8
REMARK VINA RESULT:      -6.4      6.425      9.861
REMARK  Name = 
REMARK  9 active torsions:
REMARK  status: ('A' for Active; 'I' for Inactive)
REMARK    1  A    between atoms: C_1  and  C_2
REMARK    2  A    between atoms: C_2  and  N_3
REMARK    3  A    between atoms: N_3  and  C_4
REMARK    4  A    between atoms: C_4  and  C_5
REMARK    5  A    between atoms: C_6  and  C_8
REMARK    6  A    between atoms: C_8  and  N_9
REMARK    7  A    between atoms: C_11  and  S_12
REMARK    8  A    between atoms: S_12  and  C_15
REMARK    9  A    between atoms: C_15  and  C_16
REMARK                            x       y       z     vdW  Elec       q    Type
REMARK                         _______ _______ _______ _____ _____    ______ ____
ROOT
ATOM      1  N   UNL     1       0.718  10.037  20.059  0.00  0.00    +0.000 N 
ATOM      2  C   UNL     1       1.241  11.158  20.651  0.00  0.00    +0.000 A 
ATOM      3  C   UNL     1       0.584  12.253  20.129  0.00  0.00    +0.000 A 
ATOM      4  C   UNL     1      -0.338  11.791  19.147  0.00  0.00    +0.000 A 
ATOM      5  C   UNL     1      -1.261  12.416  18.280  0.00  0.00    +0.000 A 
ATOM      6  C   UNL     1      -2.043  11.642  17.421  0.00  0.00    +0.000 A 
ATOM      7  C   UNL     1      -1.907  10.260  17.399  0.00  0.00    +0.000 A 
ATOM      8  C   UNL     1      -0.999   9.612  18.241  0.00  0.00    +0.000 A 
ATOM      9  C   UNL     1      -0.226  10.395  19.115  0.00  0.00    +0.000 A 
ENDROOT
BRANCH   3  10
ATOM     10  S   UNL     1       0.810  13.901  20.587  0.00  0.00    +0.000 S 
ATOM     11  O   UNL     1       1.888  13.922  21.556  0.00  0.00    +0.000 OA
ATOM     12  O   UNL     1       0.954  14.595  19.318  0.00  0.00    +0.000 OA
BRANCH  10  13
ATOM     13  C   UNL     1      -0.705  14.440  21.313  0.00  0.00    +0.000 C 
BRANCH  13  14
ATOM     14  C   UNL     1      -1.136  13.601  22.476  0.00  0.00    +0.000 C 
ATOM     15  O   UNL     1      -0.464  13.489  23.497  0.00  0.00    +0.000 OA
ATOM     16  N   UNL     1      -2.357  12.952  22.359  0.00  0.00    +0.000 N 
ATOM     17  C   UNL     1      -3.263  12.973  21.205  0.00  0.00    +0.000 C 
ATOM     18  C   UNL     1      -4.688  13.326  21.654  0.00  0.00    +0.000 C 
ATOM     19  O   UNL     1      -5.138  12.453  22.701  0.00  0.00    +0.000 OA
ATOM     20  C   UNL     1      -4.267  12.525  23.843  0.00  0.00    +0.000 C 
ATOM     21  C   UNL     1      -2.839  12.118  23.466  0.00  0.00    +0.000 C 
ENDBRANCH  13  14
ENDBRANCH  10  13
ENDBRANCH   3  10
BRANCH   1  22
ATOM     22  C   UNL     1       1.142   8.672  20.355  0.00  0.00    +0.000 C 
BRANCH  22  24
ATOM     23  N   UNL     1       2.245   6.666  19.346  0.00  0.00    +0.000 N 
ATOM     24  C   UNL     1       1.989   8.048  19.247  0.00  0.00    +0.000 C 
ATOM     25  O   UNL     1       2.415   8.708  18.293  0.00  0.00    +0.000 OA
BRANCH  23  27
ATOM     26  C   UNL     1       4.380   5.811  18.344  0.00  0.00    +0.000 C 
ATOM     27  C   UNL     1       2.881   6.025  18.188  0.00  0.00    +0.000 C 
ENDBRANCH  23  27
BRANCH  23  28
ATOM     28  C   UNL     1       1.780   5.883  20.500  0.00  0.00    +0.000 C 
ATOM     29  C   UNL     1       1.610   4.380  20.354  0.00  0.00    +0.000 C 
ENDBRANCH  23  28
ENDBRANCH  22  24
ENDBRANCH   1  22
TORSDOF 7
ENDMDL
MODEL 9
REMARK VINA RESULT:      -6.2      9.726     13.380
REMARK  Name = 
REMARK  9 active torsions:
REMARK  status: ('A' for Active; 'I' for Inactive)
REMARK    1  A    between atoms: C_1  and  C_2
REMARK    2  A    between atoms: C_2  and  N_3
REMARK    3  A    between atoms: N_3  and  C_4
REMARK    4  A    between atoms: C_4  and  C_5
REMARK    5  A    between atoms: C_6  and  C_8
REMARK    6  A    between atoms: C_8  and  N_9
REMARK    7  A    between atoms: C_11  and  S_12
REMARK    8  A    between atoms: S_12  and  C_15
REMARK    9  A    between atoms: C_15  and  C_16
REMARK                            x       y       z     vdW  Elec       q    Type
REMARK                         _______ _______ _______ _____ _____    ______ ____
ROOT
ATOM      1  N   UNL     1      -3.398  12.719  20.183  0.00  0.00    +0.000 N 
ATOM      2  C   UNL     1      -2.246  12.670  20.926  0.00  0.00    +0.000 A 
ATOM      3  C   UNL     1      -1.340  11.885  20.243  0.00  0.00    +0.000 A 
ATOM      4  C   UNL     1      -1.975  11.395  19.067  0.00  0.00    +0.000 A 
ATOM      5  C   UNL     1      -1.580  10.555  18.004  0.00  0.00    +0.000 A 
ATOM      6  C   UNL     1      -2.475  10.275  16.969  0.00  0.00    +0.000 A 
ATOM      7  C   UNL     1      -3.759  10.804  16.987  0.00  0.00    +0.000 A 
ATOM      8  C   UNL     1      -4.182  11.635  18.029  0.00  0.00    +0.000 A 
ATOM      9  C   UNL     1      -3.272  11.926  19.059  0.00  0.00    +0.000 A 
ENDROOT
BRANCH   3  10
ATOM     10  S   UNL     1       0.290  11.558  20.708  0.00  0.00    +0.000 S 
ATOM     11  O   UNL     1       0.317  11.542  22.157  0.00  0.00    +0.000 OA
ATOM     12  O   UNL     1       0.628  10.362  19.956  0.00  0.00    +0.000 OA
BRANCH  10  13
ATOM     13  C   UNL     1       1.274  12.878  20.071  0.00  0.00    +0.000 C 
BRANCH  13  14
ATOM     14  C   UNL     1       1.285  14.087  20.953  0.00  0.00    +0.000 C 
ATOM     15  O   UNL     1       1.911  14.133  22.007  0.00  0.00    +0.000 OA
ATOM     16  N   UNL     1       0.555  15.184  20.516  0.00  0.00    +0.000 N 
ATOM     17  C   UNL     1      -0.253  15.280  19.296  0.00  0.00    +0.000 C 
ATOM     18  C   UNL     1       0.120  16.544  18.508  0.00  0.00    +0.000 C 
ATOM     19  O   UNL     1       0.030  17.718  19.330  0.00  0.00    +0.000 OA
ATOM     20  C   UNL     1       0.899  17.616  20.471  0.00  0.00    +0.000 C 
ATOM     21  C   UNL     1       0.530  16.404  21.331  0.00  0.00    +0.000 C 
ENDBRANCH  13  14
ENDBRANCH  10  13
ENDBRANCH   3  10
BRANCH   1  22
ATOM     22  C   UNL     1      -4.595  13.464  20.562  0.00  0.00    +0.000 C 
BRANCH  22  24
ATOM     23  N   UNL     1      -5.440  13.253  22.907  0.00  0.00    +0.000 N 
ATOM     24  C   UNL     1      -5.457  12.739  21.595  0.00  0.00    +0.000 C 
ATOM     25  O   UNL     1      -6.156  11.765  21.300  0.00  0.00    +0.000 OA
BRANCH  23  27
ATOM     26  C   UNL     1      -7.575  13.625  24.170  0.00  0.00    +0.000 C 
ATOM     27  C   UNL     1      -6.416  12.691  23.850  0.00  0.00    +0.000 C 
ENDBRANCH  23  27
BRANCH  23  28
ATOM     28  C   UNL     1      -4.576  14.384  23.274  0.00  0.00    +0.000 C 
ATOM     29  C   UNL     1      -3.458  14.166  24.280  0.00  0.00    +0.000 C 
ENDBRANCH  23  28
ENDBRANCH  22  24
ENDBRANCH   1  22
TORSDOF 7
ENDMDL
