MODEL 1
REMARK VINA RESULT:      -8.3      0.000      0.000
REMARK  Name = 
REMARK  4 active torsions:
REMARK  status: ('A' for Active; 'I' for Inactive)
REMARK    1  A    between atoms: C_2  and  C_10
REMARK    2  A    between atoms: N_3  and  C_4
REMARK    3  A    between atoms: C_15  and  S_16
REMARK    4  A    between atoms: S_16  and  N_19
REMARK                            x       y       z     vdW  Elec       q    Type
REMARK                         _______ _______ _______ _____ _____    ______ ____
ROOT
ATOM      1  C   UNL     1       2.712   7.132  18.674  0.00  0.00    +0.000 A 
ATOM      2  C   UNL     1       2.249   6.496  19.826  0.00  0.00    +0.000 A 
ATOM      3  C   UNL     1       2.744   5.231  20.158  0.00  0.00    +0.000 A 
ATOM      4  C   UNL     1       3.696   4.588  19.345  0.00  0.00    +0.000 A 
ATOM      5 BR   UNL     1       4.183   2.839  19.896  0.00  0.00    +0.000 Br
ATOM      6  C   UNL     1       4.162   5.229  18.192  0.00  0.00    +0.000 A 
ATOM      7  C   UNL     1       3.666   6.503  17.866  0.00  0.00    +0.000 A 
ENDROOT
BRANCH   1   9
ATOM      8  O   UNL     1       2.527   8.833  17.116  0.00  0.00    +0.000 OA
ATOM      9  C   UNL     1       2.166   8.435  18.218  0.00  0.00    +0.000 C 
ATOM     10  N   UNL     1       1.340   9.096  19.112  0.00  0.00    +0.000 N 
ATOM     11  H   UNL     1       1.277   8.731  20.053  0.00  0.00    +0.000 HD
BRANCH  10  12
ATOM     12  C   UNL     1       0.717  10.344  18.883  0.00  0.00    +0.000 A 
ATOM     13  C   UNL     1       1.383  11.564  19.006  0.00  0.00    +0.000 A 
ATOM     14  C   UNL     1       0.711  12.772  18.803  0.00  0.00    +0.000 A 
ATOM     15  C   UNL     1      -0.640  12.770  18.468  0.00  0.00    +0.000 A 
ATOM     16  C   UNL     1      -1.311  11.559  18.319  0.00  0.00    +0.000 A 
ATOM     17  C   UNL     1      -0.635  10.349  18.516  0.00  0.00    +0.000 A 
ENDBRANCH  10  12
ENDBRANCH   1   9
BRANCH   6  18
ATOM     18  S   UNL     1       5.418   4.561  17.116  0.00  0.00    +0.000 S 
ATOM     19  O   UNL     1       6.698   4.734  17.774  0.00  0.00    +0.000 OA
ATOM     20  O   UNL     1       5.012   3.237  16.702  0.00  0.00    +0.000 OA
BRANCH  18  21
ATOM     21  N   UNL     1       5.368   5.554  15.752  0.00  0.00    +0.000 N 
ATOM     22  C   UNL     1       5.956   5.018  14.589  0.00  0.00    +0.000 A 
ATOM     23  C   UNL     1       5.294   4.115  13.773  0.00  0.00    +0.000 A 
ATOM     24  C   UNL     1       5.961   3.650  12.642  0.00  0.00    +0.000 A 
ATOM     25  C   UNL     1       7.258   4.085  12.394  0.00  0.00    +0.000 A 
ATOM     26  C   UNL     1       7.836   4.972  13.291  0.00  0.00    +0.000 A 
ATOM     27  N   UNL     1       7.208   5.459  14.387  0.00  0.00    +0.000 NA
ATOM     28  H   UNL     1       5.775   6.463  15.960  0.00  0.00    +0.000 HD
ENDBRANCH  18  21
ENDBRANCH   6  18
TORSDOF 4
ENDMDL
MODEL 2
REMARK VINA RESULT:      -8.1      2.132      2.354
REMARK  Name = 
REMARK  4 active torsions:
REMARK  status: ('A' for Active; 'I' for Inactive)
REMARK    1  A    between atoms: C_2  and  C_10
REMARK    2  A    between atoms: N_3  and  C_4
REMARK    3  A    between atoms: C_15  and  S_16
REMARK    4  A    between atoms: S_16  and  N_19
REMARK                            x       y       z     vdW  Elec       q    Type
REMARK                         _______ _______ _______ _____ _____    ______ ____
ROOT
ATOM      1  C   UNL     1       2.334   6.364  20.139  0.00  0.00    +0.000 A 
ATOM      2  C   UNL     1       1.631   5.218  20.515  0.00  0.00    +0.000 A 
ATOM      3  C   UNL     1       2.228   3.964  20.357  0.00  0.00    +0.000 A 
ATOM      4  C   UNL     1       3.523   3.839  19.821  0.00  0.00    +0.000 A 
ATOM      5 BR   UNL     1       4.136   2.058  19.590  0.00  0.00    +0.000 Br
ATOM      6  C   UNL     1       4.227   4.989  19.447  0.00  0.00    +0.000 A 
ATOM      7  C   UNL     1       3.625   6.248  19.614  0.00  0.00    +0.000 A 
ENDROOT
BRANCH   1   9
ATOM      8  O   UNL     1       1.821   8.412  19.195  0.00  0.00    +0.000 OA
ATOM      9  C   UNL     1       1.727   7.717  20.200  0.00  0.00    +0.000 C 
ATOM     10  N   UNL     1       1.159   8.077  21.410  0.00  0.00    +0.000 N 
ATOM     11  H   UNL     1       1.315   7.469  22.204  0.00  0.00    +0.000 HD
BRANCH  10  12
ATOM     12  C   UNL     1       0.530   9.313  21.685  0.00  0.00    +0.000 A 
ATOM     13  C   UNL     1       0.725  10.458  20.911  0.00  0.00    +0.000 A 
ATOM     14  C   UNL     1       0.107  11.665  21.247  0.00  0.00    +0.000 A 
ATOM     15  C   UNL     1      -0.720  11.737  22.364  0.00  0.00    +0.000 A 
ATOM     16  C   UNL     1      -0.942  10.596  23.131  0.00  0.00    +0.000 A 
ATOM     17  C   UNL     1      -0.328   9.386  22.791  0.00  0.00    +0.000 A 
ENDBRANCH  10  12
ENDBRANCH   1   9
BRANCH   6  18
ATOM     18  S   UNL     1       5.899   4.978  18.825  0.00  0.00    +0.000 S 
ATOM     19  O   UNL     1       6.757   5.526  19.857  0.00  0.00    +0.000 OA
ATOM     20  O   UNL     1       6.184   3.662  18.298  0.00  0.00    +0.000 OA
BRANCH  18  21
ATOM     21  N   UNL     1       5.864   6.047  17.520  0.00  0.00    +0.000 N 
ATOM     22  C   UNL     1       6.022   5.460  16.249  0.00  0.00    +0.000 A 
ATOM     23  C   UNL     1       4.975   4.844  15.581  0.00  0.00    +0.000 A 
ATOM     24  C   UNL     1       5.235   4.300  14.326  0.00  0.00    +0.000 A 
ATOM     25  C   UNL     1       6.525   4.372  13.810  0.00  0.00    +0.000 A 
ATOM     26  C   UNL     1       7.504   4.989  14.574  0.00  0.00    +0.000 A 
ATOM     27  N   UNL     1       7.280   5.546  15.787  0.00  0.00    +0.000 NA
ATOM     28  H   UNL     1       6.550   6.787  17.649  0.00  0.00    +0.000 HD
ENDBRANCH  18  21
ENDBRANCH   6  18
TORSDOF 4
ENDMDL
MODEL 3
REMARK VINA RESULT:      -7.9      4.008      8.722
REMARK  Name = 
REMARK  4 active torsions:
REMARK  status: ('A' for Active; 'I' for Inactive)
REMARK    1  A    between atoms: C_2  and  C_10
REMARK    2  A    between atoms: N_3  and  C_4
REMARK    3  A    between atoms: C_15  and  S_16
REMARK    4  A    between atoms: S_16  and  N_19
REMARK                            x       y       z     vdW  Elec       q    Type
REMARK                         _______ _______ _______ _____ _____    ______ ____
ROOT
ATOM      1  C   UNL     1       1.554   8.614  19.415  0.00  0.00    +0.000 A 
ATOM      2  C   UNL     1       1.563   8.091  20.708  0.00  0.00    +0.000 A 
ATOM      3  C   UNL     1       0.797   8.707  21.703  0.00  0.00    +0.000 A 
ATOM      4  C   UNL     1       0.023   9.848  21.420  0.00  0.00    +0.000 A 
ATOM      5 BR   UNL     1      -0.876  10.606  22.910  0.00  0.00    +0.000 Br
ATOM      6  C   UNL     1       0.014  10.369  20.121  0.00  0.00    +0.000 A 
ATOM      7  C   UNL     1       0.780   9.743  19.124  0.00  0.00    +0.000 A 
ENDROOT
BRANCH   1   9
ATOM      8  O   UNL     1       2.479   8.709  17.296  0.00  0.00    +0.000 OA
ATOM      9  C   UNL     1       2.410   8.062  18.334  0.00  0.00    +0.000 C 
ATOM     10  N   UNL     1       3.006   6.840  18.594  0.00  0.00    +0.000 N 
ATOM     11  H   UNL     1       2.714   6.339  19.423  0.00  0.00    +0.000 HD
BRANCH  10  12
ATOM     12  C   UNL     1       3.855   6.137  17.708  0.00  0.00    +0.000 A 
ATOM     13  C   UNL     1       4.916   6.738  17.030  0.00  0.00    +0.000 A 
ATOM     14  C   UNL     1       5.704   6.006  16.137  0.00  0.00    +0.000 A 
ATOM     15  C   UNL     1       5.438   4.657  15.918  0.00  0.00    +0.000 A 
ATOM     16  C   UNL     1       4.397   4.040  16.605  0.00  0.00    +0.000 A 
ATOM     17  C   UNL     1       3.612   4.772  17.504  0.00  0.00    +0.000 A 
ENDBRANCH  10  12
ENDBRANCH   1   9
BRANCH   6  18
ATOM     18  S   UNL     1      -0.978  11.762  19.612  0.00  0.00    +0.000 S 
ATOM     19  O   UNL     1      -1.013  12.704  20.713  0.00  0.00    +0.000 OA
ATOM     20  O   UNL     1      -0.512  12.208  18.318  0.00  0.00    +0.000 OA
BRANCH  18  21
ATOM     21  N   UNL     1      -2.522  11.116  19.397  0.00  0.00    +0.000 N 
ATOM     22  C   UNL     1      -2.890  10.851  18.063  0.00  0.00    +0.000 A 
ATOM     23  C   UNL     1      -2.481   9.706  17.395  0.00  0.00    +0.000 A 
ATOM     24  C   UNL     1      -2.904   9.535  16.080  0.00  0.00    +0.000 A 
ATOM     25  C   UNL     1      -3.689  10.518  15.487  0.00  0.00    +0.000 A 
ATOM     26  C   UNL     1      -4.020  11.636  16.239  0.00  0.00    +0.000 A 
ATOM     27  N   UNL     1      -3.643  11.824  17.526  0.00  0.00    +0.000 NA
ATOM     28  H   UNL     1      -3.220  11.711  19.838  0.00  0.00    +0.000 HD
ENDBRANCH  18  21
ENDBRANCH   6  18
TORSDOF 4
ENDMDL
MODEL 4
REMARK VINA RESULT:      -7.7      2.390      2.940
REMARK  Name = 
REMARK  4 active torsions:
REMARK  status: ('A' for Active; 'I' for Inactive)
REMARK    1  A    between atoms: C_2  and  C_10
REMARK    2  A    between atoms: N_3  and  C_4
REMARK    3  A    between atoms: C_15  and  S_16
REMARK    4  A    between atoms: S_16  and  N_19
REMARK                            x       y       z     vdW  Elec       q    Type
REMARK                         _______ _______ _______ _____ _____    ______ ____
ROOT
ATOM      1  C   UNL     1       2.033   7.235  19.083  0.00  0.00    +0.000 A 
ATOM      2  C   UNL     1       1.780   6.947  20.424  0.00  0.00    +0.000 A 
ATOM      3  C   UNL     1       1.927   5.635  20.884  0.00  0.00    +0.000 A 
ATOM      4  C   UNL     1       2.322   4.601  20.014  0.00  0.00    +0.000 A 
ATOM      5 BR   UNL     1       2.379   2.869  20.787  0.00  0.00    +0.000 Br
ATOM      6  C   UNL     1       2.579   4.893  18.670  0.00  0.00    +0.000 A 
ATOM      7  C   UNL     1       2.435   6.215  18.215  0.00  0.00    +0.000 A 
ENDROOT
BRANCH   1   9
ATOM      8  O   UNL     1       2.344   8.827  17.433  0.00  0.00    +0.000 OA
ATOM      9  C   UNL     1       1.813   8.588  18.511  0.00  0.00    +0.000 C 
ATOM     10  N   UNL     1       1.067   9.462  19.283  0.00  0.00    +0.000 N 
ATOM     11  H   UNL     1       0.846   9.183  20.231  0.00  0.00    +0.000 HD
BRANCH  10  12
ATOM     12  C   UNL     1       0.740  10.791  18.931  0.00  0.00    +0.000 A 
ATOM     13  C   UNL     1       1.679  11.823  18.887  0.00  0.00    +0.000 A 
ATOM     14  C   UNL     1       1.297  13.128  18.568  0.00  0.00    +0.000 A 
ATOM     15  C   UNL     1      -0.035  13.414  18.283  0.00  0.00    +0.000 A 
ATOM     16  C   UNL     1      -0.978  12.390  18.301  0.00  0.00    +0.000 A 
ATOM     17  C   UNL     1      -0.594  11.081  18.614  0.00  0.00    +0.000 A 
ENDBRANCH  10  12
ENDBRANCH   1   9
BRANCH   6  18
ATOM     18  S   UNL     1       3.157   3.696  17.481  0.00  0.00    +0.000 S 
ATOM     19  O   UNL     1       2.190   2.616  17.438  0.00  0.00    +0.000 OA
ATOM     20  O   UNL     1       3.493   4.389  16.257  0.00  0.00    +0.000 OA
BRANCH  18  21
ATOM     21  N   UNL     1       4.596   3.114  18.142  0.00  0.00    +0.000 N 
ATOM     22  C   UNL     1       5.640   4.054  18.249  0.00  0.00    +0.000 A 
ATOM     23  C   UNL     1       5.708   4.970  19.287  0.00  0.00    +0.000 A 
ATOM     24  C   UNL     1       6.784   5.854  19.304  0.00  0.00    +0.000 A 
ATOM     25  C   UNL     1       7.723   5.798  18.279  0.00  0.00    +0.000 A 
ATOM     26  C   UNL     1       7.545   4.857  17.276  0.00  0.00    +0.000 A 
ATOM     27  N   UNL     1       6.522   3.971  17.240  0.00  0.00    +0.000 NA
ATOM     28  H   UNL     1       4.917   2.295  17.629  0.00  0.00    +0.000 HD
ENDBRANCH  18  21
ENDBRANCH   6  18
TORSDOF 4
ENDMDL
MODEL 5
REMARK VINA RESULT:      -7.7      1.404      1.794
REMARK  Name = 
REMARK  4 active torsions:
REMARK  status: ('A' for Active; 'I' for Inactive)
REMARK    1  A    between atoms: C_2  and  C_10
REMARK    2  A    between atoms: N_3  and  C_4
REMARK    3  A    between atoms: C_15  and  S_16
REMARK    4  A    between atoms: S_16  and  N_19
REMARK                            x       y       z     vdW  Elec       q    Type
REMARK                         _______ _______ _______ _____ _____    ______ ____
ROOT
ATOM      1  C   UNL     1       2.725   7.010  18.652  0.00  0.00    +0.000 A 
ATOM      2  C   UNL     1       1.909   5.974  19.108  0.00  0.00    +0.000 A 
ATOM      3  C   UNL     1       2.485   4.749  19.456  0.00  0.00    +0.000 A 
ATOM      4  C   UNL     1       3.874   4.543  19.348  0.00  0.00    +0.000 A 
ATOM      5 BR   UNL     1       4.468   2.791  19.772  0.00  0.00    +0.000 Br
ATOM      6  C   UNL     1       4.690   5.584  18.894  0.00  0.00    +0.000 A 
ATOM      7  C   UNL     1       4.107   6.816  18.551  0.00  0.00    +0.000 A 
ENDROOT
BRANCH   1   9
ATOM      8  O   UNL     1       2.533   8.700  17.083  0.00  0.00    +0.000 OA
ATOM      9  C   UNL     1       2.170   8.305  18.185  0.00  0.00    +0.000 C 
ATOM     10  N   UNL     1       1.332   8.963  19.070  0.00  0.00    +0.000 N 
ATOM     11  H   UNL     1       1.266   8.604  20.013  0.00  0.00    +0.000 HD
BRANCH  10  12
ATOM     12  C   UNL     1       0.698  10.204  18.829  0.00  0.00    +0.000 A 
ATOM     13  C   UNL     1       1.342  11.433  18.983  0.00  0.00    +0.000 A 
ATOM     14  C   UNL     1       0.659  12.632  18.767  0.00  0.00    +0.000 A 
ATOM     15  C   UNL     1      -0.680  12.613  18.388  0.00  0.00    +0.000 A 
ATOM     16  C   UNL     1      -1.328  11.394  18.208  0.00  0.00    +0.000 A 
ATOM     17  C   UNL     1      -0.641  10.192  18.419  0.00  0.00    +0.000 A 
ENDBRANCH  10  12
ENDBRANCH   1   9
BRANCH   6  18
ATOM     18  S   UNL     1       6.468   5.482  18.780  0.00  0.00    +0.000 S 
ATOM     19  O   UNL     1       6.930   6.641  18.043  0.00  0.00    +0.000 OA
ATOM     20  O   UNL     1       6.999   5.230  20.101  0.00  0.00    +0.000 OA
BRANCH  18  21
ATOM     21  N   UNL     1       6.746   4.099  17.853  0.00  0.00    +0.000 N 
ATOM     22  C   UNL     1       6.497   4.233  16.473  0.00  0.00    +0.000 A 
ATOM     23  C   UNL     1       7.411   4.815  15.608  0.00  0.00    +0.000 A 
ATOM     24  C   UNL     1       7.071   4.893  14.260  0.00  0.00    +0.000 A 
ATOM     25  C   UNL     1       5.834   4.413  13.843  0.00  0.00    +0.000 A 
ATOM     26  C   UNL     1       4.985   3.872  14.798  0.00  0.00    +0.000 A 
ATOM     27  N   UNL     1       5.292   3.762  16.112  0.00  0.00    +0.000 NA
ATOM     28  H   UNL     1       6.222   3.311  18.226  0.00  0.00    +0.000 HD
ENDBRANCH  18  21
ENDBRANCH   6  18
TORSDOF 4
ENDMDL
MODEL 6
REMARK VINA RESULT:      -7.7      3.214      4.526
REMARK  Name = 
REMARK  4 active torsions:
REMARK  status: ('A' for Active; 'I' for Inactive)
REMARK    1  A    between atoms: C_2  and  C_10
REMARK    2  A    between atoms: N_3  and  C_4
REMARK    3  A    between atoms: C_15  and  S_16
REMARK    4  A    between atoms: S_16  and  N_19
REMARK                            x       y       z     vdW  Elec       q    Type
REMARK                         _______ _______ _______ _____ _____    ______ ____
ROOT
ATOM      1  C   UNL     1       2.726   7.204  19.074  0.00  0.00    +0.000 A 
ATOM      2  C   UNL     1       2.778   7.882  17.855  0.00  0.00    +0.000 A 
ATOM      3  C   UNL     1       3.704   7.481  16.886  0.00  0.00    +0.000 A 
ATOM      4  C   UNL     1       4.585   6.409  17.124  0.00  0.00    +0.000 A 
ATOM      5 BR   UNL     1       5.835   6.066  15.738  0.00  0.00    +0.000 Br
ATOM      6  C   UNL     1       4.529   5.730  18.346  0.00  0.00    +0.000 A 
ATOM      7  C   UNL     1       3.593   6.133  19.314  0.00  0.00    +0.000 A 
ENDROOT
BRANCH   1   9
ATOM      8  O   UNL     1       1.419   6.756  20.930  0.00  0.00    +0.000 OA
ATOM      9  C   UNL     1       1.829   7.632  20.176  0.00  0.00    +0.000 C 
ATOM     10  N   UNL     1       1.504   8.977  20.210  0.00  0.00    +0.000 N 
ATOM     11  H   UNL     1       1.772   9.547  19.419  0.00  0.00    +0.000 HD
BRANCH  10  12
ATOM     12  C   UNL     1       0.668   9.595  21.169  0.00  0.00    +0.000 A 
ATOM     13  C   UNL     1       0.606   9.188  22.503  0.00  0.00    +0.000 A 
ATOM     14  C   UNL     1      -0.264   9.809  23.403  0.00  0.00    +0.000 A 
ATOM     15  C   UNL     1      -1.080  10.853  22.975  0.00  0.00    +0.000 A 
ATOM     16  C   UNL     1      -1.011  11.284  21.653  0.00  0.00    +0.000 A 
ATOM     17  C   UNL     1      -0.135  10.665  20.754  0.00  0.00    +0.000 A 
ENDBRANCH  10  12
ENDBRANCH   1   9
BRANCH   6  18
ATOM     18  S   UNL     1       5.534   4.312  18.747  0.00  0.00    +0.000 S 
ATOM     19  O   UNL     1       6.845   4.522  18.164  0.00  0.00    +0.000 OA
ATOM     20  O   UNL     1       5.428   4.060  20.167  0.00  0.00    +0.000 OA
BRANCH  18  21
ATOM     21  N   UNL     1       4.781   3.029  17.950  0.00  0.00    +0.000 N 
ATOM     22  C   UNL     1       3.401   2.887  18.196  0.00  0.00    +0.000 A 
ATOM     23  C   UNL     1       2.450   3.656  17.543  0.00  0.00    +0.000 A 
ATOM     24  C   UNL     1       1.110   3.433  17.853  0.00  0.00    +0.000 A 
ATOM     25  C   UNL     1       0.786   2.478  18.811  0.00  0.00    +0.000 A 
ATOM     26  C   UNL     1       1.820   1.783  19.421  0.00  0.00    +0.000 A 
ATOM     27  N   UNL     1       3.130   1.960  19.128  0.00  0.00    +0.000 NA
ATOM     28  H   UNL     1       5.262   2.155  18.152  0.00  0.00    +0.000 HD
ENDBRANCH  18  21
ENDBRANCH   6  18
TORSDOF 4
ENDMDL
MODEL 7
REMARK VINA RESULT:      -7.7      2.228      2.662
REMARK  Name = 
REMARK  4 active torsions:
REMARK  status: ('A' for Active; 'I' for Inactive)
REMARK    1  A    between atoms: C_2  and  C_10
REMARK    2  A    between atoms: N_3  and  C_4
REMARK    3  A    between atoms: C_15  and  S_16
REMARK    4  A    between atoms: S_16  and  N_19
REMARK                            x       y       z     vdW  Elec       q    Type
REMARK                         _______ _______ _______ _____ _____    ______ ____
ROOT
ATOM      1  C   UNL     1       2.306   6.476  20.122  0.00  0.00    +0.000 A 
ATOM      2  C   UNL     1       1.650   5.297  20.478  0.00  0.00    +0.000 A 
ATOM      3  C   UNL     1       2.303   4.072  20.314  0.00  0.00    +0.000 A 
ATOM      4  C   UNL     1       3.609   4.009  19.793  0.00  0.00    +0.000 A 
ATOM      5 BR   UNL     1       4.302   2.259  19.552  0.00  0.00    +0.000 Br
ATOM      6  C   UNL     1       4.266   5.193  19.440  0.00  0.00    +0.000 A 
ATOM      7  C   UNL     1       3.607   6.422  19.611  0.00  0.00    +0.000 A 
ENDROOT
BRANCH   1   9
ATOM      8  O   UNL     1       1.572   8.441  19.145  0.00  0.00    +0.000 OA
ATOM      9  C   UNL     1       1.640   7.801  20.188  0.00  0.00    +0.000 C 
ATOM     10  N   UNL     1       1.206   8.203  21.440  0.00  0.00    +0.000 N 
ATOM     11  H   UNL     1       1.492   7.650  22.238  0.00  0.00    +0.000 HD
BRANCH  10  12
ATOM     12  C   UNL     1       0.551   9.422  21.728  0.00  0.00    +0.000 A 
ATOM     13  C   UNL     1       0.817  10.611  21.047  0.00  0.00    +0.000 A 
ATOM     14  C   UNL     1       0.167  11.798  21.395  0.00  0.00    +0.000 A 
ATOM     15  C   UNL     1      -0.765  11.805  22.429  0.00  0.00    +0.000 A 
ATOM     16  C   UNL     1      -1.057  10.621  23.100  0.00  0.00    +0.000 A 
ATOM     17  C   UNL     1      -0.410   9.431  22.747  0.00  0.00    +0.000 A 
ENDBRANCH  10  12
ENDBRANCH   1   9
BRANCH   6  18
ATOM     18  S   UNL     1       5.944   5.261  18.838  0.00  0.00    +0.000 S 
ATOM     19  O   UNL     1       6.069   6.448  18.015  0.00  0.00    +0.000 OA
ATOM     20  O   UNL     1       6.842   5.083  19.958  0.00  0.00    +0.000 OA
BRANCH  18  21
ATOM     21  N   UNL     1       6.089   3.898  17.854  0.00  0.00    +0.000 N 
ATOM     22  C   UNL     1       6.158   4.151  16.470  0.00  0.00    +0.000 A 
ATOM     23  C   UNL     1       7.332   4.542  15.846  0.00  0.00    +0.000 A 
ATOM     24  C   UNL     1       7.296   4.761  14.472  0.00  0.00    +0.000 A 
ATOM     25  C   UNL     1       6.092   4.606  13.792  0.00  0.00    +0.000 A 
ATOM     26  C   UNL     1       4.970   4.236  14.520  0.00  0.00    +0.000 A 
ATOM     27  N   UNL     1       4.976   3.994  15.852  0.00  0.00    +0.000 NA
ATOM     28  H   UNL     1       5.339   3.238  18.050  0.00  0.00    +0.000 HD
ENDBRANCH  18  21
ENDBRANCH   6  18
TORSDOF 4
ENDMDL
MODEL 8
REMARK VINA RESULT:      -7.6      1.504      1.672
REMARK  Name = 
REMARK  4 active torsions:
REMARK  status: ('A' for Active; 'I' for Inactive)
REMARK    1  A    between atoms: C_2  and  C_10
REMARK    2  A    between atoms: N_3  and  C_4
REMARK    3  A    between atoms: C_15  and  S_16
REMARK    4  A    between atoms: S_16  and  N_19
REMARK                            x       y       z     vdW  Elec       q    Type
REMARK                         _______ _______ _______ _____ _____    ______ ____
ROOT
ATOM      1  C   UNL     1       2.235   6.509  20.117  0.00  0.00    +0.000 A 
ATOM      2  C   UNL     1       1.473   5.391  20.460  0.00  0.00    +0.000 A 
ATOM      3  C   UNL     1       2.013   4.113  20.285  0.00  0.00    +0.000 A 
ATOM      4  C   UNL     1       3.309   3.938  19.764  0.00  0.00    +0.000 A 
ATOM      5 BR   UNL     1       3.841   2.135  19.507  0.00  0.00    +0.000 Br
ATOM      6  C   UNL     1       4.072   5.061  19.424  0.00  0.00    +0.000 A 
ATOM      7  C   UNL     1       3.527   6.343  19.607  0.00  0.00    +0.000 A 
ENDROOT
BRANCH   1   9
ATOM      8  O   UNL     1       1.356   8.290  21.305  0.00  0.00    +0.000 OA
ATOM      9  C   UNL     1       1.691   7.888  20.196  0.00  0.00    +0.000 C 
ATOM     10  N   UNL     1       1.571   8.566  18.995  0.00  0.00    +0.000 N 
ATOM     11  H   UNL     1       1.719   8.043  18.142  0.00  0.00    +0.000 HD
BRANCH  10  12
ATOM     12  C   UNL     1       1.079   9.883  18.842  0.00  0.00    +0.000 A 
ATOM     13  C   UNL     1       1.907  10.989  18.644  0.00  0.00    +0.000 A 
ATOM     14  C   UNL     1       1.371  12.275  18.535  0.00  0.00    +0.000 A 
ATOM     15  C   UNL     1      -0.005  12.466  18.617  0.00  0.00    +0.000 A 
ATOM     16  C   UNL     1      -0.843  11.368  18.791  0.00  0.00    +0.000 A 
ATOM     17  C   UNL     1      -0.307  10.080  18.894  0.00  0.00    +0.000 A 
ENDBRANCH  10  12
ENDBRANCH   1   9
BRANCH   6  18
ATOM     18  S   UNL     1       5.750   4.983  18.826  0.00  0.00    +0.000 S 
ATOM     19  O   UNL     1       6.615   5.491  19.872  0.00  0.00    +0.000 OA
ATOM     20  O   UNL     1       5.989   3.658  18.297  0.00  0.00    +0.000 OA
BRANCH  18  21
ATOM     21  N   UNL     1       5.778   6.057  17.525  0.00  0.00    +0.000 N 
ATOM     22  C   UNL     1       5.980   5.474  16.258  0.00  0.00    +0.000 A 
ATOM     23  C   UNL     1       4.953   4.873  15.548  0.00  0.00    +0.000 A 
ATOM     24  C   UNL     1       5.256   4.330  14.301  0.00  0.00    +0.000 A 
ATOM     25  C   UNL     1       6.565   4.390  13.836  0.00  0.00    +0.000 A 
ATOM     26  C   UNL     1       7.521   4.993  14.641  0.00  0.00    +0.000 A 
ATOM     27  N   UNL     1       7.256   5.548  15.847  0.00  0.00    +0.000 NA
ATOM     28  H   UNL     1       6.467   6.790  17.684  0.00  0.00    +0.000 HD
ENDBRANCH  18  21
ENDBRANCH   6  18
TORSDOF 4
ENDMDL
MODEL 9
REMARK VINA RESULT:      -7.6      1.165      1.589
REMARK  Name = 
REMARK  4 active torsions:
REMARK  status: ('A' for Active; 'I' for Inactive)
REMARK    1  A    between atoms: C_2  and  C_10
REMARK    2  A    between atoms: N_3  and  C_4
REMARK    3  A    between atoms: C_15  and  S_16
REMARK    4  A    between atoms: S_16  and  N_19
REMARK                            x       y       z     vdW  Elec       q    Type
REMARK                         _______ _______ _______ _____ _____    ______ ____
ROOT
ATOM      1  C   UNL     1       2.176   7.355  19.505  0.00  0.00    +0.000 A 
ATOM      2  C   UNL     1       1.394   6.613  20.391  0.00  0.00    +0.000 A 
ATOM      3  C   UNL     1       1.801   5.325  20.752  0.00  0.00    +0.000 A 
ATOM      4  C   UNL     1       2.984   4.765  20.233  0.00  0.00    +0.000 A 
ATOM      5 BR   UNL     1       3.331   2.975  20.758  0.00  0.00    +0.000 Br
ATOM      6  C   UNL     1       3.768   5.512  19.347  0.00  0.00    +0.000 A 
ATOM      7  C   UNL     1       3.357   6.808  18.992  0.00  0.00    +0.000 A 
ENDROOT
BRANCH   1   9
ATOM      8  O   UNL     1       2.289   9.095  17.985  0.00  0.00    +0.000 OA
ATOM      9  C   UNL     1       1.758   8.692  19.013  0.00  0.00    +0.000 C 
ATOM     10  N   UNL     1       0.843   9.371  19.799  0.00  0.00    +0.000 N 
ATOM     11  H   UNL     1       0.630   8.990  20.712  0.00  0.00    +0.000 HD
BRANCH  10  12
ATOM     12  C   UNL     1       0.314  10.652  19.519  0.00  0.00    +0.000 A 
ATOM     13  C   UNL     1      -0.887  10.849  18.835  0.00  0.00    +0.000 A 
ATOM     14  C   UNL     1      -1.348  12.138  18.552  0.00  0.00    +0.000 A 
ATOM     15  C   UNL     1      -0.611  13.246  18.959  0.00  0.00    +0.000 A 
ATOM     16  C   UNL     1       0.575  13.064  19.664  0.00  0.00    +0.000 A 
ATOM     17  C   UNL     1       1.034  11.773  19.952  0.00  0.00    +0.000 A 
ENDBRANCH  10  12
ENDBRANCH   1   9
BRANCH   6  18
ATOM     18  S   UNL     1       5.322   4.953  18.674  0.00  0.00    +0.000 S 
ATOM     19  O   UNL     1       6.330   5.109  19.705  0.00  0.00    +0.000 OA
ATOM     20  O   UNL     1       5.123   3.652  18.076  0.00  0.00    +0.000 OA
BRANCH  18  21
ATOM     21  N   UNL     1       5.648   6.038  17.423  0.00  0.00    +0.000 N 
ATOM     22  C   UNL     1       5.947   5.456  16.176  0.00  0.00    +0.000 A 
ATOM     23  C   UNL     1       4.960   4.995  15.318  0.00  0.00    +0.000 A 
ATOM     24  C   UNL     1       5.360   4.441  14.105  0.00  0.00    +0.000 A 
ATOM     25  C   UNL     1       6.717   4.350  13.816  0.00  0.00    +0.000 A 
ATOM     26  C   UNL     1       7.622   4.820  14.757  0.00  0.00    +0.000 A 
ATOM     27  N   UNL     1       7.266   5.383  15.936  0.00  0.00    +0.000 NA
ATOM     28  H   UNL     1       6.391   6.679  17.694  0.00  0.00    +0.000 HD
ENDBRANCH  18  21
ENDBRANCH   6  18
TORSDOF 4
ENDMDL
