MODEL 1
REMARK VINA RESULT:      -7.7      0.000      0.000
REMARK  Name = 
REMARK  8 active torsions:
REMARK  status: ('A' for Active; 'I' for Inactive)
REMARK    1  A    between atoms: C_1  and  O_2
REMARK    2  A    between atoms: O_2  and  C_3
REMARK    3  A    between atoms: C_6  and  C_7
REMARK    4  A    between atoms: N_8  and  N_9
REMARK    5  A    between atoms: C_12  and  C_13
REMARK    6  A    between atoms: C_21  and  C_22
REMARK    7  A    between atoms: C_27  and  O_28
REMARK    8  A    between atoms: O_28  and  C_29
REMARK                            x       y       z     vdW  Elec       q    Type
REMARK                         _______ _______ _______ _____ _____    ______ ____
ROOT
ATOM      1  N   UNL     1       1.972   9.983  18.252  0.00  0.00    +0.000 N 
ATOM      2  C   UNL     1       1.154  10.541  19.262  0.00  0.00    +0.000 A 
ATOM      3  N   UNL     1       0.736  11.804  19.083  0.00  0.00    +0.000 NA
ATOM      4  C   UNL     1      -0.057  12.356  20.032  0.00  0.00    +0.000 A 
ATOM      5  C   UNL     1      -0.416  11.665  21.169  0.00  0.00    +0.000 A 
ATOM      6  C   UNL     1       0.069  10.383  21.305  0.00  0.00    +0.000 A 
ATOM      7  N   UNL     1       0.845   9.815  20.350  0.00  0.00    +0.000 NA
ATOM      8  H   UNL     1       1.917  10.600  17.448  0.00  0.00    +0.000 HD
ENDROOT
BRANCH   4   9
ATOM      9  C   UNL     1      -0.483  13.758  19.806  0.00  0.00    +0.000 A 
ATOM     10  C   UNL     1      -1.468  14.378  20.603  0.00  0.00    +0.000 A 
ATOM     11  C   UNL     1      -1.838  15.712  20.402  0.00  0.00    +0.000 A 
ATOM     12  C   UNL     1      -1.231  16.452  19.392  0.00  0.00    +0.000 A 
ATOM     13 CL   UNL     1      -1.689  18.089  19.139  0.00  0.00    +0.000 Cl
ATOM     14  C   UNL     1      -0.259  15.869  18.586  0.00  0.00    +0.000 A 
ATOM     15  C   UNL     1       0.108  14.534  18.792  0.00  0.00    +0.000 A 
ENDBRANCH   4   9
BRANCH   6  16
ATOM     16  C   UNL     1      -0.229   9.588  22.563  0.00  0.00    +0.000 C 
ATOM     17  F   UNL     1       0.899   9.286  23.278  0.00  0.00    +0.000 F 
ATOM     18  F   UNL     1      -1.041  10.243  23.440  0.00  0.00    +0.000 F 
ATOM     19  F   UNL     1      -0.820   8.388  22.310  0.00  0.00    +0.000 F 
ENDBRANCH   6  16
BRANCH   1  21
ATOM     20  C   UNL     1       2.978   7.968  18.095  0.00  0.00    +0.000 C 
ATOM     21  N   UNL     1       1.866   8.635  18.041  0.00  0.00    +0.000 NA
BRANCH  20  25
ATOM     22  C   UNL     1       2.916   3.723  17.486  0.00  0.00    +0.000 A 
ATOM     23  C   UNL     1       1.820   4.384  18.041  0.00  0.00    +0.000 A 
ATOM     24  C   UNL     1       1.855   5.766  18.234  0.00  0.00    +0.000 A 
ATOM     25  C   UNL     1       2.987   6.502  17.861  0.00  0.00    +0.000 A 
ATOM     26  C   UNL     1       4.090   5.855  17.284  0.00  0.00    +0.000 A 
ATOM     27  C   UNL     1       4.046   4.459  17.114  0.00  0.00    +0.000 A 
BRANCH  22  29
ATOM     28  C   UNL     1       3.441   1.548  18.294  0.00  0.00    +0.000 C 
ATOM     29  O   UNL     1       2.766   2.370  17.348  0.00  0.00    +0.000 OA
ENDBRANCH  22  29
BRANCH  26  30
ATOM     30  O   UNL     1       5.165   6.628  16.924  0.00  0.00    +0.000 OA
ATOM     31  C   UNL     1       6.408   6.365  17.573  0.00  0.00    +0.000 C 
ENDBRANCH  26  30
ENDBRANCH  20  25
ENDBRANCH   1  21
TORSDOF 6
ENDMDL
MODEL 2
REMARK VINA RESULT:      -7.7      2.931      3.539
REMARK  Name = 
REMARK  8 active torsions:
REMARK  status: ('A' for Active; 'I' for Inactive)
REMARK    1  A    between atoms: C_1  and  O_2
REMARK    2  A    between atoms: O_2  and  C_3
REMARK    3  A    between atoms: C_6  and  C_7
REMARK    4  A    between atoms: N_8  and  N_9
REMARK    5  A    between atoms: C_12  and  C_13
REMARK    6  A    between atoms: C_21  and  C_22
REMARK    7  A    between atoms: C_27  and  O_28
REMARK    8  A    between atoms: O_28  and  C_29
REMARK                            x       y       z     vdW  Elec       q    Type
REMARK                         _______ _______ _______ _____ _____    ______ ____
ROOT
ATOM      1  N   UNL     1       1.676  10.482  17.640  0.00  0.00    +0.000 N 
ATOM      2  C   UNL     1       0.624  10.467  18.585  0.00  0.00    +0.000 A 
ATOM      3  N   UNL     1      -0.591  10.843  18.155  0.00  0.00    +0.000 NA
ATOM      4  C   UNL     1      -1.616  10.826  19.041  0.00  0.00    +0.000 A 
ATOM      5  C   UNL     1      -1.432  10.461  20.357  0.00  0.00    +0.000 A 
ATOM      6  C   UNL     1      -0.155  10.113  20.741  0.00  0.00    +0.000 A 
ATOM      7  N   UNL     1       0.872  10.106  19.856  0.00  0.00    +0.000 NA
ATOM      8  H   UNL     1       1.251  10.581  16.723  0.00  0.00    +0.000 HD
ENDROOT
BRANCH   4   9
ATOM      9  C   UNL     1      -2.937  11.264  18.532  0.00  0.00    +0.000 A 
ATOM     10  C   UNL     1      -3.835  12.008  19.327  0.00  0.00    +0.000 A 
ATOM     11  C   UNL     1      -5.066  12.446  18.825  0.00  0.00    +0.000 A 
ATOM     12  C   UNL     1      -5.425  12.141  17.516  0.00  0.00    +0.000 A 
ATOM     13 CL   UNL     1      -6.940  12.671  16.900  0.00  0.00    +0.000 Cl
ATOM     14  C   UNL     1      -4.564  11.406  16.708  0.00  0.00    +0.000 A 
ATOM     15  C   UNL     1      -3.334  10.971  17.214  0.00  0.00    +0.000 A 
ENDBRANCH   4   9
BRANCH   6  16
ATOM     16  C   UNL     1       0.134   9.767  22.189  0.00  0.00    +0.000 C 
ATOM     17  F   UNL     1       1.452   9.468  22.409  0.00  0.00    +0.000 F 
ATOM     18  F   UNL     1      -0.151  10.777  23.057  0.00  0.00    +0.000 F 
ATOM     19  F   UNL     1      -0.555   8.676  22.625  0.00  0.00    +0.000 F 
ENDBRANCH   6  16
BRANCH   1  21
ATOM     20  C   UNL     1       2.273   8.314  17.841  0.00  0.00    +0.000 C 
ATOM     21  N   UNL     1       2.665   9.551  17.797  0.00  0.00    +0.000 NA
BRANCH  20  25
ATOM     22  C   UNL     1       5.153   5.168  18.284  0.00  0.00    +0.000 A 
ATOM     23  C   UNL     1       5.252   6.088  17.242  0.00  0.00    +0.000 A 
ATOM     24  C   UNL     1       4.306   7.107  17.109  0.00  0.00    +0.000 A 
ATOM     25  C   UNL     1       3.257   7.220  18.031  0.00  0.00    +0.000 A 
ATOM     26  C   UNL     1       3.155   6.312  19.097  0.00  0.00    +0.000 A 
ATOM     27  C   UNL     1       4.105   5.281  19.204  0.00  0.00    +0.000 A 
BRANCH  22  29
ATOM     28  C   UNL     1       7.405   4.586  17.783  0.00  0.00    +0.000 C 
ATOM     29  O   UNL     1       6.136   4.215  18.310  0.00  0.00    +0.000 OA
ENDBRANCH  22  29
BRANCH  26  30
ATOM     30  O   UNL     1       2.115   6.480  19.977  0.00  0.00    +0.000 OA
ATOM     31  C   UNL     1       1.665   5.327  20.686  0.00  0.00    +0.000 C 
ENDBRANCH  26  30
ENDBRANCH  20  25
ENDBRANCH   1  21
TORSDOF 6
ENDMDL
MODEL 3
REMARK VINA RESULT:      -7.7      2.930      3.690
REMARK  Name = 
REMARK  8 active torsions:
REMARK  status: ('A' for Active; 'I' for Inactive)
REMARK    1  A    between atoms: C_1  and  O_2
REMARK    2  A    between atoms: O_2  and  C_3
REMARK    3  A    between atoms: C_6  and  C_7
REMARK    4  A    between atoms: N_8  and  N_9
REMARK    5  A    between atoms: C_12  and  C_13
REMARK    6  A    between atoms: C_21  and  C_22
REMARK    7  A    between atoms: C_27  and  O_28
REMARK    8  A    between atoms: O_28  and  C_29
REMARK                            x       y       z     vdW  Elec       q    Type
REMARK                         _______ _______ _______ _____ _____    ______ ____
ROOT
ATOM      1  N   UNL     1       1.708  10.495  17.645  0.00  0.00    +0.000 N 
ATOM      2  C   UNL     1       0.650  10.478  18.583  0.00  0.00    +0.000 A 
ATOM      3  N   UNL     1      -0.561  10.861  18.147  0.00  0.00    +0.000 NA
ATOM      4  C   UNL     1      -1.592  10.842  19.026  0.00  0.00    +0.000 A 
ATOM      5  C   UNL     1      -1.418  10.468  20.341  0.00  0.00    +0.000 A 
ATOM      6  C   UNL     1      -0.145  10.114  20.731  0.00  0.00    +0.000 A 
ATOM      7  N   UNL     1       0.887  10.108  19.853  0.00  0.00    +0.000 NA
ATOM      8  H   UNL     1       1.291  10.602  16.726  0.00  0.00    +0.000 HD
ENDROOT
BRANCH   4   9
ATOM      9  C   UNL     1      -2.908  11.289  18.511  0.00  0.00    +0.000 A 
ATOM     10  C   UNL     1      -3.344  10.977  17.205  0.00  0.00    +0.000 A 
ATOM     11  C   UNL     1      -4.603  11.375  16.741  0.00  0.00    +0.000 A 
ATOM     12  C   UNL     1      -5.449  12.099  17.574  0.00  0.00    +0.000 A 
ATOM     13 CL   UNL     1      -6.993  12.595  17.003  0.00  0.00    +0.000 Cl
ATOM     14  C   UNL     1      -5.047  12.426  18.865  0.00  0.00    +0.000 A 
ATOM     15  C   UNL     1      -3.787  12.025  19.325  0.00  0.00    +0.000 A 
ENDBRANCH   4   9
BRANCH   6  16
ATOM     16  C   UNL     1       0.133   9.757  22.179  0.00  0.00    +0.000 C 
ATOM     17  F   UNL     1      -0.572   8.660  22.599  0.00  0.00    +0.000 F 
ATOM     18  F   UNL     1       1.439   9.456  22.424  0.00  0.00    +0.000 F 
ATOM     19  F   UNL     1      -0.204  10.750  23.048  0.00  0.00    +0.000 F 
ENDBRANCH   6  16
BRANCH   1  21
ATOM     20  C   UNL     1       2.298   8.323  17.814  0.00  0.00    +0.000 C 
ATOM     21  N   UNL     1       2.693   9.560  17.803  0.00  0.00    +0.000 NA
BRANCH  20  25
ATOM     22  C   UNL     1       5.172   5.170  18.254  0.00  0.00    +0.000 A 
ATOM     23  C   UNL     1       5.345   6.169  17.297  0.00  0.00    +0.000 A 
ATOM     24  C   UNL     1       4.401   7.189  17.164  0.00  0.00    +0.000 A 
ATOM     25  C   UNL     1       3.277   7.223  18.001  0.00  0.00    +0.000 A 
ATOM     26  C   UNL     1       3.099   6.235  18.982  0.00  0.00    +0.000 A 
ATOM     27  C   UNL     1       4.050   5.205  19.089  0.00  0.00    +0.000 A 
BRANCH  22  29
ATOM     28  C   UNL     1       7.392   4.557  17.657  0.00  0.00    +0.000 C 
ATOM     29  O   UNL     1       6.161   4.224  18.289  0.00  0.00    +0.000 OA
ENDBRANCH  22  29
BRANCH  26  30
ATOM     30  O   UNL     1       1.988   6.328  19.782  0.00  0.00    +0.000 OA
ATOM     31  C   UNL     1       1.810   5.320  20.775  0.00  0.00    +0.000 C 
ENDBRANCH  26  30
ENDBRANCH  20  25
ENDBRANCH   1  21
TORSDOF 6
ENDMDL
MODEL 4
REMARK VINA RESULT:      -7.7      3.164      4.043
REMARK  Name = 
REMARK  8 active torsions:
REMARK  status: ('A' for Active; 'I' for Inactive)
REMARK    1  A    between atoms: C_1  and  O_2
REMARK    2  A    between atoms: O_2  and  C_3
REMARK    3  A    between atoms: C_6  and  C_7
REMARK    4  A    between atoms: N_8  and  N_9
REMARK    5  A    between atoms: C_12  and  C_13
REMARK    6  A    between atoms: C_21  and  C_22
REMARK    7  A    between atoms: C_27  and  O_28
REMARK    8  A    between atoms: O_28  and  C_29
REMARK                            x       y       z     vdW  Elec       q    Type
REMARK                         _______ _______ _______ _____ _____    ______ ____
ROOT
ATOM      1  N   UNL     1       1.114   8.638  20.885  0.00  0.00    +0.000 N 
ATOM      2  C   UNL     1       0.164   9.620  20.518  0.00  0.00    +0.000 A 
ATOM      3  N   UNL     1      -0.167  10.529  21.448  0.00  0.00    +0.000 NA
ATOM      4  C   UNL     1      -1.066  11.486  21.115  0.00  0.00    +0.000 A 
ATOM      5  C   UNL     1      -1.654  11.527  19.869  0.00  0.00    +0.000 A 
ATOM      6  C   UNL     1      -1.292  10.548  18.970  0.00  0.00    +0.000 A 
ATOM      7  N   UNL     1      -0.377   9.600  19.288  0.00  0.00    +0.000 NA
ATOM      8  H   UNL     1       1.538   8.943  21.755  0.00  0.00    +0.000 HD
ENDROOT
BRANCH   4   9
ATOM      9  C   UNL     1      -1.418  12.460  22.175  0.00  0.00    +0.000 A 
ATOM     10  C   UNL     1      -0.606  13.579  22.462  0.00  0.00    +0.000 A 
ATOM     11  C   UNL     1      -0.966  14.510  23.442  0.00  0.00    +0.000 A 
ATOM     12  C   UNL     1      -2.145  14.337  24.160  0.00  0.00    +0.000 A 
ATOM     13 CL   UNL     1      -2.584  15.477  25.369  0.00  0.00    +0.000 Cl
ATOM     14  C   UNL     1      -2.965  13.243  23.904  0.00  0.00    +0.000 A 
ATOM     15  C   UNL     1      -2.601  12.314  22.922  0.00  0.00    +0.000 A 
ENDBRANCH   4   9
BRANCH   6  16
ATOM     16  C   UNL     1      -1.951  10.491  17.604  0.00  0.00    +0.000 C 
ATOM     17  F   UNL     1      -3.235  10.018  17.656  0.00  0.00    +0.000 F 
ATOM     18  F   UNL     1      -2.042  11.705  16.994  0.00  0.00    +0.000 F 
ATOM     19  F   UNL     1      -1.304   9.668  16.733  0.00  0.00    +0.000 F 
ENDBRANCH   6  16
BRANCH   1  21
ATOM     20  C   UNL     1       2.125   6.882  19.888  0.00  0.00    +0.000 C 
ATOM     21  N   UNL     1       1.933   8.166  19.896  0.00  0.00    +0.000 NA
BRANCH  20  25
ATOM     22  C   UNL     1       4.681   5.179  16.896  0.00  0.00    +0.000 A 
ATOM     23  C   UNL     1       4.409   6.547  16.912  0.00  0.00    +0.000 A 
ATOM     24  C   UNL     1       3.574   7.088  17.891  0.00  0.00    +0.000 A 
ATOM     25  C   UNL     1       3.012   6.261  18.874  0.00  0.00    +0.000 A 
ATOM     26  C   UNL     1       3.292   4.886  18.882  0.00  0.00    +0.000 A 
ATOM     27  C   UNL     1       4.120   4.355  17.876  0.00  0.00    +0.000 A 
BRANCH  22  29
ATOM     28  C   UNL     1       6.874   4.541  16.228  0.00  0.00    +0.000 C 
ATOM     29  O   UNL     1       5.510   4.766  15.888  0.00  0.00    +0.000 OA
ENDBRANCH  22  29
BRANCH  26  30
ATOM     30  O   UNL     1       2.727   4.128  19.877  0.00  0.00    +0.000 OA
ATOM     31  C   UNL     1       3.357   2.889  20.195  0.00  0.00    +0.000 C 
ENDBRANCH  26  30
ENDBRANCH  20  25
ENDBRANCH   1  21
TORSDOF 6
ENDMDL
MODEL 5
REMARK VINA RESULT:      -7.6      3.150      4.123
REMARK  Name = 
REMARK  8 active torsions:
REMARK  status: ('A' for Active; 'I' for Inactive)
REMARK    1  A    between atoms: C_1  and  O_2
REMARK    2  A    between atoms: O_2  and  C_3
REMARK    3  A    between atoms: C_6  and  C_7
REMARK    4  A    between atoms: N_8  and  N_9
REMARK    5  A    between atoms: C_12  and  C_13
REMARK    6  A    between atoms: C_21  and  C_22
REMARK    7  A    between atoms: C_27  and  O_28
REMARK    8  A    between atoms: O_28  and  C_29
REMARK                            x       y       z     vdW  Elec       q    Type
REMARK                         _______ _______ _______ _____ _____    ______ ____
ROOT
ATOM      1  N   UNL     1       0.803   8.642  21.612  0.00  0.00    +0.000 N 
ATOM      2  C   UNL     1       0.009   9.702  21.117  0.00  0.00    +0.000 A 
ATOM      3  N   UNL     1      -0.296  10.691  21.972  0.00  0.00    +0.000 NA
ATOM      4  C   UNL     1      -1.046  11.722  21.516  0.00  0.00    +0.000 A 
ATOM      5  C   UNL     1      -1.515  11.762  20.221  0.00  0.00    +0.000 A 
ATOM      6  C   UNL     1      -1.190  10.702  19.402  0.00  0.00    +0.000 A 
ATOM      7  N   UNL     1      -0.421   9.677  19.844  0.00  0.00    +0.000 NA
ATOM      8  H   UNL     1       1.181   8.944  22.504  0.00  0.00    +0.000 HD
ENDROOT
BRANCH   4   9
ATOM      9  C   UNL     1      -1.376  12.784  22.496  0.00  0.00    +0.000 A 
ATOM     10  C   UNL     1      -0.520  13.884  22.723  0.00  0.00    +0.000 A 
ATOM     11  C   UNL     1      -0.858  14.898  23.626  0.00  0.00    +0.000 A 
ATOM     12  C   UNL     1      -2.058  14.828  24.326  0.00  0.00    +0.000 A 
ATOM     13 CL   UNL     1      -2.470  16.070  25.441  0.00  0.00    +0.000 Cl
ATOM     14  C   UNL     1      -2.921  13.756  24.128  0.00  0.00    +0.000 A 
ATOM     15  C   UNL     1      -2.579  12.743  23.224  0.00  0.00    +0.000 A 
ENDBRANCH   4   9
BRANCH   6  16
ATOM     16  C   UNL     1      -1.728  10.646  17.984  0.00  0.00    +0.000 C 
ATOM     17  F   UNL     1      -1.738  11.871  17.373  0.00  0.00    +0.000 F 
ATOM     18  F   UNL     1      -1.003   9.841  17.159  0.00  0.00    +0.000 F 
ATOM     19  F   UNL     1      -3.016  10.207  17.919  0.00  0.00    +0.000 F 
ENDBRANCH   6  16
BRANCH   1  21
ATOM     20  C   UNL     1       1.597   6.733  20.704  0.00  0.00    +0.000 C 
ATOM     21  N   UNL     1       1.647   8.031  20.726  0.00  0.00    +0.000 NA
BRANCH  20  25
ATOM     22  C   UNL     1       4.136   4.581  18.000  0.00  0.00    +0.000 A 
ATOM     23  C   UNL     1       3.745   5.891  17.726  0.00  0.00    +0.000 A 
ATOM     24  C   UNL     1       2.917   6.580  18.615  0.00  0.00    +0.000 A 
ATOM     25  C   UNL     1       2.482   5.963  19.796  0.00  0.00    +0.000 A 
ATOM     26  C   UNL     1       2.883   4.651  20.095  0.00  0.00    +0.000 A 
ATOM     27  C   UNL     1       3.701   3.966  19.179  0.00  0.00    +0.000 A 
BRANCH  22  29
ATOM     28  C   UNL     1       5.133   4.735  15.845  0.00  0.00    +0.000 C 
ATOM     29  O   UNL     1       4.945   4.009  17.055  0.00  0.00    +0.000 OA
ENDBRANCH  22  29
BRANCH  26  30
ATOM     30  O   UNL     1       2.439   4.104  21.272  0.00  0.00    +0.000 OA
ATOM     31  C   UNL     1       1.481   3.050  21.184  0.00  0.00    +0.000 C 
ENDBRANCH  26  30
ENDBRANCH  20  25
ENDBRANCH   1  21
TORSDOF 6
ENDMDL
MODEL 6
REMARK VINA RESULT:      -7.6      3.170      4.076
REMARK  Name = 
REMARK  8 active torsions:
REMARK  status: ('A' for Active; 'I' for Inactive)
REMARK    1  A    between atoms: C_1  and  O_2
REMARK    2  A    between atoms: O_2  and  C_3
REMARK    3  A    between atoms: C_6  and  C_7
REMARK    4  A    between atoms: N_8  and  N_9
REMARK    5  A    between atoms: C_12  and  C_13
REMARK    6  A    between atoms: C_21  and  C_22
REMARK    7  A    between atoms: C_27  and  O_28
REMARK    8  A    between atoms: O_28  and  C_29
REMARK                            x       y       z     vdW  Elec       q    Type
REMARK                         _______ _______ _______ _____ _____    ______ ____
ROOT
ATOM      1  N   UNL     1       0.700   8.649  21.782  0.00  0.00    +0.000 N 
ATOM      2  C   UNL     1      -0.068   9.698  21.224  0.00  0.00    +0.000 A 
ATOM      3  N   UNL     1      -0.434  10.693  22.048  0.00  0.00    +0.000 NA
ATOM      4  C   UNL     1      -1.161  11.713  21.533  0.00  0.00    +0.000 A 
ATOM      5  C   UNL     1      -1.545  11.736  20.210  0.00  0.00    +0.000 A 
ATOM      6  C   UNL     1      -1.160  10.671  19.425  0.00  0.00    +0.000 A 
ATOM      7  N   UNL     1      -0.414   9.657  19.927  0.00  0.00    +0.000 NA
ATOM      8  H   UNL     1       1.018   8.964  22.693  0.00  0.00    +0.000 HD
ENDROOT
BRANCH   4   9
ATOM      9  C   UNL     1      -1.561  12.783  22.479  0.00  0.00    +0.000 A 
ATOM     10  C   UNL     1      -2.783  12.738  23.184  0.00  0.00    +0.000 A 
ATOM     11  C   UNL     1      -3.135  13.737  24.099  0.00  0.00    +0.000 A 
ATOM     12  C   UNL     1      -2.272  14.805  24.322  0.00  0.00    +0.000 A 
ATOM     13 CL   UNL     1      -2.706  16.036  25.441  0.00  0.00    +0.000 Cl
ATOM     14  C   UNL     1      -1.062  14.879  23.640  0.00  0.00    +0.000 A 
ATOM     15  C   UNL     1      -0.714  13.878  22.726  0.00  0.00    +0.000 A 
ENDBRANCH   4   9
BRANCH   6  16
ATOM     16  C   UNL     1      -1.606  10.596  17.977  0.00  0.00    +0.000 C 
ATOM     17  F   UNL     1      -2.839  10.019  17.831  0.00  0.00    +0.000 F 
ATOM     18  F   UNL     1      -1.709  11.814  17.376  0.00  0.00    +0.000 F 
ATOM     19  F   UNL     1      -0.772   9.851  17.199  0.00  0.00    +0.000 F 
ENDBRANCH   6  16
BRANCH   1  21
ATOM     20  C   UNL     1       1.466   6.751  20.828  0.00  0.00    +0.000 C 
ATOM     21  N   UNL     1       1.604   8.036  20.958  0.00  0.00    +0.000 NA
BRANCH  20  25
ATOM     22  C   UNL     1       4.157   4.589  18.284  0.00  0.00    +0.000 A 
ATOM     23  C   UNL     1       3.782   5.897  17.983  0.00  0.00    +0.000 A 
ATOM     24  C   UNL     1       2.904   6.589  18.819  0.00  0.00    +0.000 A 
ATOM     25  C   UNL     1       2.403   5.977  19.976  0.00  0.00    +0.000 A 
ATOM     26  C   UNL     1       2.786   4.667  20.303  0.00  0.00    +0.000 A 
ATOM     27  C   UNL     1       3.656   3.979  19.439  0.00  0.00    +0.000 A 
BRANCH  22  29
ATOM     28  C   UNL     1       4.896   4.413  16.029  0.00  0.00    +0.000 C 
ATOM     29  O   UNL     1       5.020   4.014  17.390  0.00  0.00    +0.000 OA
ENDBRANCH  22  29
BRANCH  26  30
ATOM     30  O   UNL     1       2.275   4.125  21.456  0.00  0.00    +0.000 OA
ATOM     31  C   UNL     1       2.206   2.702  21.534  0.00  0.00    +0.000 C 
ENDBRANCH  26  30
ENDBRANCH  20  25
ENDBRANCH   1  21
TORSDOF 6
ENDMDL
MODEL 7
REMARK VINA RESULT:      -7.6      0.225      1.125
REMARK  Name = 
REMARK  8 active torsions:
REMARK  status: ('A' for Active; 'I' for Inactive)
REMARK    1  A    between atoms: C_1  and  O_2
REMARK    2  A    between atoms: O_2  and  C_3
REMARK    3  A    between atoms: C_6  and  C_7
REMARK    4  A    between atoms: N_8  and  N_9
REMARK    5  A    between atoms: C_12  and  C_13
REMARK    6  A    between atoms: C_21  and  C_22
REMARK    7  A    between atoms: C_27  and  O_28
REMARK    8  A    between atoms: O_28  and  C_29
REMARK                            x       y       z     vdW  Elec       q    Type
REMARK                         _______ _______ _______ _____ _____    ______ ____
ROOT
ATOM      1  N   UNL     1       1.990  10.030  18.136  0.00  0.00    +0.000 N 
ATOM      2  C   UNL     1       1.201  10.576  19.176  0.00  0.00    +0.000 A 
ATOM      3  N   UNL     1       0.777  11.840  19.024  0.00  0.00    +0.000 NA
ATOM      4  C   UNL     1       0.011  12.379  20.002  0.00  0.00    +0.000 A 
ATOM      5  C   UNL     1      -0.314  11.675  21.141  0.00  0.00    +0.000 A 
ATOM      6  C   UNL     1       0.176  10.391  21.248  0.00  0.00    +0.000 A 
ATOM      7  N   UNL     1       0.925   9.837  20.264  0.00  0.00    +0.000 NA
ATOM      8  H   UNL     1       1.911  10.657  17.342  0.00  0.00    +0.000 HD
ENDROOT
BRANCH   4   9
ATOM      9  C   UNL     1      -0.422  13.783  19.805  0.00  0.00    +0.000 A 
ATOM     10  C   UNL     1       0.134  14.603  18.799  0.00  0.00    +0.000 A 
ATOM     11  C   UNL     1      -0.307  15.916  18.600  0.00  0.00    +0.000 A 
ATOM     12  C   UNL     1      -1.310  16.438  19.410  0.00  0.00    +0.000 A 
ATOM     13 CL   UNL     1      -1.847  18.053  19.172  0.00  0.00    +0.000 Cl
ATOM     14  C   UNL     1      -1.875  15.657  20.413  0.00  0.00    +0.000 A 
ATOM     15  C   UNL     1      -1.432  14.344  20.608  0.00  0.00    +0.000 A 
ENDBRANCH   4   9
BRANCH   6  16
ATOM     16  C   UNL     1      -0.085   9.582  22.504  0.00  0.00    +0.000 C 
ATOM     17  F   UNL     1      -0.795  10.279  23.445  0.00  0.00    +0.000 F 
ATOM     18  F   UNL     1      -0.807   8.448  22.280  0.00  0.00    +0.000 F 
ATOM     19  F   UNL     1       1.057   9.194  23.137  0.00  0.00    +0.000 F 
ENDBRANCH   6  16
BRANCH   1  21
ATOM     20  C   UNL     1       2.962   7.993  18.096  0.00  0.00    +0.000 C 
ATOM     21  N   UNL     1       1.879   8.685  17.913  0.00  0.00    +0.000 NA
BRANCH  20  25
ATOM     22  C   UNL     1       2.881   3.749  17.487  0.00  0.00    +0.000 A 
ATOM     23  C   UNL     1       1.776   4.418  18.011  0.00  0.00    +0.000 A 
ATOM     24  C   UNL     1       1.817   5.800  18.205  0.00  0.00    +0.000 A 
ATOM     25  C   UNL     1       2.965   6.527  17.863  0.00  0.00    +0.000 A 
ATOM     26  C   UNL     1       4.078   5.870  17.316  0.00  0.00    +0.000 A 
ATOM     27  C   UNL     1       4.027   4.475  17.145  0.00  0.00    +0.000 A 
BRANCH  22  29
ATOM     28  C   UNL     1       3.342   1.570  18.325  0.00  0.00    +0.000 C 
ATOM     29  O   UNL     1       2.724   2.396  17.344  0.00  0.00    +0.000 OA
ENDBRANCH  22  29
BRANCH  26  30
ATOM     30  O   UNL     1       5.169   6.635  16.986  0.00  0.00    +0.000 OA
ATOM     31  C   UNL     1       6.347   5.948  16.566  0.00  0.00    +0.000 C 
ENDBRANCH  26  30
ENDBRANCH  20  25
ENDBRANCH   1  21
TORSDOF 6
ENDMDL
MODEL 8
REMARK VINA RESULT:      -7.5      3.020      3.898
REMARK  Name = 
REMARK  8 active torsions:
REMARK  status: ('A' for Active; 'I' for Inactive)
REMARK    1  A    between atoms: C_1  and  O_2
REMARK    2  A    between atoms: O_2  and  C_3
REMARK    3  A    between atoms: C_6  and  C_7
REMARK    4  A    between atoms: N_8  and  N_9
REMARK    5  A    between atoms: C_12  and  C_13
REMARK    6  A    between atoms: C_21  and  C_22
REMARK    7  A    between atoms: C_27  and  O_28
REMARK    8  A    between atoms: O_28  and  C_29
REMARK                            x       y       z     vdW  Elec       q    Type
REMARK                         _______ _______ _______ _____ _____    ______ ____
ROOT
ATOM      1  N   UNL     1       1.346   8.630  20.376  0.00  0.00    +0.000 N 
ATOM      2  C   UNL     1       0.379   9.617  20.074  0.00  0.00    +0.000 A 
ATOM      3  N   UNL     1       0.192  10.589  20.981  0.00  0.00    +0.000 NA
ATOM      4  C   UNL     1      -0.721  11.551  20.708  0.00  0.00    +0.000 A 
ATOM      5  C   UNL     1      -1.464  11.538  19.547  0.00  0.00    +0.000 A 
ATOM      6  C   UNL     1      -1.243  10.498  18.671  0.00  0.00    +0.000 A 
ATOM      7  N   UNL     1      -0.316   9.543  18.926  0.00  0.00    +0.000 NA
ATOM      8  H   UNL     1       1.886   8.972  21.165  0.00  0.00    +0.000 HD
ENDROOT
BRANCH   4   9
ATOM      9  C   UNL     1      -0.912  12.595  21.742  0.00  0.00    +0.000 A 
ATOM     10  C   UNL     1      -1.900  12.484  22.744  0.00  0.00    +0.000 A 
ATOM     11  C   UNL     1      -2.049  13.459  23.736  0.00  0.00    +0.000 A 
ATOM     12  C   UNL     1      -1.213  14.571  23.741  0.00  0.00    +0.000 A 
ATOM     13 CL   UNL     1      -1.399  15.775  24.955  0.00  0.00    +0.000 Cl
ATOM     14  C   UNL     1      -0.231  14.713  22.766  0.00  0.00    +0.000 A 
ATOM     15  C   UNL     1      -0.086  13.734  21.776  0.00  0.00    +0.000 A 
ENDBRANCH   4   9
BRANCH   6  16
ATOM     16  C   UNL     1      -2.074  10.382  17.406  0.00  0.00    +0.000 C 
ATOM     17  F   UNL     1      -2.167  11.566  16.724  0.00  0.00    +0.000 F 
ATOM     18  F   UNL     1      -1.572   9.490  16.506  0.00  0.00    +0.000 F 
ATOM     19  F   UNL     1      -3.361  10.008  17.645  0.00  0.00    +0.000 F 
ENDBRANCH   6  16
BRANCH   1  21
ATOM     20  C   UNL     1       2.480   6.878  19.514  0.00  0.00    +0.000 C 
ATOM     21  N   UNL     1       2.021   8.078  19.322  0.00  0.00    +0.000 NA
BRANCH  20  25
ATOM     22  C   UNL     1       4.714   4.982  16.383  0.00  0.00    +0.000 A 
ATOM     23  C   UNL     1       4.804   6.357  16.596  0.00  0.00    +0.000 A 
ATOM     24  C   UNL     1       4.070   6.962  17.618  0.00  0.00    +0.000 A 
ATOM     25  C   UNL     1       3.246   6.188  18.447  0.00  0.00    +0.000 A 
ATOM     26  C   UNL     1       3.160   4.800  18.257  0.00  0.00    +0.000 A 
ATOM     27  C   UNL     1       3.892   4.211  17.210  0.00  0.00    +0.000 A 
BRANCH  22  29
ATOM     28  C   UNL     1       6.890   4.612  15.494  0.00  0.00    +0.000 C 
ATOM     29  O   UNL     1       5.478   4.505  15.351  0.00  0.00    +0.000 OA
ENDBRANCH  22  29
BRANCH  26  30
ATOM     30  O   UNL     1       2.349   4.092  19.108  0.00  0.00    +0.000 OA
ATOM     31  C   UNL     1       1.541   3.064  18.537  0.00  0.00    +0.000 C 
ENDBRANCH  26  30
ENDBRANCH  20  25
ENDBRANCH   1  21
TORSDOF 6
ENDMDL
MODEL 9
REMARK VINA RESULT:      -7.5      3.247      4.167
REMARK  Name = 
REMARK  8 active torsions:
REMARK  status: ('A' for Active; 'I' for Inactive)
REMARK    1  A    between atoms: C_1  and  O_2
REMARK    2  A    between atoms: O_2  and  C_3
REMARK    3  A    between atoms: C_6  and  C_7
REMARK    4  A    between atoms: N_8  and  N_9
REMARK    5  A    between atoms: C_12  and  C_13
REMARK    6  A    between atoms: C_21  and  C_22
REMARK    7  A    between atoms: C_27  and  O_28
REMARK    8  A    between atoms: O_28  and  C_29
REMARK                            x       y       z     vdW  Elec       q    Type
REMARK                         _______ _______ _______ _____ _____    ______ ____
ROOT
ATOM      1  N   UNL     1       0.887   9.417  17.587  0.00  0.00    +0.000 N 
ATOM      2  C   UNL     1       0.569  10.588  18.314  0.00  0.00    +0.000 A 
ATOM      3  N   UNL     1      -0.730  10.825  18.555  0.00  0.00    +0.000 NA
ATOM      4  C   UNL     1      -1.056  11.935  19.259  0.00  0.00    +0.000 A 
ATOM      5  C   UNL     1      -0.099  12.821  19.703  0.00  0.00    +0.000 A 
ATOM      6  C   UNL     1       1.213  12.534  19.398  0.00  0.00    +0.000 A 
ATOM      7  N   UNL     1       1.551  11.414  18.714  0.00  0.00    +0.000 NA
ATOM      8  H   UNL     1       0.049   8.845  17.561  0.00  0.00    +0.000 HD
ENDROOT
BRANCH   4   9
ATOM      9  C   UNL     1      -2.502  12.170  19.489  0.00  0.00    +0.000 A 
ATOM     10  C   UNL     1      -3.485  11.732  18.576  0.00  0.00    +0.000 A 
ATOM     11  C   UNL     1      -4.849  11.931  18.819  0.00  0.00    +0.000 A 
ATOM     12  C   UNL     1      -5.256  12.578  19.982  0.00  0.00    +0.000 A 
ATOM     13 CL   UNL     1      -6.930  12.828  20.279  0.00  0.00    +0.000 Cl
ATOM     14  C   UNL     1      -4.311  13.025  20.900  0.00  0.00    +0.000 A 
ATOM     15  C   UNL     1      -2.948  12.824  20.652  0.00  0.00    +0.000 A 
ENDBRANCH   4   9
BRANCH   6  16
ATOM     16  C   UNL     1       2.314  13.500  19.796  0.00  0.00    +0.000 C 
ATOM     17  F   UNL     1       1.864  14.786  19.934  0.00  0.00    +0.000 F 
ATOM     18  F   UNL     1       2.899  13.197  20.988  0.00  0.00    +0.000 F 
ATOM     19  F   UNL     1       3.318  13.572  18.879  0.00  0.00    +0.000 F 
ENDBRANCH   6  16
BRANCH   1  21
ATOM     20  C   UNL     1       2.060   7.510  17.880  0.00  0.00    +0.000 C 
ATOM     21  N   UNL     1       2.077   8.808  17.879  0.00  0.00    +0.000 NA
BRANCH  20  25
ATOM     22  C   UNL     1       5.646   5.309  18.711  0.00  0.00    +0.000 A 
ATOM     23  C   UNL     1       5.552   6.128  17.587  0.00  0.00    +0.000 A 
ATOM     24  C   UNL     1       4.378   6.838  17.328  0.00  0.00    +0.000 A 
ATOM     25  C   UNL     1       3.288   6.742  18.204  0.00  0.00    +0.000 A 
ATOM     26  C   UNL     1       3.374   5.937  19.350  0.00  0.00    +0.000 A 
ATOM     27  C   UNL     1       4.557   5.214  19.585  0.00  0.00    +0.000 A 
BRANCH  22  29
ATOM     28  C   UNL     1       7.699   4.627  17.721  0.00  0.00    +0.000 C 
ATOM     29  O   UNL     1       6.844   4.663  18.859  0.00  0.00    +0.000 OA
ENDBRANCH  22  29
BRANCH  26  30
ATOM     30  O   UNL     1       2.281   5.893  20.178  0.00  0.00    +0.000 OA
ATOM     31  C   UNL     1       2.116   4.727  20.983  0.00  0.00    +0.000 C 
ENDBRANCH  26  30
ENDBRANCH  20  25
ENDBRANCH   1  21
TORSDOF 6
ENDMDL
