MODEL 1
REMARK VINA RESULT:      -8.0      0.000      0.000
REMARK  Name = 
REMARK  9 active torsions:
REMARK  status: ('A' for Active; 'I' for Inactive)
REMARK    1  A    between atoms: C_1  and  C_2
REMARK    2  A    between atoms: N_4  and  C_5
REMARK    3  A    between atoms: C_5  and  C_6
REMARK    4  A    between atoms: C_6  and  C_7
REMARK    5  A    between atoms: C_7  and  C_8
REMARK    6  A    between atoms: C_11  and  C_12
REMARK    7  A    between atoms: C_12  and  C_14
REMARK    8  A    between atoms: C_14  and  N_15
REMARK    9  A    between atoms: C_17  and  C_18
REMARK                            x       y       z     vdW  Elec       q    Type
REMARK                         _______ _______ _______ _____ _____    ______ ____
ROOT
ATOM      1  C   UNL     1       3.856   5.128  17.172  0.00  0.00    +0.000 A 
ATOM      2  C   UNL     1       4.324   6.435  17.003  0.00  0.00    +0.000 A 
ATOM      3  C   UNL     1       3.662   7.503  17.612  0.00  0.00    +0.000 A 
ATOM      4  C   UNL     1       2.544   7.270  18.421  0.00  0.00    +0.000 A 
ATOM      5  C   UNL     1       2.106   5.963  18.640  0.00  0.00    +0.000 A 
ATOM      6  C   UNL     1       2.752   4.901  18.007  0.00  0.00    +0.000 A 
ENDROOT
BRANCH   4   7
ATOM      7  C   UNL     1       1.823   8.451  18.960  0.00  0.00    +0.000 C 
ATOM      8  O   UNL     1       1.466   8.447  20.139  0.00  0.00    +0.000 OA
BRANCH   7   9
ATOM      9  C   UNL     1       1.597   9.654  18.063  0.00  0.00    +0.000 C 
BRANCH   9  10
ATOM     10  N   UNL     1       0.323  10.328  18.305  0.00  0.00    +0.000 N 
ATOM     11  C   UNL     1      -0.849   9.804  17.774  0.00  0.00    +0.000 A 
ATOM     12  C   UNL     1      -2.028  10.446  17.887  0.00  0.00    +0.000 A 
ATOM     13  C   UNL     1      -2.056  11.717  18.586  0.00  0.00    +0.000 A 
ATOM     14  C   UNL     1      -0.954  12.242  19.123  0.00  0.00    +0.000 A 
ATOM     15  C   UNL     1       0.347  11.536  19.000  0.00  0.00    +0.000 A 
ATOM     16  O   UNL     1       1.350  12.032  19.506  0.00  0.00    +0.000 OA
BRANCH  12  17
ATOM     17  C   UNL     1      -3.292   9.909  17.277  0.00  0.00    +0.000 C 
ATOM     18  F   UNL     1      -4.275  10.845  17.203  0.00  0.00    +0.000 F 
ATOM     19  F   UNL     1      -3.084   9.469  16.009  0.00  0.00    +0.000 F 
ATOM     20  F   UNL     1      -3.798   8.865  17.981  0.00  0.00    +0.000 F 
ENDBRANCH  12  17
ENDBRANCH   9  10
ENDBRANCH   7   9
ENDBRANCH   4   7
BRANCH   1  21
ATOM     21  C   UNL     1       4.543   3.975  16.484  0.00  0.00    +0.000 C 
BRANCH  21  22
ATOM     22  C   UNL     1       5.491   4.416  15.367  0.00  0.00    +0.000 C 
BRANCH  22  23
ATOM     23  C   UNL     1       6.958   4.349  15.787  0.00  0.00    +0.000 C 
BRANCH  23  27
ATOM     24  C   UNL     1       8.007   6.776  18.477  0.00  0.00    +0.000 C 
ATOM     25  C   UNL     1       7.592   5.461  17.886  0.00  0.00    +0.000 C 
ATOM     26  O   UNL     1       7.476   4.440  18.557  0.00  0.00    +0.000 OA
ATOM     27  N   UNL     1       7.361   5.517  16.533  0.00  0.00    +0.000 N 
ATOM     28  H   UNL     1       7.480   6.391  16.039  0.00  0.00    +0.000 HD
ENDBRANCH  23  27
ENDBRANCH  22  23
ENDBRANCH  21  22
ENDBRANCH   1  21
TORSDOF 8
ENDMDL
MODEL 2
REMARK VINA RESULT:      -7.9      4.171      8.911
REMARK  Name = 
REMARK  9 active torsions:
REMARK  status: ('A' for Active; 'I' for Inactive)
REMARK    1  A    between atoms: C_1  and  C_2
REMARK    2  A    between atoms: N_4  and  C_5
REMARK    3  A    between atoms: C_5  and  C_6
REMARK    4  A    between atoms: C_6  and  C_7
REMARK    5  A    between atoms: C_7  and  C_8
REMARK    6  A    between atoms: C_11  and  C_12
REMARK    7  A    between atoms: C_12  and  C_14
REMARK    8  A    between atoms: C_14  and  N_15
REMARK    9  A    between atoms: C_17  and  C_18
REMARK                            x       y       z     vdW  Elec       q    Type
REMARK                         _______ _______ _______ _____ _____    ______ ____
ROOT
ATOM      1  C   UNL     1       1.764   7.352  20.313  0.00  0.00    +0.000 A 
ATOM      2  C   UNL     1       1.639   6.073  20.865  0.00  0.00    +0.000 A 
ATOM      3  C   UNL     1       1.950   4.945  20.103  0.00  0.00    +0.000 A 
ATOM      4  C   UNL     1       2.421   5.088  18.793  0.00  0.00    +0.000 A 
ATOM      5  C   UNL     1       2.603   6.362  18.256  0.00  0.00    +0.000 A 
ATOM      6  C   UNL     1       2.264   7.487  19.009  0.00  0.00    +0.000 A 
ENDROOT
BRANCH   4   7
ATOM      7  C   UNL     1       2.639   3.852  17.999  0.00  0.00    +0.000 C 
ATOM      8  O   UNL     1       1.753   3.469  17.234  0.00  0.00    +0.000 OA
BRANCH   7   9
ATOM      9  C   UNL     1       3.968   3.127  18.106  0.00  0.00    +0.000 C 
BRANCH   9  10
ATOM     10  N   UNL     1       5.048   3.784  17.372  0.00  0.00    +0.000 N 
ATOM     11  C   UNL     1       5.083   3.717  15.985  0.00  0.00    +0.000 A 
ATOM     12  C   UNL     1       6.112   4.222  15.276  0.00  0.00    +0.000 A 
ATOM     13  C   UNL     1       7.204   4.848  15.998  0.00  0.00    +0.000 A 
ATOM     14  C   UNL     1       7.196   4.945  17.328  0.00  0.00    +0.000 A 
ATOM     15  C   UNL     1       6.062   4.391  18.111  0.00  0.00    +0.000 A 
ATOM     16  O   UNL     1       6.070   4.494  19.335  0.00  0.00    +0.000 OA
BRANCH  12  17
ATOM     17  C   UNL     1       6.180   4.114  13.778  0.00  0.00    +0.000 C 
ATOM     18  F   UNL     1       5.007   4.442  13.177  0.00  0.00    +0.000 F 
ATOM     19  F   UNL     1       7.123   4.946  13.264  0.00  0.00    +0.000 F 
ATOM     20  F   UNL     1       6.493   2.859  13.368  0.00  0.00    +0.000 F 
ENDBRANCH  12  17
ENDBRANCH   9  10
ENDBRANCH   7   9
ENDBRANCH   4   7
BRANCH   1  21
ATOM     21  C   UNL     1       1.391   8.573  21.117  0.00  0.00    +0.000 C 
BRANCH  21  22
ATOM     22  C   UNL     1       0.957   9.756  20.252  0.00  0.00    +0.000 C 
BRANCH  22  23
ATOM     23  C   UNL     1      -0.528  10.081  20.409  0.00  0.00    +0.000 C 
BRANCH  23  27
ATOM     24  C   UNL     1      -2.092  11.332  17.213  0.00  0.00    +0.000 C 
ATOM     25  C   UNL     1      -1.386  11.419  18.534  0.00  0.00    +0.000 C 
ATOM     26  O   UNL     1      -1.018  12.485  19.019  0.00  0.00    +0.000 OA
ATOM     27  N   UNL     1      -1.194  10.199  19.135  0.00  0.00    +0.000 N 
ATOM     28  H   UNL     1      -1.518   9.358  18.677  0.00  0.00    +0.000 HD
ENDBRANCH  23  27
ENDBRANCH  22  23
ENDBRANCH  21  22
ENDBRANCH   1  21
TORSDOF 8
ENDMDL
MODEL 3
REMARK VINA RESULT:      -7.9      4.026      5.826
REMARK  Name = 
REMARK  9 active torsions:
REMARK  status: ('A' for Active; 'I' for Inactive)
REMARK    1  A    between atoms: C_1  and  C_2
REMARK    2  A    between atoms: N_4  and  C_5
REMARK    3  A    between atoms: C_5  and  C_6
REMARK    4  A    between atoms: C_6  and  C_7
REMARK    5  A    between atoms: C_7  and  C_8
REMARK    6  A    between atoms: C_11  and  C_12
REMARK    7  A    between atoms: C_12  and  C_14
REMARK    8  A    between atoms: C_14  and  N_15
REMARK    9  A    between atoms: C_17  and  C_18
REMARK                            x       y       z     vdW  Elec       q    Type
REMARK                         _______ _______ _______ _____ _____    ______ ____
ROOT
ATOM      1  C   UNL     1       6.408   5.420  17.138  0.00  0.00    +0.000 A 
ATOM      2  C   UNL     1       6.188   4.951  18.437  0.00  0.00    +0.000 A 
ATOM      3  C   UNL     1       5.211   3.982  18.677  0.00  0.00    +0.000 A 
ATOM      4  C   UNL     1       4.469   3.451  17.617  0.00  0.00    +0.000 A 
ATOM      5  C   UNL     1       4.724   3.873  16.312  0.00  0.00    +0.000 A 
ATOM      6  C   UNL     1       5.680   4.861  16.077  0.00  0.00    +0.000 A 
ENDROOT
BRANCH   4   7
ATOM      7  C   UNL     1       3.378   2.499  17.946  0.00  0.00    +0.000 C 
ATOM      8  O   UNL     1       3.659   1.319  18.161  0.00  0.00    +0.000 OA
BRANCH   7   9
ATOM      9  C   UNL     1       1.956   3.014  18.069  0.00  0.00    +0.000 C 
BRANCH   9  10
ATOM     10  N   UNL     1       1.856   4.270  18.810  0.00  0.00    +0.000 N 
ATOM     11  C   UNL     1       2.051   5.479  18.155  0.00  0.00    +0.000 A 
ATOM     12  C   UNL     1       2.067   6.651  18.818  0.00  0.00    +0.000 A 
ATOM     13  C   UNL     1       1.875   6.631  20.257  0.00  0.00    +0.000 A 
ATOM     14  C   UNL     1       1.668   5.491  20.917  0.00  0.00    +0.000 A 
ATOM     15  C   UNL     1       1.648   4.198  20.187  0.00  0.00    +0.000 A 
ATOM     16  O   UNL     1       1.452   3.158  20.812  0.00  0.00    +0.000 OA
BRANCH  12  17
ATOM     17  C   UNL     1       2.322   7.960  18.124  0.00  0.00    +0.000 C 
ATOM     18  F   UNL     1       1.318   8.306  17.277  0.00  0.00    +0.000 F 
ATOM     19  F   UNL     1       2.445   8.978  19.014  0.00  0.00    +0.000 F 
ATOM     20  F   UNL     1       3.463   7.936  17.389  0.00  0.00    +0.000 F 
ENDBRANCH  12  17
ENDBRANCH   9  10
ENDBRANCH   7   9
ENDBRANCH   4   7
BRANCH   1  21
ATOM     21  C   UNL     1       7.433   6.496  16.877  0.00  0.00    +0.000 C 
BRANCH  21  22
ATOM     22  C   UNL     1       7.807   7.290  18.129  0.00  0.00    +0.000 C 
BRANCH  22  23
ATOM     23  C   UNL     1       7.996   8.778  17.842  0.00  0.00    +0.000 C 
BRANCH  23  27
ATOM     24  C   UNL     1      10.110  11.206  19.809  0.00  0.00    +0.000 C 
ATOM     25  C   UNL     1       9.184  10.742  18.723  0.00  0.00    +0.000 C 
ATOM     26  O   UNL     1       8.749  11.496  17.857  0.00  0.00    +0.000 OA
ATOM     27  N   UNL     1       8.876   9.406  18.797  0.00  0.00    +0.000 N 
ATOM     28  H   UNL     1       9.267   8.842  19.541  0.00  0.00    +0.000 HD
ENDBRANCH  23  27
ENDBRANCH  22  23
ENDBRANCH  21  22
ENDBRANCH   1  21
TORSDOF 8
ENDMDL
MODEL 4
REMARK VINA RESULT:      -7.7      5.083      7.283
REMARK  Name = 
REMARK  9 active torsions:
REMARK  status: ('A' for Active; 'I' for Inactive)
REMARK    1  A    between atoms: C_1  and  C_2
REMARK    2  A    between atoms: N_4  and  C_5
REMARK    3  A    between atoms: C_5  and  C_6
REMARK    4  A    between atoms: C_6  and  C_7
REMARK    5  A    between atoms: C_7  and  C_8
REMARK    6  A    between atoms: C_11  and  C_12
REMARK    7  A    between atoms: C_12  and  C_14
REMARK    8  A    between atoms: C_14  and  N_15
REMARK    9  A    between atoms: C_17  and  C_18
REMARK                            x       y       z     vdW  Elec       q    Type
REMARK                         _______ _______ _______ _____ _____    ______ ____
ROOT
ATOM      1  C   UNL     1       7.868   7.295  18.242  0.00  0.00    +0.000 A 
ATOM      2  C   UNL     1       7.790   6.028  18.830  0.00  0.00    +0.000 A 
ATOM      3  C   UNL     1       6.966   5.046  18.278  0.00  0.00    +0.000 A 
ATOM      4  C   UNL     1       6.238   5.311  17.112  0.00  0.00    +0.000 A 
ATOM      5  C   UNL     1       6.355   6.552  16.488  0.00  0.00    +0.000 A 
ATOM      6  C   UNL     1       7.156   7.542  17.058  0.00  0.00    +0.000 A 
ENDROOT
BRANCH   4   7
ATOM      7  C   UNL     1       5.303   4.262  16.629  0.00  0.00    +0.000 C 
ATOM      8  O   UNL     1       5.763   3.197  16.215  0.00  0.00    +0.000 OA
BRANCH   7   9
ATOM      9  C   UNL     1       3.808   4.506  16.713  0.00  0.00    +0.000 C 
BRANCH   9  10
ATOM     10  N   UNL     1       3.344   4.802  18.067  0.00  0.00    +0.000 N 
ATOM     11  C   UNL     1       3.158   3.769  18.977  0.00  0.00    +0.000 A 
ATOM     12  C   UNL     1       2.637   3.985  20.200  0.00  0.00    +0.000 A 
ATOM     13  C   UNL     1       2.264   5.341  20.560  0.00  0.00    +0.000 A 
ATOM     14  C   UNL     1       2.444   6.360  19.718  0.00  0.00    +0.000 A 
ATOM     15  C   UNL     1       3.020   6.123  18.370  0.00  0.00    +0.000 A 
ATOM     16  O   UNL     1       3.181   7.075  17.610  0.00  0.00    +0.000 OA
BRANCH  12  17
ATOM     17  C   UNL     1       2.391   2.867  21.174  0.00  0.00    +0.000 C 
ATOM     18  F   UNL     1       3.525   2.188  21.487  0.00  0.00    +0.000 F 
ATOM     19  F   UNL     1       1.884   3.332  22.345  0.00  0.00    +0.000 F 
ATOM     20  F   UNL     1       1.508   1.954  20.695  0.00  0.00    +0.000 F 
ENDBRANCH  12  17
ENDBRANCH   9  10
ENDBRANCH   7   9
ENDBRANCH   4   7
BRANCH   1  21
ATOM     21  C   UNL     1       8.725   8.373  18.857  0.00  0.00    +0.000 C 
BRANCH  21  22
ATOM     22  C   UNL     1       8.577   9.729  18.166  0.00  0.00    +0.000 C 
BRANCH  22  23
ATOM     23  C   UNL     1       9.499  10.792  18.761  0.00  0.00    +0.000 C 
BRANCH  23  27
ATOM     24  C   UNL     1      11.389  13.328  16.707  0.00  0.00    +0.000 C 
ATOM     25  C   UNL     1      10.586  12.804  17.861  0.00  0.00    +0.000 C 
ATOM     26  O   UNL     1      10.257  13.508  18.812  0.00  0.00    +0.000 OA
ATOM     27  N   UNL     1      10.264  11.474  17.746  0.00  0.00    +0.000 N 
ATOM     28  H   UNL     1      10.572  10.952  16.937  0.00  0.00    +0.000 HD
ENDBRANCH  23  27
ENDBRANCH  22  23
ENDBRANCH  21  22
ENDBRANCH   1  21
TORSDOF 8
ENDMDL
MODEL 5
REMARK VINA RESULT:      -7.7      4.237      8.825
REMARK  Name = 
REMARK  9 active torsions:
REMARK  status: ('A' for Active; 'I' for Inactive)
REMARK    1  A    between atoms: C_1  and  C_2
REMARK    2  A    between atoms: N_4  and  C_5
REMARK    3  A    between atoms: C_5  and  C_6
REMARK    4  A    between atoms: C_6  and  C_7
REMARK    5  A    between atoms: C_7  and  C_8
REMARK    6  A    between atoms: C_11  and  C_12
REMARK    7  A    between atoms: C_12  and  C_14
REMARK    8  A    between atoms: C_14  and  N_15
REMARK    9  A    between atoms: C_17  and  C_18
REMARK                            x       y       z     vdW  Elec       q    Type
REMARK                         _______ _______ _______ _____ _____    ______ ____
ROOT
ATOM      1  C   UNL     1       1.740   7.359  20.298  0.00  0.00    +0.000 A 
ATOM      2  C   UNL     1       1.560   6.093  20.865  0.00  0.00    +0.000 A 
ATOM      3  C   UNL     1       1.872   4.945  20.134  0.00  0.00    +0.000 A 
ATOM      4  C   UNL     1       2.399   5.053  18.843  0.00  0.00    +0.000 A 
ATOM      5  C   UNL     1       2.636   6.314  18.293  0.00  0.00    +0.000 A 
ATOM      6  C   UNL     1       2.295   7.459  19.013  0.00  0.00    +0.000 A 
ENDROOT
BRANCH   4   7
ATOM      7  C   UNL     1       2.618   3.799  18.078  0.00  0.00    +0.000 C 
ATOM      8  O   UNL     1       1.725   3.389  17.335  0.00  0.00    +0.000 OA
BRANCH   7   9
ATOM      9  C   UNL     1       3.955   3.089  18.185  0.00  0.00    +0.000 C 
BRANCH   9  10
ATOM     10  N   UNL     1       5.024   3.749  17.439  0.00  0.00    +0.000 N 
ATOM     11  C   UNL     1       5.050   3.673  16.052  0.00  0.00    +0.000 A 
ATOM     12  C   UNL     1       6.069   4.180  15.333  0.00  0.00    +0.000 A 
ATOM     13  C   UNL     1       7.162   4.820  16.042  0.00  0.00    +0.000 A 
ATOM     14  C   UNL     1       7.163   4.926  17.372  0.00  0.00    +0.000 A 
ATOM     15  C   UNL     1       6.039   4.368  18.166  0.00  0.00    +0.000 A 
ATOM     16  O   UNL     1       6.055   4.479  19.390  0.00  0.00    +0.000 OA
BRANCH  12  17
ATOM     17  C   UNL     1       6.128   4.064  13.835  0.00  0.00    +0.000 C 
ATOM     18  F   UNL     1       6.446   2.809  13.421  0.00  0.00    +0.000 F 
ATOM     19  F   UNL     1       4.932   4.366  13.267  0.00  0.00    +0.000 F 
ATOM     20  F   UNL     1       7.047   4.900  13.291  0.00  0.00    +0.000 F 
ENDBRANCH  12  17
ENDBRANCH   9  10
ENDBRANCH   7   9
ENDBRANCH   4   7
BRANCH   1  21
ATOM     21  C   UNL     1       1.366   8.602  21.067  0.00  0.00    +0.000 C 
BRANCH  21  22
ATOM     22  C   UNL     1       0.860   9.735  20.173  0.00  0.00    +0.000 C 
BRANCH  22  23
ATOM     23  C   UNL     1       0.818  11.078  20.899  0.00  0.00    +0.000 C 
BRANCH  23  27
ATOM     24  C   UNL     1      -0.336  13.761  18.513  0.00  0.00    +0.000 C 
ATOM     25  C   UNL     1       0.617  12.793  19.149  0.00  0.00    +0.000 C 
ATOM     26  O   UNL     1       1.782  12.671  18.781  0.00  0.00    +0.000 OA
ATOM     27  N   UNL     1       0.058  12.064  20.170  0.00  0.00    +0.000 N 
ATOM     28  H   UNL     1      -0.911  12.211  20.419  0.00  0.00    +0.000 HD
ENDBRANCH  23  27
ENDBRANCH  22  23
ENDBRANCH  21  22
ENDBRANCH   1  21
TORSDOF 8
ENDMDL
MODEL 6
REMARK VINA RESULT:      -7.6      1.669      2.786
REMARK  Name = 
REMARK  9 active torsions:
REMARK  status: ('A' for Active; 'I' for Inactive)
REMARK    1  A    between atoms: C_1  and  C_2
REMARK    2  A    between atoms: N_4  and  C_5
REMARK    3  A    between atoms: C_5  and  C_6
REMARK    4  A    between atoms: C_6  and  C_7
REMARK    5  A    between atoms: C_7  and  C_8
REMARK    6  A    between atoms: C_11  and  C_12
REMARK    7  A    between atoms: C_12  and  C_14
REMARK    8  A    between atoms: C_14  and  N_15
REMARK    9  A    between atoms: C_17  and  C_18
REMARK                            x       y       z     vdW  Elec       q    Type
REMARK                         _______ _______ _______ _____ _____    ______ ____
ROOT
ATOM      1  C   UNL     1       2.590   7.091  18.579  0.00  0.00    +0.000 A 
ATOM      2  C   UNL     1       2.182   7.036  19.915  0.00  0.00    +0.000 A 
ATOM      3  C   UNL     1       1.570   8.142  20.509  0.00  0.00    +0.000 A 
ATOM      4  C   UNL     1       1.331   9.300  19.761  0.00  0.00    +0.000 A 
ATOM      5  C   UNL     1       1.684   9.341  18.412  0.00  0.00    +0.000 A 
ATOM      6  C   UNL     1       2.321   8.246  17.829  0.00  0.00    +0.000 A 
ENDROOT
BRANCH   4   7
ATOM      7  C   UNL     1       0.769  10.477  20.472  0.00  0.00    +0.000 C 
ATOM      8  O   UNL     1       0.717  10.463  21.703  0.00  0.00    +0.000 OA
BRANCH   7   9
ATOM      9  C   UNL     1       0.331  11.689  19.670  0.00  0.00    +0.000 C 
BRANCH   9  10
ATOM     10  N   UNL     1      -1.095  11.690  19.352  0.00  0.00    +0.000 N 
ATOM     11  C   UNL     1      -1.538  11.144  18.154  0.00  0.00    +0.000 A 
ATOM     12  C   UNL     1      -2.829  11.214  17.776  0.00  0.00    +0.000 A 
ATOM     13  C   UNL     1      -3.769  11.882  18.657  0.00  0.00    +0.000 A 
ATOM     14  C   UNL     1      -3.383  12.403  19.822  0.00  0.00    +0.000 A 
ATOM     15  C   UNL     1      -1.960  12.326  20.241  0.00  0.00    +0.000 A 
ATOM     16  O   UNL     1      -1.624  12.807  21.320  0.00  0.00    +0.000 OA
BRANCH  12  17
ATOM     17  C   UNL     1      -3.309  10.665  16.461  0.00  0.00    +0.000 C 
ATOM     18  F   UNL     1      -4.625  10.920  16.239  0.00  0.00    +0.000 F 
ATOM     19  F   UNL     1      -2.629  11.209  15.419  0.00  0.00    +0.000 F 
ATOM     20  F   UNL     1      -3.151   9.320  16.379  0.00  0.00    +0.000 F 
ENDBRANCH  12  17
ENDBRANCH   9  10
ENDBRANCH   7   9
ENDBRANCH   4   7
BRANCH   1  21
ATOM     21  C   UNL     1       3.288   5.914  17.944  0.00  0.00    +0.000 C 
BRANCH  21  22
ATOM     22  C   UNL     1       4.813   6.027  17.977  0.00  0.00    +0.000 C 
BRANCH  22  23
ATOM     23  C   UNL     1       5.504   4.689  17.720  0.00  0.00    +0.000 C 
BRANCH  23  27
ATOM     24  C   UNL     1       6.204   3.929  14.092  0.00  0.00    +0.000 C 
ATOM     25  C   UNL     1       6.493   4.396  15.489  0.00  0.00    +0.000 C 
ATOM     26  O   UNL     1       7.592   4.825  15.829  0.00  0.00    +0.000 OA
ATOM     27  N   UNL     1       5.417   4.293  16.335  0.00  0.00    +0.000 N 
ATOM     28  H   UNL     1       4.541   3.925  15.990  0.00  0.00    +0.000 HD
ENDBRANCH  23  27
ENDBRANCH  22  23
ENDBRANCH  21  22
ENDBRANCH   1  21
TORSDOF 8
ENDMDL
MODEL 7
REMARK VINA RESULT:      -7.6      4.146      8.789
REMARK  Name = 
REMARK  9 active torsions:
REMARK  status: ('A' for Active; 'I' for Inactive)
REMARK    1  A    between atoms: C_1  and  C_2
REMARK    2  A    between atoms: N_4  and  C_5
REMARK    3  A    between atoms: C_5  and  C_6
REMARK    4  A    between atoms: C_6  and  C_7
REMARK    5  A    between atoms: C_7  and  C_8
REMARK    6  A    between atoms: C_11  and  C_12
REMARK    7  A    between atoms: C_12  and  C_14
REMARK    8  A    between atoms: C_14  and  N_15
REMARK    9  A    between atoms: C_17  and  C_18
REMARK                            x       y       z     vdW  Elec       q    Type
REMARK                         _______ _______ _______ _____ _____    ______ ____
ROOT
ATOM      1  C   UNL     1       1.787   7.794  19.623  0.00  0.00    +0.000 A 
ATOM      2  C   UNL     1       2.264   7.440  18.357  0.00  0.00    +0.000 A 
ATOM      3  C   UNL     1       2.676   6.130  18.103  0.00  0.00    +0.000 A 
ATOM      4  C   UNL     1       2.582   5.155  19.103  0.00  0.00    +0.000 A 
ATOM      5  C   UNL     1       2.052   5.489  20.350  0.00  0.00    +0.000 A 
ATOM      6  C   UNL     1       1.670   6.805  20.611  0.00  0.00    +0.000 A 
ENDROOT
BRANCH   4   7
ATOM      7  C   UNL     1       3.127   3.806  18.805  0.00  0.00    +0.000 C 
ATOM      8  O   UNL     1       2.376   2.948  18.339  0.00  0.00    +0.000 OA
BRANCH   7   9
ATOM      9  C   UNL     1       4.604   3.538  19.024  0.00  0.00    +0.000 C 
BRANCH   9  10
ATOM     10  N   UNL     1       5.471   4.292  18.122  0.00  0.00    +0.000 N 
ATOM     11  C   UNL     1       5.385   4.091  16.750  0.00  0.00    +0.000 A 
ATOM     12  C   UNL     1       6.232   4.689  15.890  0.00  0.00    +0.000 A 
ATOM     13  C   UNL     1       7.257   5.564  16.430  0.00  0.00    +0.000 A 
ATOM     14  C   UNL     1       7.359   5.793  17.740  0.00  0.00    +0.000 A 
ATOM     15  C   UNL     1       6.425   5.136  18.689  0.00  0.00    +0.000 A 
ATOM     16  O   UNL     1       6.532   5.363  19.891  0.00  0.00    +0.000 OA
BRANCH  12  17
ATOM     17  C   UNL     1       6.174   4.443  14.408  0.00  0.00    +0.000 C 
ATOM     18  F   UNL     1       7.103   5.161  13.724  0.00  0.00    +0.000 F 
ATOM     19  F   UNL     1       6.401   3.138  14.113  0.00  0.00    +0.000 F 
ATOM     20  F   UNL     1       4.965   4.764  13.882  0.00  0.00    +0.000 F 
ENDBRANCH  12  17
ENDBRANCH   9  10
ENDBRANCH   7   9
ENDBRANCH   4   7
BRANCH   1  21
ATOM     21  C   UNL     1       1.379   9.217  19.916  0.00  0.00    +0.000 C 
BRANCH  21  22
ATOM     22  C   UNL     1       0.565   9.856  18.790  0.00  0.00    +0.000 C 
BRANCH  22  23
ATOM     23  C   UNL     1      -0.519  10.796  19.313  0.00  0.00    +0.000 C 
BRANCH  23  27
ATOM     24  C   UNL     1      -1.291  11.534  22.931  0.00  0.00    +0.000 C 
ATOM     25  C   UNL     1      -1.337  11.714  21.442  0.00  0.00    +0.000 C 
ATOM     26  O   UNL     1      -1.983  12.608  20.903  0.00  0.00    +0.000 OA
ATOM     27  N   UNL     1      -0.593  10.787  20.754  0.00  0.00    +0.000 N 
ATOM     28  H   UNL     1      -0.088  10.073  21.261  0.00  0.00    +0.000 HD
ENDBRANCH  23  27
ENDBRANCH  22  23
ENDBRANCH  21  22
ENDBRANCH   1  21
TORSDOF 8
ENDMDL
MODEL 8
REMARK VINA RESULT:      -7.6      4.193      8.689
REMARK  Name = 
REMARK  9 active torsions:
REMARK  status: ('A' for Active; 'I' for Inactive)
REMARK    1  A    between atoms: C_1  and  C_2
REMARK    2  A    between atoms: N_4  and  C_5
REMARK    3  A    between atoms: C_5  and  C_6
REMARK    4  A    between atoms: C_6  and  C_7
REMARK    5  A    between atoms: C_7  and  C_8
REMARK    6  A    between atoms: C_11  and  C_12
REMARK    7  A    between atoms: C_12  and  C_14
REMARK    8  A    between atoms: C_14  and  N_15
REMARK    9  A    between atoms: C_17  and  C_18
REMARK                            x       y       z     vdW  Elec       q    Type
REMARK                         _______ _______ _______ _____ _____    ______ ____
ROOT
ATOM      1  C   UNL     1       1.766   7.205  20.367  0.00  0.00    +0.000 A 
ATOM      2  C   UNL     1       2.294   7.262  19.073  0.00  0.00    +0.000 A 
ATOM      3  C   UNL     1       2.566   6.085  18.373  0.00  0.00    +0.000 A 
ATOM      4  C   UNL     1       2.281   4.841  18.947  0.00  0.00    +0.000 A 
ATOM      5  C   UNL     1       1.701   4.779  20.214  0.00  0.00    +0.000 A 
ATOM      6  C   UNL     1       1.457   5.955  20.924  0.00  0.00    +0.000 A 
ENDROOT
BRANCH   4   7
ATOM      7  C   UNL     1       2.685   3.625  18.196  0.00  0.00    +0.000 C 
ATOM      8  O   UNL     1       1.883   3.112  17.414  0.00  0.00    +0.000 OA
BRANCH   7   9
ATOM      9  C   UNL     1       4.092   3.082  18.364  0.00  0.00    +0.000 C 
BRANCH   9  10
ATOM     10  N   UNL     1       5.103   3.860  17.651  0.00  0.00    +0.000 N 
ATOM     11  C   UNL     1       5.179   3.793  16.266  0.00  0.00    +0.000 A 
ATOM     12  C   UNL     1       6.157   4.413  15.578  0.00  0.00    +0.000 A 
ATOM     13  C   UNL     1       7.150   5.167  16.320  0.00  0.00    +0.000 A 
ATOM     14  C   UNL     1       7.099   5.267  17.649  0.00  0.00    +0.000 A 
ATOM     15  C   UNL     1       6.021   4.585  18.409  0.00  0.00    +0.000 A 
ATOM     16  O   UNL     1       5.988   4.692  19.632  0.00  0.00    +0.000 OA
BRANCH  12  17
ATOM     17  C   UNL     1       6.272   4.309  14.082  0.00  0.00    +0.000 C 
ATOM     18  F   UNL     1       7.333   5.002  13.592  0.00  0.00    +0.000 F 
ATOM     19  F   UNL     1       6.436   3.021  13.685  0.00  0.00    +0.000 F 
ATOM     20  F   UNL     1       5.169   4.782  13.449  0.00  0.00    +0.000 F 
ENDBRANCH  12  17
ENDBRANCH   9  10
ENDBRANCH   7   9
ENDBRANCH   4   7
BRANCH   1  21
ATOM     21  C   UNL     1       1.508   8.472  21.144  0.00  0.00    +0.000 C 
BRANCH  21  22
ATOM     22  C   UNL     1       0.643   9.480  20.386  0.00  0.00    +0.000 C 
BRANCH  22  23
ATOM     23  C   UNL     1       0.785  10.899  20.933  0.00  0.00    +0.000 C 
BRANCH  23  27
ATOM     24  C   UNL     1      -0.314  13.506  18.439  0.00  0.00    +0.000 C 
ATOM     25  C   UNL     1       0.627  12.566  19.133  0.00  0.00    +0.000 C 
ATOM     26  O   UNL     1       1.805  12.450  18.810  0.00  0.00    +0.000 OA
ATOM     27  N   UNL     1       0.040  11.857  20.152  0.00  0.00    +0.000 N 
ATOM     28  H   UNL     1      -0.939  11.998  20.363  0.00  0.00    +0.000 HD
ENDBRANCH  23  27
ENDBRANCH  22  23
ENDBRANCH  21  22
ENDBRANCH   1  21
TORSDOF 8
ENDMDL
MODEL 9
REMARK VINA RESULT:      -7.6      2.509      3.561
REMARK  Name = 
REMARK  9 active torsions:
REMARK  status: ('A' for Active; 'I' for Inactive)
REMARK    1  A    between atoms: C_1  and  C_2
REMARK    2  A    between atoms: N_4  and  C_5
REMARK    3  A    between atoms: C_5  and  C_6
REMARK    4  A    between atoms: C_6  and  C_7
REMARK    5  A    between atoms: C_7  and  C_8
REMARK    6  A    between atoms: C_11  and  C_12
REMARK    7  A    between atoms: C_12  and  C_14
REMARK    8  A    between atoms: C_14  and  N_15
REMARK    9  A    between atoms: C_17  and  C_18
REMARK                            x       y       z     vdW  Elec       q    Type
REMARK                         _______ _______ _______ _____ _____    ______ ____
ROOT
ATOM      1  C   UNL     1       2.675   6.845  18.499  0.00  0.00    +0.000 A 
ATOM      2  C   UNL     1       2.280   6.793  19.840  0.00  0.00    +0.000 A 
ATOM      3  C   UNL     1       1.642   7.887  20.427  0.00  0.00    +0.000 A 
ATOM      4  C   UNL     1       1.364   9.031  19.670  0.00  0.00    +0.000 A 
ATOM      5  C   UNL     1       1.703   9.067  18.317  0.00  0.00    +0.000 A 
ATOM      6  C   UNL     1       2.367   7.984  17.740  0.00  0.00    +0.000 A 
ENDROOT
BRANCH   4   7
ATOM      7  C   UNL     1       0.775  10.199  20.374  0.00  0.00    +0.000 C 
ATOM      8  O   UNL     1       0.652  10.158  21.599  0.00  0.00    +0.000 OA
BRANCH   7   9
ATOM      9  C   UNL     1       0.398  11.433  19.575  0.00  0.00    +0.000 C 
BRANCH   9  10
ATOM     10  N   UNL     1      -1.023  11.496  19.240  0.00  0.00    +0.000 N 
ATOM     11  C   UNL     1      -1.472  10.987  18.028  0.00  0.00    +0.000 A 
ATOM     12  C   UNL     1      -2.754  11.114  17.636  0.00  0.00    +0.000 A 
ATOM     13  C   UNL     1      -3.678  11.805  18.516  0.00  0.00    +0.000 A 
ATOM     14  C   UNL     1      -3.287  12.291  19.695  0.00  0.00    +0.000 A 
ATOM     15  C   UNL     1      -1.873  12.151  20.129  0.00  0.00    +0.000 A 
ATOM     16  O   UNL     1      -1.533  12.601  21.220  0.00  0.00    +0.000 OA
BRANCH  12  17
ATOM     17  C   UNL     1      -3.239  10.607  16.306  0.00  0.00    +0.000 C 
ATOM     18  F   UNL     1      -2.610  11.202  15.259  0.00  0.00    +0.000 F 
ATOM     19  F   UNL     1      -3.025   9.272  16.177  0.00  0.00    +0.000 F 
ATOM     20  F   UNL     1      -4.569  10.814  16.132  0.00  0.00    +0.000 F 
ENDBRANCH  12  17
ENDBRANCH   9  10
ENDBRANCH   7   9
ENDBRANCH   4   7
BRANCH   1  21
ATOM     21  C   UNL     1       3.401   5.682  17.870  0.00  0.00    +0.000 C 
BRANCH  21  22
ATOM     22  C   UNL     1       4.497   5.100  18.763  0.00  0.00    +0.000 C 
BRANCH  22  23
ATOM     23  C   UNL     1       4.277   3.620  19.070  0.00  0.00    +0.000 C 
BRANCH  23  27
ATOM     24  C   UNL     1       1.355   2.761  21.295  0.00  0.00    +0.000 C 
ATOM     25  C   UNL     1       2.130   2.886  20.016  0.00  0.00    +0.000 C 
ATOM     26  O   UNL     1       1.678   2.534  18.931  0.00  0.00    +0.000 OA
ATOM     27  N   UNL     1       3.381   3.426  20.184  0.00  0.00    +0.000 N 
ATOM     28  H   UNL     1       3.693   3.691  21.109  0.00  0.00    +0.000 HD
ENDBRANCH  23  27
ENDBRANCH  22  23
ENDBRANCH  21  22
ENDBRANCH   1  21
TORSDOF 8
ENDMDL
