MODEL 1
REMARK VINA RESULT:      -6.5      0.000      0.000
REMARK  Name = 
REMARK  3 active torsions:
REMARK  status: ('A' for Active; 'I' for Inactive)
REMARK    1  A    between atoms: C_4  and  N_5
REMARK    2  A    between atoms: C_10  and  O_11
REMARK    3  A    between atoms: O_11  and  C_12
REMARK                            x       y       z     vdW  Elec       q    Type
REMARK                         _______ _______ _______ _____ _____    ______ ____
ROOT
ATOM      1  C   UNL     1       6.119   4.025  13.569  0.00  0.00    +0.000 A 
ATOM      2  C   UNL     1       7.272   4.685  13.926  0.00  0.00    +0.000 A 
ATOM      3  N   UNL     1       7.455   5.264  15.129  0.00  0.00    +0.000 NA
ATOM      4  C   UNL     1       6.458   5.227  16.057  0.00  0.00    +0.000 A 
ATOM      5  C   UNL     1       5.257   4.533  15.778  0.00  0.00    +0.000 A 
ATOM      6  C   UNL     1       5.095   3.949  14.511  0.00  0.00    +0.000 A 
ENDROOT
BRANCH   4   7
ATOM      7  N   UNL     1       6.733   5.853  17.261  0.00  0.00    +0.000 N 
ATOM      8  C   UNL     1       6.863   7.300  17.383  0.00  0.00    +0.000 C 
ATOM      9  C   UNL     1       8.097   7.490  18.260  0.00  0.00    +0.000 C 
ATOM     10  C   UNL     1       8.098   6.260  19.149  0.00  0.00    +0.000 C 
ATOM     11  C   UNL     1       7.602   5.159  18.216  0.00  0.00    +0.000 C 
ENDBRANCH   4   7
BRANCH   5  12
ATOM     12  O   UNL     1       4.246   4.494  16.718  0.00  0.00    +0.000 OA
BRANCH  12  13
ATOM     13  C   UNL     1       4.060   3.251  17.413  0.00  0.00    +0.000 C 
ATOM     14  C   UNL     1       2.594   2.834  17.420  0.00  0.00    +0.000 C 
ATOM     15  C   UNL     1       2.021   3.455  18.679  0.00  0.00    +0.000 C 
ATOM     16  N   UNL     1       3.103   3.465  19.661  0.00  0.00    +0.000 NA
ATOM     17  C   UNL     1       4.370   3.447  18.906  0.00  0.00    +0.000 C 
ATOM     18  H   UNL     1       3.047   2.632  20.246  0.00  0.00    +0.000 HD
ENDBRANCH  12  13
ENDBRANCH   5  12
TORSDOF 3
ENDMDL
MODEL 2
REMARK VINA RESULT:      -6.2      2.737      5.839
REMARK  Name = 
REMARK  3 active torsions:
REMARK  status: ('A' for Active; 'I' for Inactive)
REMARK    1  A    between atoms: C_4  and  N_5
REMARK    2  A    between atoms: C_10  and  O_11
REMARK    3  A    between atoms: O_11  and  C_12
REMARK                            x       y       z     vdW  Elec       q    Type
REMARK                         _______ _______ _______ _____ _____    ______ ____
ROOT
ATOM      1  C   UNL     1       2.305   8.691  18.502  0.00  0.00    +0.000 A 
ATOM      2  C   UNL     1       1.708   8.224  19.649  0.00  0.00    +0.000 A 
ATOM      3  N   UNL     1       1.768   6.939  20.048  0.00  0.00    +0.000 NA
ATOM      4  C   UNL     1       2.433   6.024  19.287  0.00  0.00    +0.000 A 
ATOM      5  C   UNL     1       3.104   6.436  18.112  0.00  0.00    +0.000 A 
ATOM      6  C   UNL     1       3.014   7.781  17.721  0.00  0.00    +0.000 A 
ENDROOT
BRANCH   4   7
ATOM      7  N   UNL     1       2.437   4.728  19.771  0.00  0.00    +0.000 N 
ATOM      8  C   UNL     1       1.758   3.631  19.090  0.00  0.00    +0.000 C 
ATOM      9  C   UNL     1       1.045   2.880  20.211  0.00  0.00    +0.000 C 
ATOM     10  C   UNL     1       1.941   3.102  21.417  0.00  0.00    +0.000 C 
ATOM     11  C   UNL     1       2.430   4.534  21.225  0.00  0.00    +0.000 C 
ENDBRANCH   4   7
BRANCH   5  12
ATOM     12  O   UNL     1       3.779   5.510  17.340  0.00  0.00    +0.000 OA
BRANCH  12  13
ATOM     13  C   UNL     1       5.082   5.888  16.871  0.00  0.00    +0.000 C 
ATOM     14  C   UNL     1       5.375   5.288  15.501  0.00  0.00    +0.000 C 
ATOM     15  C   UNL     1       6.030   3.953  15.796  0.00  0.00    +0.000 C 
ATOM     16  N   UNL     1       6.784   4.129  17.035  0.00  0.00    +0.000 NA
ATOM     17  C   UNL     1       6.156   5.247  17.766  0.00  0.00    +0.000 C 
ATOM     18  H   UNL     1       7.751   4.368  16.820  0.00  0.00    +0.000 HD
ENDBRANCH  12  13
ENDBRANCH   5  12
TORSDOF 3
ENDMDL
MODEL 3
REMARK VINA RESULT:      -6.2      1.653      5.257
REMARK  Name = 
REMARK  3 active torsions:
REMARK  status: ('A' for Active; 'I' for Inactive)
REMARK    1  A    between atoms: C_4  and  N_5
REMARK    2  A    between atoms: C_10  and  O_11
REMARK    3  A    between atoms: O_11  and  C_12
REMARK                            x       y       z     vdW  Elec       q    Type
REMARK                         _______ _______ _______ _____ _____    ______ ____
ROOT
ATOM      1  C   UNL     1       7.618   5.390  18.511  0.00  0.00    +0.000 A 
ATOM      2  C   UNL     1       6.527   5.374  19.347  0.00  0.00    +0.000 A 
ATOM      3  N   UNL     1       5.340   4.832  19.012  0.00  0.00    +0.000 NA
ATOM      4  C   UNL     1       5.174   4.277  17.778  0.00  0.00    +0.000 A 
ATOM      5  C   UNL     1       6.262   4.221  16.875  0.00  0.00    +0.000 A 
ATOM      6  C   UNL     1       7.482   4.804  17.254  0.00  0.00    +0.000 A 
ENDROOT
BRANCH   4   7
ATOM      7  N   UNL     1       3.921   3.750  17.519  0.00  0.00    +0.000 N 
ATOM      8  C   UNL     1       2.703   4.549  17.583  0.00  0.00    +0.000 C 
ATOM      9  C   UNL     1       1.713   3.661  18.333  0.00  0.00    +0.000 C 
ATOM     10  C   UNL     1       2.143   2.254  17.962  0.00  0.00    +0.000 C 
ATOM     11  C   UNL     1       3.664   2.360  17.907  0.00  0.00    +0.000 C 
ENDBRANCH   4   7
BRANCH   5  12
ATOM     12  O   UNL     1       6.095   3.658  15.625  0.00  0.00    +0.000 OA
BRANCH  12  13
ATOM     13  C   UNL     1       5.810   4.559  14.544  0.00  0.00    +0.000 C 
ATOM     14  C   UNL     1       5.074   3.852  13.412  0.00  0.00    +0.000 C 
ATOM     15  C   UNL     1       6.171   3.338  12.500  0.00  0.00    +0.000 C 
ATOM     16  N   UNL     1       7.263   4.306  12.585  0.00  0.00    +0.000 NA
ATOM     17  C   UNL     1       7.125   4.998  13.881  0.00  0.00    +0.000 C 
ATOM     18  H   UNL     1       7.182   4.986  11.830  0.00  0.00    +0.000 HD
ENDBRANCH  12  13
ENDBRANCH   5  12
TORSDOF 3
ENDMDL
MODEL 4
REMARK VINA RESULT:      -6.0      2.356      5.444
REMARK  Name = 
REMARK  3 active torsions:
REMARK  status: ('A' for Active; 'I' for Inactive)
REMARK    1  A    between atoms: C_4  and  N_5
REMARK    2  A    between atoms: C_10  and  O_11
REMARK    3  A    between atoms: O_11  and  C_12
REMARK                            x       y       z     vdW  Elec       q    Type
REMARK                         _______ _______ _______ _____ _____    ______ ____
ROOT
ATOM      1  C   UNL     1       2.545   8.190  18.480  0.00  0.00    +0.000 A 
ATOM      2  C   UNL     1       2.088   7.522  19.591  0.00  0.00    +0.000 A 
ATOM      3  N   UNL     1       2.302   6.210  19.811  0.00  0.00    +0.000 NA
ATOM      4  C   UNL     1       2.990   5.474  18.893  0.00  0.00    +0.000 A 
ATOM      5  C   UNL     1       3.524   6.098  17.742  0.00  0.00    +0.000 A 
ATOM      6  C   UNL     1       3.275   7.465  17.540  0.00  0.00    +0.000 A 
ENDROOT
BRANCH   4   7
ATOM      7  N   UNL     1       3.156   4.134  19.199  0.00  0.00    +0.000 N 
ATOM      8  C   UNL     1       2.143   3.356  19.903  0.00  0.00    +0.000 C 
ATOM      9  C   UNL     1       2.936   2.560  20.937  0.00  0.00    +0.000 C 
ATOM     10  C   UNL     1       4.284   2.352  20.270  0.00  0.00    +0.000 C 
ATOM     11  C   UNL     1       4.506   3.663  19.522  0.00  0.00    +0.000 C 
ENDBRANCH   4   7
BRANCH   5  12
ATOM     12  O   UNL     1       4.223   5.353  16.811  0.00  0.00    +0.000 OA
BRANCH  12  13
ATOM     13  C   UNL     1       5.362   5.982  16.206  0.00  0.00    +0.000 C 
ATOM     14  C   UNL     1       5.757   5.285  14.909  0.00  0.00    +0.000 C 
ATOM     15  C   UNL     1       6.751   4.220  15.329  0.00  0.00    +0.000 C 
ATOM     16  N   UNL     1       7.473   4.763  16.478  0.00  0.00    +0.000 NA
ATOM     17  C   UNL     1       6.597   5.775  17.098  0.00  0.00    +0.000 C 
ATOM     18  H   UNL     1       8.335   5.209  16.165  0.00  0.00    +0.000 HD
ENDBRANCH  12  13
ENDBRANCH   5  12
TORSDOF 3
ENDMDL
MODEL 5
REMARK VINA RESULT:      -6.0      2.591      5.275
REMARK  Name = 
REMARK  3 active torsions:
REMARK  status: ('A' for Active; 'I' for Inactive)
REMARK    1  A    between atoms: C_4  and  N_5
REMARK    2  A    between atoms: C_10  and  O_11
REMARK    3  A    between atoms: O_11  and  C_12
REMARK                            x       y       z     vdW  Elec       q    Type
REMARK                         _______ _______ _______ _____ _____    ______ ____
ROOT
ATOM      1  C   UNL     1       2.902   2.569  18.245  0.00  0.00    +0.000 A 
ATOM      2  C   UNL     1       1.815   3.394  18.077  0.00  0.00    +0.000 A 
ATOM      3  N   UNL     1       1.865   4.731  18.232  0.00  0.00    +0.000 NA
ATOM      4  C   UNL     1       3.036   5.328  18.590  0.00  0.00    +0.000 A 
ATOM      5  C   UNL     1       4.208   4.550  18.744  0.00  0.00    +0.000 A 
ATOM      6  C   UNL     1       4.119   3.158  18.584  0.00  0.00    +0.000 A 
ENDROOT
BRANCH   4   7
ATOM      7  N   UNL     1       2.992   6.704  18.731  0.00  0.00    +0.000 N 
ATOM      8  C   UNL     1       2.188   7.364  19.753  0.00  0.00    +0.000 C 
ATOM      9  C   UNL     1       1.519   8.519  19.012  0.00  0.00    +0.000 C 
ATOM     10  C   UNL     1       2.522   8.880  17.932  0.00  0.00    +0.000 C 
ATOM     11  C   UNL     1       3.090   7.525  17.521  0.00  0.00    +0.000 C 
ENDBRANCH   4   7
BRANCH   5  12
ATOM     12  O   UNL     1       5.397   5.153  19.105  0.00  0.00    +0.000 OA
BRANCH  12  13
ATOM     13  C   UNL     1       6.523   4.928  18.244  0.00  0.00    +0.000 C 
ATOM     14  C   UNL     1       7.781   5.595  18.789  0.00  0.00    +0.000 C 
ATOM     15  C   UNL     1       7.778   6.983  18.179  0.00  0.00    +0.000 C 
ATOM     16  N   UNL     1       7.160   6.851  16.861  0.00  0.00    +0.000 NA
ATOM     17  C   UNL     1       6.300   5.653  16.907  0.00  0.00    +0.000 C 
ATOM     18  H   UNL     1       7.881   6.721  16.153  0.00  0.00    +0.000 HD
ENDBRANCH  12  13
ENDBRANCH   5  12
TORSDOF 3
ENDMDL
MODEL 6
REMARK VINA RESULT:      -5.9      2.315      5.545
REMARK  Name = 
REMARK  3 active torsions:
REMARK  status: ('A' for Active; 'I' for Inactive)
REMARK    1  A    between atoms: C_4  and  N_5
REMARK    2  A    between atoms: C_10  and  O_11
REMARK    3  A    between atoms: O_11  and  C_12
REMARK                            x       y       z     vdW  Elec       q    Type
REMARK                         _______ _______ _______ _____ _____    ______ ____
ROOT
ATOM      1  C   UNL     1       2.538   8.305  18.531  0.00  0.00    +0.000 A 
ATOM      2  C   UNL     1       1.976   7.677  19.617  0.00  0.00    +0.000 A 
ATOM      3  N   UNL     1       2.098   6.357  19.858  0.00  0.00    +0.000 NA
ATOM      4  C   UNL     1       2.794   5.572  18.990  0.00  0.00    +0.000 A 
ATOM      5  C   UNL     1       3.434   6.151  17.868  0.00  0.00    +0.000 A 
ATOM      6  C   UNL     1       3.279   7.528  17.642  0.00  0.00    +0.000 A 
ENDROOT
BRANCH   4   7
ATOM      7  N   UNL     1       2.861   4.228  19.315  0.00  0.00    +0.000 N 
ATOM      8  C   UNL     1       4.126   3.521  19.482  0.00  0.00    +0.000 C 
ATOM      9  C   UNL     1       3.917   2.204  18.738  0.00  0.00    +0.000 C 
ATOM     10  C   UNL     1       2.429   1.943  18.884  0.00  0.00    +0.000 C 
ATOM     11  C   UNL     1       1.821   3.339  18.788  0.00  0.00    +0.000 C 
ENDBRANCH   4   7
BRANCH   5  12
ATOM     12  O   UNL     1       4.140   5.356  16.987  0.00  0.00    +0.000 OA
BRANCH  12  13
ATOM     13  C   UNL     1       5.277   5.956  16.347  0.00  0.00    +0.000 C 
ATOM     14  C   UNL     1       5.622   5.241  15.046  0.00  0.00    +0.000 C 
ATOM     15  C   UNL     1       6.604   4.158  15.448  0.00  0.00    +0.000 C 
ATOM     16  N   UNL     1       7.368   4.693  16.574  0.00  0.00    +0.000 NA
ATOM     17  C   UNL     1       6.530   5.728  17.209  0.00  0.00    +0.000 C 
ATOM     18  H   UNL     1       8.230   5.118  16.235  0.00  0.00    +0.000 HD
ENDBRANCH  12  13
ENDBRANCH   5  12
TORSDOF 3
ENDMDL
MODEL 7
REMARK VINA RESULT:      -5.9      2.371      4.013
REMARK  Name = 
REMARK  3 active torsions:
REMARK  status: ('A' for Active; 'I' for Inactive)
REMARK    1  A    between atoms: C_4  and  N_5
REMARK    2  A    between atoms: C_10  and  O_11
REMARK    3  A    between atoms: O_11  and  C_12
REMARK                            x       y       z     vdW  Elec       q    Type
REMARK                         _______ _______ _______ _____ _____    ______ ____
ROOT
ATOM      1  C   UNL     1       2.343   7.707  18.815  0.00  0.00    +0.000 A 
ATOM      2  C   UNL     1       3.067   7.982  17.680  0.00  0.00    +0.000 A 
ATOM      3  N   UNL     1       4.000   7.153  17.173  0.00  0.00    +0.000 NA
ATOM      4  C   UNL     1       4.277   5.979  17.807  0.00  0.00    +0.000 A 
ATOM      5  C   UNL     1       3.547   5.608  18.961  0.00  0.00    +0.000 A 
ATOM      6  C   UNL     1       2.588   6.500  19.466  0.00  0.00    +0.000 A 
ENDROOT
BRANCH   4   7
ATOM      7  N   UNL     1       5.254   5.193  17.219  0.00  0.00    +0.000 N 
ATOM      8  C   UNL     1       6.611   5.671  16.984  0.00  0.00    +0.000 C 
ATOM      9  C   UNL     1       6.932   5.202  15.567  0.00  0.00    +0.000 C 
ATOM     10  C   UNL     1       6.124   3.925  15.422  0.00  0.00    +0.000 C 
ATOM     11  C   UNL     1       4.841   4.238  16.186  0.00  0.00    +0.000 C 
ENDBRANCH   4   7
BRANCH   5  12
ATOM     12  O   UNL     1       3.826   4.417  19.603  0.00  0.00    +0.000 OA
BRANCH  12  13
ATOM     13  C   UNL     1       2.750   3.473  19.708  0.00  0.00    +0.000 C 
ATOM     14  C   UNL     1       3.270   2.066  19.975  0.00  0.00    +0.000 C 
ATOM     15  C   UNL     1       3.473   1.460  18.600  0.00  0.00    +0.000 C 
ATOM     16  N   UNL     1       2.445   2.042  17.740  0.00  0.00    +0.000 NA
ATOM     17  C   UNL     1       2.058   3.331  18.342  0.00  0.00    +0.000 C 
ATOM     18  H   UNL     1       1.633   1.427  17.708  0.00  0.00    +0.000 HD
ENDBRANCH  12  13
ENDBRANCH   5  12
TORSDOF 3
ENDMDL
MODEL 8
REMARK VINA RESULT:      -5.8      0.742      1.232
REMARK  Name = 
REMARK  3 active torsions:
REMARK  status: ('A' for Active; 'I' for Inactive)
REMARK    1  A    between atoms: C_4  and  N_5
REMARK    2  A    between atoms: C_10  and  O_11
REMARK    3  A    between atoms: O_11  and  C_12
REMARK                            x       y       z     vdW  Elec       q    Type
REMARK                         _______ _______ _______ _____ _____    ______ ____
ROOT
ATOM      1  C   UNL     1       5.520   4.006  13.678  0.00  0.00    +0.000 A 
ATOM      2  C   UNL     1       6.822   4.447  13.640  0.00  0.00    +0.000 A 
ATOM      3  N   UNL     1       7.473   4.935  14.713  0.00  0.00    +0.000 NA
ATOM      4  C   UNL     1       6.830   5.026  15.912  0.00  0.00    +0.000 A 
ATOM      5  C   UNL     1       5.501   4.557  16.039  0.00  0.00    +0.000 A 
ATOM      6  C   UNL     1       4.849   4.063  14.897  0.00  0.00    +0.000 A 
ENDROOT
BRANCH   4   7
ATOM      7  N   UNL     1       7.575   5.545  16.956  0.00  0.00    +0.000 N 
ATOM      8  C   UNL     1       7.850   4.793  18.175  0.00  0.00    +0.000 C 
ATOM      9  C   UNL     1       7.609   5.801  19.297  0.00  0.00    +0.000 C 
ATOM     10  C   UNL     1       7.968   7.133  18.664  0.00  0.00    +0.000 C 
ATOM     11  C   UNL     1       7.470   6.981  17.231  0.00  0.00    +0.000 C 
ENDBRANCH   4   7
BRANCH   5  12
ATOM     12  O   UNL     1       4.848   4.648  17.252  0.00  0.00    +0.000 OA
BRANCH  12  13
ATOM     13  C   UNL     1       3.774   3.722  17.478  0.00  0.00    +0.000 C 
ATOM     14  C   UNL     1       2.459   4.449  17.733  0.00  0.00    +0.000 C 
ATOM     15  C   UNL     1       2.410   4.647  19.235  0.00  0.00    +0.000 C 
ATOM     16  N   UNL     1       3.091   3.495  19.823  0.00  0.00    +0.000 NA
ATOM     17  C   UNL     1       4.014   2.971  18.798  0.00  0.00    +0.000 C 
ATOM     18  H   UNL     1       2.410   2.775  20.062  0.00  0.00    +0.000 HD
ENDBRANCH  12  13
ENDBRANCH   5  12
TORSDOF 3
ENDMDL
MODEL 9
REMARK VINA RESULT:      -5.8      3.020      5.885
REMARK  Name = 
REMARK  3 active torsions:
REMARK  status: ('A' for Active; 'I' for Inactive)
REMARK    1  A    between atoms: C_4  and  N_5
REMARK    2  A    between atoms: C_10  and  O_11
REMARK    3  A    between atoms: O_11  and  C_12
REMARK                            x       y       z     vdW  Elec       q    Type
REMARK                         _______ _______ _______ _____ _____    ______ ____
ROOT
ATOM      1  C   UNL     1       2.367   2.980  20.280  0.00  0.00    +0.000 A 
ATOM      2  C   UNL     1       1.284   3.818  20.404  0.00  0.00    +0.000 A 
ATOM      3  N   UNL     1       1.337   5.142  20.160  0.00  0.00    +0.000 NA
ATOM      4  C   UNL     1       2.515   5.715  19.784  0.00  0.00    +0.000 A 
ATOM      5  C   UNL     1       3.664   4.911  19.598  0.00  0.00    +0.000 A 
ATOM      6  C   UNL     1       3.577   3.536  19.870  0.00  0.00    +0.000 A 
ENDROOT
BRANCH   4   7
ATOM      7  N   UNL     1       2.476   7.080  19.560  0.00  0.00    +0.000 N 
ATOM      8  C   UNL     1       1.810   8.007  20.468  0.00  0.00    +0.000 C 
ATOM      9  C   UNL     1       1.035   8.943  19.543  0.00  0.00    +0.000 C 
ATOM     10  C   UNL     1       1.880   8.979  18.282  0.00  0.00    +0.000 C 
ATOM     11  C   UNL     1       2.401   7.550  18.173  0.00  0.00    +0.000 C 
ENDBRANCH   4   7
BRANCH   5  12
ATOM     12  O   UNL     1       4.859   5.490  19.216  0.00  0.00    +0.000 OA
BRANCH  12  13
ATOM     13  C   UNL     1       5.570   4.855  18.143  0.00  0.00    +0.000 C 
ATOM     14  C   UNL     1       7.065   5.141  18.221  0.00  0.00    +0.000 C 
ATOM     15  C   UNL     1       7.259   6.405  17.406  0.00  0.00    +0.000 C 
ATOM     16  N   UNL     1       6.264   6.361  16.336  0.00  0.00    +0.000 NA
ATOM     17  C   UNL     1       5.164   5.498  16.807  0.00  0.00    +0.000 C 
ATOM     18  H   UNL     1       6.677   5.956  15.497  0.00  0.00    +0.000 HD
ENDBRANCH  12  13
ENDBRANCH   5  12
TORSDOF 3
ENDMDL
