MODEL 1
REMARK VINA RESULT:      -7.2      0.000      0.000
REMARK  Name = 
REMARK  7 active torsions:
REMARK  status: ('A' for Active; 'I' for Inactive)
REMARK    1  A    between atoms: C_2  and  C_3
REMARK    2  A    between atoms: C_6  and  C_7
REMARK    3  A    between atoms: C_7  and  N_8
REMARK    4  A    between atoms: N_12  and  C_13
REMARK    5  A    between atoms: C_13  and  C_14
REMARK    6  A    between atoms: C_14  and  C_15
REMARK    7  A    between atoms: C_15  and  N_16
REMARK                            x       y       z     vdW  Elec       q    Type
REMARK                         _______ _______ _______ _____ _____    ______ ____
ROOT
ATOM      1  N   UNL     1       3.762   2.989  17.681  0.00  0.00    +0.000 NA
ATOM      2  C   UNL     1       2.654   3.929  17.449  0.00  0.00    +0.000 C 
ATOM      3  C   UNL     1       1.292   3.671  18.106  0.00  0.00    +0.000 C 
ATOM      4  C   UNL     1       1.174   3.353  19.594  0.00  0.00    +0.000 C 
ATOM      5  N   UNL     1       2.267   3.706  20.487  0.00  0.00    +0.000 NA
ATOM      6  C   UNL     1       3.395   2.789  20.272  0.00  0.00    +0.000 C 
ATOM      7  C   UNL     1       4.317   3.023  19.058  0.00  0.00    +0.000 C 
ENDROOT
BRANCH   1   8
ATOM      8  C   UNL     1       4.896   3.332  16.767  0.00  0.00    +0.000 C 
BRANCH   8  12
ATOM      9  C   UNL     1       7.062   7.010  17.557  0.00  0.00    +0.000 A 
ATOM     10  C   UNL     1       7.612   5.776  17.913  0.00  0.00    +0.000 A 
ATOM     11  C   UNL     1       6.904   4.594  17.672  0.00  0.00    +0.000 A 
ATOM     12  C   UNL     1       5.632   4.624  17.075  0.00  0.00    +0.000 A 
ATOM     13  C   UNL     1       5.088   5.864  16.721  0.00  0.00    +0.000 A 
ATOM     14  C   UNL     1       5.801   7.047  16.956  0.00  0.00    +0.000 A 
BRANCH   9  16
ATOM     15  N   UNL     1       8.371   9.212  17.989  0.00  0.00    +0.000 NA
ATOM     16  C   UNL     1       7.786   8.230  17.798  0.00  0.00    +0.000 C 
ENDBRANCH   9  16
ENDBRANCH   8  12
ENDBRANCH   1   8
BRANCH   5  17
ATOM     17  C   UNL     1       2.632   5.123  20.535  0.00  0.00    +0.000 C 
BRANCH  17  18
ATOM     18  C   UNL     1       1.428   6.070  20.568  0.00  0.00    +0.000 C 
BRANCH  18  19
ATOM     19  C   UNL     1       1.849   7.525  20.746  0.00  0.00    +0.000 C 
BRANCH  19  20
ATOM     20  N   UNL     1       1.766   8.258  19.502  0.00  0.00    +0.000 N 
ATOM     21  C   UNL     1       2.461   8.030  18.355  0.00  0.00    +0.000 A 
ATOM     22  N   UNL     1       2.126   8.926  17.456  0.00  0.00    +0.000 NA
ATOM     23  C   UNL     1       1.205   9.690  18.115  0.00  0.00    +0.000 A 
ATOM     24  N   UNL     1       0.954   9.323  19.374  0.00  0.00    +0.000 NA
ENDBRANCH  19  20
ENDBRANCH  18  19
ENDBRANCH  17  18
ENDBRANCH   5  17
TORSDOF 7
ENDMDL
MODEL 2
REMARK VINA RESULT:      -7.0      2.178      6.232
REMARK  Name = 
REMARK  7 active torsions:
REMARK  status: ('A' for Active; 'I' for Inactive)
REMARK    1  A    between atoms: C_2  and  C_3
REMARK    2  A    between atoms: C_6  and  C_7
REMARK    3  A    between atoms: C_7  and  N_8
REMARK    4  A    between atoms: N_12  and  C_13
REMARK    5  A    between atoms: C_13  and  C_14
REMARK    6  A    between atoms: C_14  and  C_15
REMARK    7  A    between atoms: C_15  and  N_16
REMARK                            x       y       z     vdW  Elec       q    Type
REMARK                         _______ _______ _______ _____ _____    ______ ____
ROOT
ATOM      1  N   UNL     1       1.879   5.703  19.682  0.00  0.00    +0.000 NA
ATOM      2  C   UNL     1       2.410   4.813  20.727  0.00  0.00    +0.000 C 
ATOM      3  C   UNL     1       1.710   3.478  21.013  0.00  0.00    +0.000 C 
ATOM      4  C   UNL     1       1.345   2.515  19.886  0.00  0.00    +0.000 C 
ATOM      5  N   UNL     1       2.020   2.631  18.602  0.00  0.00    +0.000 NA
ATOM      6  C   UNL     1       1.525   3.817  17.891  0.00  0.00    +0.000 C 
ATOM      7  C   UNL     1       2.068   5.203  18.297  0.00  0.00    +0.000 C 
ENDROOT
BRANCH   1   8
ATOM      8  C   UNL     1       2.588   7.018  19.751  0.00  0.00    +0.000 C 
BRANCH   8  12
ATOM      9  C   UNL     1      -0.018  10.488  19.611  0.00  0.00    +0.000 A 
ATOM     10  C   UNL     1       0.705  10.102  18.480  0.00  0.00    +0.000 A 
ATOM     11  C   UNL     1       1.557   8.992  18.533  0.00  0.00    +0.000 A 
ATOM     12  C   UNL     1       1.705   8.253  19.719  0.00  0.00    +0.000 A 
ATOM     13  C   UNL     1       0.977   8.646  20.848  0.00  0.00    +0.000 A 
ATOM     14  C   UNL     1       0.118   9.752  20.792  0.00  0.00    +0.000 A 
BRANCH   9  16
ATOM     15  N   UNL     1      -1.604  12.542  19.526  0.00  0.00    +0.000 NA
ATOM     16  C   UNL     1      -0.898  11.625  19.563  0.00  0.00    +0.000 C 
ENDBRANCH   9  16
ENDBRANCH   8  12
ENDBRANCH   1   8
BRANCH   5  17
ATOM     17  C   UNL     1       3.477   2.494  18.623  0.00  0.00    +0.000 C 
BRANCH  17  18
ATOM     18  C   UNL     1       4.172   3.088  17.393  0.00  0.00    +0.000 C 
BRANCH  18  19
ATOM     19  C   UNL     1       5.274   4.071  17.777  0.00  0.00    +0.000 C 
BRANCH  19  20
ATOM     20  N   UNL     1       6.061   4.461  16.628  0.00  0.00    +0.000 N 
ATOM     21  C   UNL     1       6.944   5.491  16.537  0.00  0.00    +0.000 A 
ATOM     22  N   UNL     1       7.438   5.537  15.321  0.00  0.00    +0.000 NA
ATOM     23  C   UNL     1       6.813   4.493  14.699  0.00  0.00    +0.000 A 
ATOM     24  N   UNL     1       5.955   3.806  15.458  0.00  0.00    +0.000 NA
ENDBRANCH  19  20
ENDBRANCH  18  19
ENDBRANCH  17  18
ENDBRANCH   5  17
TORSDOF 7
ENDMDL
MODEL 3
REMARK VINA RESULT:      -6.9      2.260      6.324
REMARK  Name = 
REMARK  7 active torsions:
REMARK  status: ('A' for Active; 'I' for Inactive)
REMARK    1  A    between atoms: C_2  and  C_3
REMARK    2  A    between atoms: C_6  and  C_7
REMARK    3  A    between atoms: C_7  and  N_8
REMARK    4  A    between atoms: N_12  and  C_13
REMARK    5  A    between atoms: C_13  and  C_14
REMARK    6  A    between atoms: C_14  and  C_15
REMARK    7  A    between atoms: C_15  and  N_16
REMARK                            x       y       z     vdW  Elec       q    Type
REMARK                         _______ _______ _______ _____ _____    ______ ____
ROOT
ATOM      1  N   UNL     1       1.781   5.633  19.784  0.00  0.00    +0.000 NA
ATOM      2  C   UNL     1       2.307   4.687  20.780  0.00  0.00    +0.000 C 
ATOM      3  C   UNL     1       1.641   3.315  20.948  0.00  0.00    +0.000 C 
ATOM      4  C   UNL     1       1.341   2.424  19.746  0.00  0.00    +0.000 C 
ATOM      5  N   UNL     1       2.051   2.651  18.496  0.00  0.00    +0.000 NA
ATOM      6  C   UNL     1       1.541   3.870  17.854  0.00  0.00    +0.000 C 
ATOM      7  C   UNL     1       2.027   5.238  18.373  0.00  0.00    +0.000 C 
ENDROOT
BRANCH   1   8
ATOM      8  C   UNL     1       2.446   6.960  19.967  0.00  0.00    +0.000 C 
BRANCH   8  12
ATOM      9  C   UNL     1      -0.120  10.448  20.274  0.00  0.00    +0.000 A 
ATOM     10  C   UNL     1      -0.070   9.515  21.312  0.00  0.00    +0.000 A 
ATOM     11  C   UNL     1       0.746   8.383  21.203  0.00  0.00    +0.000 A 
ATOM     12  C   UNL     1       1.522   8.162  20.053  0.00  0.00    +0.000 A 
ATOM     13  C   UNL     1       1.467   9.102  19.017  0.00  0.00    +0.000 A 
ATOM     14  C   UNL     1       0.656  10.239  19.130  0.00  0.00    +0.000 A 
BRANCH   9  16
ATOM     15  N   UNL     1      -1.624  12.557  20.462  0.00  0.00    +0.000 NA
ATOM     16  C   UNL     1      -0.953  11.616  20.381  0.00  0.00    +0.000 C 
ENDBRANCH   9  16
ENDBRANCH   8  12
ENDBRANCH   1   8
BRANCH   5  17
ATOM     17  C   UNL     1       3.510   2.555  18.554  0.00  0.00    +0.000 C 
BRANCH  17  18
ATOM     18  C   UNL     1       4.218   3.140  17.327  0.00  0.00    +0.000 C 
BRANCH  18  19
ATOM     19  C   UNL     1       5.305   4.138  17.715  0.00  0.00    +0.000 C 
BRANCH  19  20
ATOM     20  N   UNL     1       6.093   4.536  16.569  0.00  0.00    +0.000 N 
ATOM     21  C   UNL     1       6.881   5.637  16.446  0.00  0.00    +0.000 A 
ATOM     22  N   UNL     1       7.411   5.662  15.244  0.00  0.00    +0.000 NA
ATOM     23  C   UNL     1       6.907   4.532  14.665  0.00  0.00    +0.000 A 
ATOM     24  N   UNL     1       6.089   3.810  15.437  0.00  0.00    +0.000 NA
ENDBRANCH  19  20
ENDBRANCH  18  19
ENDBRANCH  17  18
ENDBRANCH   5  17
TORSDOF 7
ENDMDL
MODEL 4
REMARK VINA RESULT:      -6.8      2.004      6.310
REMARK  Name = 
REMARK  7 active torsions:
REMARK  status: ('A' for Active; 'I' for Inactive)
REMARK    1  A    between atoms: C_2  and  C_3
REMARK    2  A    between atoms: C_6  and  C_7
REMARK    3  A    between atoms: C_7  and  N_8
REMARK    4  A    between atoms: N_12  and  C_13
REMARK    5  A    between atoms: C_13  and  C_14
REMARK    6  A    between atoms: C_14  and  C_15
REMARK    7  A    between atoms: C_15  and  N_16
REMARK                            x       y       z     vdW  Elec       q    Type
REMARK                         _______ _______ _______ _____ _____    ______ ____
ROOT
ATOM      1  N   UNL     1       3.737   7.140  18.056  0.00  0.00    +0.000 NA
ATOM      2  C   UNL     1       4.364   6.857  16.756  0.00  0.00    +0.000 C 
ATOM      3  C   UNL     1       5.829   6.405  16.703  0.00  0.00    +0.000 C 
ATOM      4  C   UNL     1       6.345   5.277  17.592  0.00  0.00    +0.000 C 
ATOM      5  N   UNL     1       5.398   4.339  18.176  0.00  0.00    +0.000 NA
ATOM      6  C   UNL     1       4.657   4.997  19.260  0.00  0.00    +0.000 C 
ATOM      7  C   UNL     1       3.492   5.939  18.894  0.00  0.00    +0.000 C 
ENDROOT
BRANCH   1   8
ATOM      8  C   UNL     1       2.399   7.770  17.829  0.00  0.00    +0.000 C 
BRANCH   8  12
ATOM      9  C   UNL     1       0.543   9.762  21.211  0.00  0.00    +0.000 A 
ATOM     10  C   UNL     1       0.593  10.388  19.963  0.00  0.00    +0.000 A 
ATOM     11  C   UNL     1       1.206   9.749  18.879  0.00  0.00    +0.000 A 
ATOM     12  C   UNL     1       1.785   8.478  19.025  0.00  0.00    +0.000 A 
ATOM     13  C   UNL     1       1.731   7.856  20.278  0.00  0.00    +0.000 A 
ATOM     14  C   UNL     1       1.109   8.492  21.361  0.00  0.00    +0.000 A 
BRANCH   9  16
ATOM     15  N   UNL     1      -0.596  10.934  23.229  0.00  0.00    +0.000 NA
ATOM     16  C   UNL     1      -0.090  10.410  22.329  0.00  0.00    +0.000 C 
ENDBRANCH   9  16
ENDBRANCH   8  12
ENDBRANCH   1   8
BRANCH   5  17
ATOM     17  C   UNL     1       4.567   3.589  17.234  0.00  0.00    +0.000 C 
BRANCH  17  18
ATOM     18  C   UNL     1       3.984   2.297  17.815  0.00  0.00    +0.000 C 
BRANCH  18  19
ATOM     19  C   UNL     1       2.471   2.379  17.992  0.00  0.00    +0.000 C 
BRANCH  19  20
ATOM     20  N   UNL     1       2.111   2.629  19.371  0.00  0.00    +0.000 N 
ATOM     21  C   UNL     1       0.985   3.230  19.839  0.00  0.00    +0.000 A 
ATOM     22  N   UNL     1       1.037   3.295  21.150  0.00  0.00    +0.000 NA
ATOM     23  C   UNL     1       2.237   2.708  21.437  0.00  0.00    +0.000 A 
ATOM     24  N   UNL     1       2.935   2.287  20.378  0.00  0.00    +0.000 NA
ENDBRANCH  19  20
ENDBRANCH  18  19
ENDBRANCH  17  18
ENDBRANCH   5  17
TORSDOF 7
ENDMDL
MODEL 5
REMARK VINA RESULT:      -6.8      2.070      6.492
REMARK  Name = 
REMARK  7 active torsions:
REMARK  status: ('A' for Active; 'I' for Inactive)
REMARK    1  A    between atoms: C_2  and  C_3
REMARK    2  A    between atoms: C_6  and  C_7
REMARK    3  A    between atoms: C_7  and  N_8
REMARK    4  A    between atoms: N_12  and  C_13
REMARK    5  A    between atoms: C_13  and  C_14
REMARK    6  A    between atoms: C_14  and  C_15
REMARK    7  A    between atoms: C_15  and  N_16
REMARK                            x       y       z     vdW  Elec       q    Type
REMARK                         _______ _______ _______ _____ _____    ______ ____
ROOT
ATOM      1  N   UNL     1       4.534   4.580  17.489  0.00  0.00    +0.000 NA
ATOM      2  C   UNL     1       5.158   4.961  18.766  0.00  0.00    +0.000 C 
ATOM      3  C   UNL     1       6.643   4.657  19.005  0.00  0.00    +0.000 C 
ATOM      4  C   UNL     1       7.705   5.028  17.973  0.00  0.00    +0.000 C 
ATOM      5  N   UNL     1       7.403   6.037  16.969  0.00  0.00    +0.000 NA
ATOM      6  C   UNL     1       6.479   5.478  15.973  0.00  0.00    +0.000 C 
ATOM      7  C   UNL     1       4.980   5.386  16.324  0.00  0.00    +0.000 C 
ENDROOT
BRANCH   1   8
ATOM      8  C   UNL     1       3.055   4.774  17.588  0.00  0.00    +0.000 C 
BRANCH   8  12
ATOM      9  C   UNL     1       1.610   7.668  20.484  0.00  0.00    +0.000 A 
ATOM     10  C   UNL     1       2.073   8.089  19.235  0.00  0.00    +0.000 A 
ATOM     11  C   UNL     1       2.553   7.155  18.310  0.00  0.00    +0.000 A 
ATOM     12  C   UNL     1       2.584   5.785  18.619  0.00  0.00    +0.000 A 
ATOM     13  C   UNL     1       2.118   5.370  19.872  0.00  0.00    +0.000 A 
ATOM     14  C   UNL     1       1.630   6.305  20.795  0.00  0.00    +0.000 A 
BRANCH   9  16
ATOM     15  N   UNL     1       0.706   9.388  22.206  0.00  0.00    +0.000 NA
ATOM     16  C   UNL     1       1.111   8.621  21.439  0.00  0.00    +0.000 C 
ENDBRANCH   9  16
ENDBRANCH   8  12
ENDBRANCH   1   8
BRANCH   5  17
ATOM     17  C   UNL     1       7.033   7.360  17.473  0.00  0.00    +0.000 C 
BRANCH  17  18
ATOM     18  C   UNL     1       8.201   8.134  18.094  0.00  0.00    +0.000 C 
BRANCH  18  19
ATOM     19  C   UNL     1       8.185   9.607  17.701  0.00  0.00    +0.000 C 
BRANCH  19  20
ATOM     20  N   UNL     1       9.154  10.369  18.459  0.00  0.00    +0.000 N 
ATOM     21  C   UNL     1       9.316  10.395  19.809  0.00  0.00    +0.000 A 
ATOM     22  N   UNL     1      10.284  11.230  20.116  0.00  0.00    +0.000 NA
ATOM     23  C   UNL     1      10.686  11.692  18.895  0.00  0.00    +0.000 A 
ATOM     24  N   UNL     1      10.020  11.197  17.849  0.00  0.00    +0.000 NA
ENDBRANCH  19  20
ENDBRANCH  18  19
ENDBRANCH  17  18
ENDBRANCH   5  17
TORSDOF 7
ENDMDL
MODEL 6
REMARK VINA RESULT:      -6.7      1.460      2.181
REMARK  Name = 
REMARK  7 active torsions:
REMARK  status: ('A' for Active; 'I' for Inactive)
REMARK    1  A    between atoms: C_2  and  C_3
REMARK    2  A    between atoms: C_6  and  C_7
REMARK    3  A    between atoms: C_7  and  N_8
REMARK    4  A    between atoms: N_12  and  C_13
REMARK    5  A    between atoms: C_13  and  C_14
REMARK    6  A    between atoms: C_14  and  C_15
REMARK    7  A    between atoms: C_15  and  N_16
REMARK                            x       y       z     vdW  Elec       q    Type
REMARK                         _______ _______ _______ _____ _____    ______ ____
ROOT
ATOM      1  N   UNL     1       3.946   3.253  17.806  0.00  0.00    +0.000 NA
ATOM      2  C   UNL     1       2.731   3.861  17.240  0.00  0.00    +0.000 C 
ATOM      3  C   UNL     1       1.369   3.576  17.886  0.00  0.00    +0.000 C 
ATOM      4  C   UNL     1       1.160   3.716  19.391  0.00  0.00    +0.000 C 
ATOM      5  N   UNL     1       2.092   4.518  20.170  0.00  0.00    +0.000 NA
ATOM      6  C   UNL     1       3.365   3.798  20.307  0.00  0.00    +0.000 C 
ATOM      7  C   UNL     1       4.352   3.809  19.122  0.00  0.00    +0.000 C 
ENDROOT
BRANCH   1   8
ATOM      8  C   UNL     1       5.094   3.496  16.879  0.00  0.00    +0.000 C 
BRANCH   8  12
ATOM      9  C   UNL     1       7.237   7.203  17.600  0.00  0.00    +0.000 A 
ATOM     10  C   UNL     1       6.071   7.200  16.830  0.00  0.00    +0.000 A 
ATOM     11  C   UNL     1       5.392   6.000  16.587  0.00  0.00    +0.000 A 
ATOM     12  C   UNL     1       5.869   4.784  17.103  0.00  0.00    +0.000 A 
ATOM     13  C   UNL     1       7.037   4.795  17.873  0.00  0.00    +0.000 A 
ATOM     14  C   UNL     1       7.713   5.997  18.123  0.00  0.00    +0.000 A 
BRANCH   9  16
ATOM     15  N   UNL     1       8.501   9.424  18.063  0.00  0.00    +0.000 NA
ATOM     16  C   UNL     1       7.938   8.433  17.858  0.00  0.00    +0.000 C 
ENDBRANCH   9  16
ENDBRANCH   8  12
ENDBRANCH   1   8
BRANCH   5  17
ATOM     17  C   UNL     1       2.222   5.922  19.777  0.00  0.00    +0.000 C 
BRANCH  17  18
ATOM     18  C   UNL     1       1.741   6.910  20.845  0.00  0.00    +0.000 C 
BRANCH  18  19
ATOM     19  C   UNL     1       1.552   8.314  20.282  0.00  0.00    +0.000 C 
BRANCH  19  20
ATOM     20  N   UNL     1       0.838   9.166  21.208  0.00  0.00    +0.000 N 
ATOM     21  C   UNL     1       0.995   9.242  22.556  0.00  0.00    +0.000 A 
ATOM     22  N   UNL     1       0.144  10.114  23.047  0.00  0.00    +0.000 NA
ATOM     23  C   UNL     1      -0.520  10.550  21.935  0.00  0.00    +0.000 A 
ATOM     24  N   UNL     1      -0.133   9.995  20.784  0.00  0.00    +0.000 NA
ENDBRANCH  19  20
ENDBRANCH  18  19
ENDBRANCH  17  18
ENDBRANCH   5  17
TORSDOF 7
ENDMDL
MODEL 7
REMARK VINA RESULT:      -6.7      3.017      6.911
REMARK  Name = 
REMARK  7 active torsions:
REMARK  status: ('A' for Active; 'I' for Inactive)
REMARK    1  A    between atoms: C_2  and  C_3
REMARK    2  A    between atoms: C_6  and  C_7
REMARK    3  A    between atoms: C_7  and  N_8
REMARK    4  A    between atoms: N_12  and  C_13
REMARK    5  A    between atoms: C_13  and  C_14
REMARK    6  A    between atoms: C_14  and  C_15
REMARK    7  A    between atoms: C_15  and  N_16
REMARK                            x       y       z     vdW  Elec       q    Type
REMARK                         _______ _______ _______ _____ _____    ______ ____
ROOT
ATOM      1  N   UNL     1       2.774   6.405  18.888  0.00  0.00    +0.000 NA
ATOM      2  C   UNL     1       4.241   6.316  18.835  0.00  0.00    +0.000 C 
ATOM      3  C   UNL     1       4.947   5.072  19.389  0.00  0.00    +0.000 C 
ATOM      4  C   UNL     1       4.498   3.666  19.002  0.00  0.00    +0.000 C 
ATOM      5  N   UNL     1       3.703   3.477  17.798  0.00  0.00    +0.000 NA
ATOM      6  C   UNL     1       2.336   3.963  18.031  0.00  0.00    +0.000 C 
ATOM      7  C   UNL     1       2.070   5.481  17.963  0.00  0.00    +0.000 C 
ENDROOT
BRANCH   1   8
ATOM      8  C   UNL     1       2.350   7.786  18.500  0.00  0.00    +0.000 C 
BRANCH   8  12
ATOM      9  C   UNL     1       0.163  10.039  21.498  0.00  0.00    +0.000 A 
ATOM     10  C   UNL     1       0.940   8.939  21.869  0.00  0.00    +0.000 A 
ATOM     11  C   UNL     1       1.631   8.205  20.898  0.00  0.00    +0.000 A 
ATOM     12  C   UNL     1       1.553   8.554  19.539  0.00  0.00    +0.000 A 
ATOM     13  C   UNL     1       0.772   9.658  19.175  0.00  0.00    +0.000 A 
ATOM     14  C   UNL     1       0.087  10.397  20.148  0.00  0.00    +0.000 A 
BRANCH   9  16
ATOM     15  N   UNL     1      -1.122  11.414  23.287  0.00  0.00    +0.000 NA
ATOM     16  C   UNL     1      -0.547  10.801  22.491  0.00  0.00    +0.000 C 
ENDBRANCH   9  16
ENDBRANCH   8  12
ENDBRANCH   1   8
BRANCH   5  17
ATOM     17  C   UNL     1       4.308   3.929  16.545  0.00  0.00    +0.000 C 
BRANCH  17  18
ATOM     18  C   UNL     1       5.795   3.583  16.417  0.00  0.00    +0.000 C 
BRANCH  18  19
ATOM     19  C   UNL     1       6.619   4.769  15.925  0.00  0.00    +0.000 C 
BRANCH  19  20
ATOM     20  N   UNL     1       6.857   4.695  14.500  0.00  0.00    +0.000 N 
ATOM     21  C   UNL     1       6.270   3.859  13.602  0.00  0.00    +0.000 A 
ATOM     22  N   UNL     1       6.771   4.079  12.408  0.00  0.00    +0.000 NA
ATOM     23  C   UNL     1       7.675   5.078  12.636  0.00  0.00    +0.000 A 
ATOM     24  N   UNL     1       7.767   5.486  13.905  0.00  0.00    +0.000 NA
ENDBRANCH  19  20
ENDBRANCH  18  19
ENDBRANCH  17  18
ENDBRANCH   5  17
TORSDOF 7
ENDMDL
MODEL 8
REMARK VINA RESULT:      -6.7      1.966      5.777
REMARK  Name = 
REMARK  7 active torsions:
REMARK  status: ('A' for Active; 'I' for Inactive)
REMARK    1  A    between atoms: C_2  and  C_3
REMARK    2  A    between atoms: C_6  and  C_7
REMARK    3  A    between atoms: C_7  and  N_8
REMARK    4  A    between atoms: N_12  and  C_13
REMARK    5  A    between atoms: C_13  and  C_14
REMARK    6  A    between atoms: C_14  and  C_15
REMARK    7  A    between atoms: C_15  and  N_16
REMARK                            x       y       z     vdW  Elec       q    Type
REMARK                         _______ _______ _______ _____ _____    ______ ____
ROOT
ATOM      1  N   UNL     1       1.717   5.676  19.713  0.00  0.00    +0.000 NA
ATOM      2  C   UNL     1       1.993   4.625  20.705  0.00  0.00    +0.000 C 
ATOM      3  C   UNL     1       1.245   3.288  20.620  0.00  0.00    +0.000 C 
ATOM      4  C   UNL     1       1.148   2.514  19.309  0.00  0.00    +0.000 C 
ATOM      5  N   UNL     1       2.100   2.792  18.244  0.00  0.00    +0.000 NA
ATOM      6  C   UNL     1       1.783   4.086  17.626  0.00  0.00    +0.000 C 
ATOM      7  C   UNL     1       2.219   5.377  18.348  0.00  0.00    +0.000 C 
ENDROOT
BRANCH   1   8
ATOM      8  C   UNL     1       2.393   6.941  20.138  0.00  0.00    +0.000 C 
BRANCH   8  12
ATOM      9  C   UNL     1       0.265  10.569  19.062  0.00  0.00    +0.000 A 
ATOM     10  C   UNL     1       1.130   9.960  18.148  0.00  0.00    +0.000 A 
ATOM     11  C   UNL     1       1.826   8.800  18.505  0.00  0.00    +0.000 A 
ATOM     12  C   UNL     1       1.676   8.231  19.781  0.00  0.00    +0.000 A 
ATOM     13  C   UNL     1       0.808   8.847  20.690  0.00  0.00    +0.000 A 
ATOM     14  C   UNL     1       0.105  10.004  20.331  0.00  0.00    +0.000 A 
BRANCH   9  16
ATOM     15  N   UNL     1      -1.042  12.717  18.411  0.00  0.00    +0.000 NA
ATOM     16  C   UNL     1      -0.458  11.760  18.702  0.00  0.00    +0.000 C 
ENDBRANCH   9  16
ENDBRANCH   8  12
ENDBRANCH   1   8
BRANCH   5  17
ATOM     17  C   UNL     1       3.513   2.602  18.574  0.00  0.00    +0.000 C 
BRANCH  17  18
ATOM     18  C   UNL     1       4.465   3.471  17.745  0.00  0.00    +0.000 C 
BRANCH  18  19
ATOM     19  C   UNL     1       5.503   4.173  18.615  0.00  0.00    +0.000 C 
BRANCH  19  20
ATOM     20  N   UNL     1       6.056   5.332  17.948  0.00  0.00    +0.000 N 
ATOM     21  C   UNL     1       5.600   5.937  16.819  0.00  0.00    +0.000 A 
ATOM     22  N   UNL     1       6.389   6.942  16.514  0.00  0.00    +0.000 NA
ATOM     23  C   UNL     1       7.326   6.907  17.508  0.00  0.00    +0.000 A 
ATOM     24  N   UNL     1       7.168   5.934  18.408  0.00  0.00    +0.000 NA
ENDBRANCH  19  20
ENDBRANCH  18  19
ENDBRANCH  17  18
ENDBRANCH   5  17
TORSDOF 7
ENDMDL
MODEL 9
REMARK VINA RESULT:      -6.7      1.989      6.305
REMARK  Name = 
REMARK  7 active torsions:
REMARK  status: ('A' for Active; 'I' for Inactive)
REMARK    1  A    between atoms: C_2  and  C_3
REMARK    2  A    between atoms: C_6  and  C_7
REMARK    3  A    between atoms: C_7  and  N_8
REMARK    4  A    between atoms: N_12  and  C_13
REMARK    5  A    between atoms: C_13  and  C_14
REMARK    6  A    between atoms: C_14  and  C_15
REMARK    7  A    between atoms: C_15  and  N_16
REMARK                            x       y       z     vdW  Elec       q    Type
REMARK                         _______ _______ _______ _____ _____    ______ ____
ROOT
ATOM      1  N   UNL     1       4.617   4.287  17.642  0.00  0.00    +0.000 NA
ATOM      2  C   UNL     1       5.168   4.916  18.852  0.00  0.00    +0.000 C 
ATOM      3  C   UNL     1       6.651   4.728  19.197  0.00  0.00    +0.000 C 
ATOM      4  C   UNL     1       7.744   4.956  18.156  0.00  0.00    +0.000 C 
ATOM      5  N   UNL     1       7.449   5.757  16.977  0.00  0.00    +0.000 NA
ATOM      6  C   UNL     1       6.592   4.989  16.063  0.00  0.00    +0.000 C 
ATOM      7  C   UNL     1       5.084   4.893  16.369  0.00  0.00    +0.000 C 
ENDROOT
BRANCH   1   8
ATOM      8  C   UNL     1       3.128   4.429  17.649  0.00  0.00    +0.000 C 
BRANCH   8  12
ATOM      9  C   UNL     1       1.604   7.366  20.459  0.00  0.00    +0.000 A 
ATOM     10  C   UNL     1       1.478   6.001  20.728  0.00  0.00    +0.000 A 
ATOM     11  C   UNL     1       1.956   5.057  19.812  0.00  0.00    +0.000 A 
ATOM     12  C   UNL     1       2.563   5.460  18.610  0.00  0.00    +0.000 A 
ATOM     13  C   UNL     1       2.686   6.830  18.349  0.00  0.00    +0.000 A 
ATOM     14  C   UNL     1       2.214   7.775  19.269  0.00  0.00    +0.000 A 
BRANCH   9  16
ATOM     15  N   UNL     1       0.730   9.133  22.150  0.00  0.00    +0.000 NA
ATOM     16  C   UNL     1       1.119   8.344  21.398  0.00  0.00    +0.000 C 
ENDBRANCH   9  16
ENDBRANCH   8  12
ENDBRANCH   1   8
BRANCH   5  17
ATOM     17  C   UNL     1       7.007   7.130  17.221  0.00  0.00    +0.000 C 
BRANCH  17  18
ATOM     18  C   UNL     1       8.052   8.000  17.927  0.00  0.00    +0.000 C 
BRANCH  18  19
ATOM     19  C   UNL     1       7.881   9.480  17.600  0.00  0.00    +0.000 C 
BRANCH  19  20
ATOM     20  N   UNL     1       8.825  10.297  18.330  0.00  0.00    +0.000 N 
ATOM     21  C   UNL     1       9.384  11.473  17.937  0.00  0.00    +0.000 A 
ATOM     22  N   UNL     1      10.213  11.894  18.865  0.00  0.00    +0.000 NA
ATOM     23  C   UNL     1      10.120  10.923  19.821  0.00  0.00    +0.000 A 
ATOM     24  N   UNL     1       9.285   9.920  19.537  0.00  0.00    +0.000 NA
ENDBRANCH  19  20
ENDBRANCH  18  19
ENDBRANCH  17  18
ENDBRANCH   5  17
TORSDOF 7
ENDMDL
