MODEL 1
REMARK VINA RESULT:      -8.7      0.000      0.000
REMARK  Name = 
REMARK  4 active torsions:
REMARK  status: ('A' for Active; 'I' for Inactive)
REMARK    1  A    between atoms: C_1  and  O_2
REMARK    2  A    between atoms: O_2  and  C_3
REMARK    3  A    between atoms: C_6  and  C_7
REMARK    4  A    between atoms: N_12  and  N_13
REMARK                            x       y       z     vdW  Elec       q    Type
REMARK                         _______ _______ _______ _____ _____    ______ ____
ROOT
ATOM      1  C   UNL     1       2.276   4.289  19.508  0.00  0.00    +0.000 C 
ATOM      2  S   UNL     1       1.452   3.624  20.982  0.00  0.00    +0.000 S 
ATOM      3  C   UNL     1       2.702   2.360  21.255  0.00  0.00    +0.000 C 
ATOM      4  C   UNL     1       3.843   2.633  20.300  0.00  0.00    +0.000 C 
ATOM      5  O   UNL     1       4.811   1.884  20.198  0.00  0.00    +0.000 OA
ATOM      6  N   UNL     1       3.646   3.792  19.537  0.00  0.00    +0.000 N 
ENDROOT
BRANCH   6   7
ATOM      7  N   UNL     1       4.377   3.799  18.325  0.00  0.00    +0.000 N 
ATOM      8  C   UNL     1       5.529   4.514  18.185  0.00  0.00    +0.000 C 
ATOM      9  N   UNL     1       5.870   4.945  17.014  0.00  0.00    +0.000 NA
ATOM     10  C   UNL     1       7.063   5.604  16.854  0.00  0.00    +0.000 C 
ATOM     11  O   UNL     1       7.582   5.733  15.749  0.00  0.00    +0.000 OA
ATOM     12  C   UNL     1       7.663   6.276  18.048  0.00  0.00    +0.000 C 
ATOM     13  C   UNL     1       7.404   5.527  19.306  0.00  0.00    +0.000 C 
ATOM     14  O   UNL     1       8.079   5.666  20.324  0.00  0.00    +0.000 OA
ATOM     15  N   UNL     1       6.308   4.718  19.285  0.00  0.00    +0.000 N 
ATOM     16  H   UNL     1       3.857   3.606  17.470  0.00  0.00    +0.000 HD
ATOM     17  H   UNL     1       6.051   4.264  20.149  0.00  0.00    +0.000 HD
ENDBRANCH   6   7
BRANCH   1  21
ATOM     18  C   UNL     1       1.747   8.587  19.255  0.00  0.00    +0.000 A 
ATOM     19  C   UNL     1       1.546   7.925  20.466  0.00  0.00    +0.000 A 
ATOM     20  C   UNL     1       1.743   6.547  20.567  0.00  0.00    +0.000 A 
ATOM     21  C   UNL     1       2.148   5.797  19.451  0.00  0.00    +0.000 A 
ATOM     22  C   UNL     1       2.366   6.477  18.240  0.00  0.00    +0.000 A 
ATOM     23  C   UNL     1       2.162   7.860  18.142  0.00  0.00    +0.000 A 
BRANCH  18  25
ATOM     24  C   UNL     1       0.398  10.338  20.123  0.00  0.00    +0.000 C 
ATOM     25  O   UNL     1       1.470   9.924  19.287  0.00  0.00    +0.000 OA
ENDBRANCH  18  25
ENDBRANCH   1  21
TORSDOF 3
ENDMDL
MODEL 2
REMARK VINA RESULT:      -8.6      0.230      1.030
REMARK  Name = 
REMARK  4 active torsions:
REMARK  status: ('A' for Active; 'I' for Inactive)
REMARK    1  A    between atoms: C_1  and  O_2
REMARK    2  A    between atoms: O_2  and  C_3
REMARK    3  A    between atoms: C_6  and  C_7
REMARK    4  A    between atoms: N_12  and  N_13
REMARK                            x       y       z     vdW  Elec       q    Type
REMARK                         _______ _______ _______ _____ _____    ______ ____
ROOT
ATOM      1  C   UNL     1       2.283   4.093  19.520  0.00  0.00    +0.000 C 
ATOM      2  S   UNL     1       1.495   3.456  21.026  0.00  0.00    +0.000 S 
ATOM      3  C   UNL     1       2.811   2.275  21.355  0.00  0.00    +0.000 C 
ATOM      4  C   UNL     1       3.935   2.562  20.386  0.00  0.00    +0.000 C 
ATOM      5  O   UNL     1       4.942   1.861  20.317  0.00  0.00    +0.000 OA
ATOM      6  N   UNL     1       3.677   3.671  19.569  0.00  0.00    +0.000 N 
ENDROOT
BRANCH   6   7
ATOM      7  N   UNL     1       4.406   3.659  18.355  0.00  0.00    +0.000 N 
ATOM      8  C   UNL     1       5.538   4.402  18.190  0.00  0.00    +0.000 C 
ATOM      9  N   UNL     1       5.865   4.803  17.005  0.00  0.00    +0.000 NA
ATOM     10  C   UNL     1       7.038   5.490  16.821  0.00  0.00    +0.000 C 
ATOM     11  O   UNL     1       7.553   5.597  15.711  0.00  0.00    +0.000 OA
ATOM     12  C   UNL     1       7.620   6.218  17.991  0.00  0.00    +0.000 C 
ATOM     13  C   UNL     1       7.383   5.504  19.274  0.00  0.00    +0.000 C 
ATOM     14  O   UNL     1       8.055   5.697  20.285  0.00  0.00    +0.000 OA
ATOM     15  N   UNL     1       6.311   4.664  19.281  0.00  0.00    +0.000 N 
ATOM     16  H   UNL     1       3.892   3.422  17.508  0.00  0.00    +0.000 HD
ATOM     17  H   UNL     1       6.068   4.232  20.161  0.00  0.00    +0.000 HD
ENDBRANCH   6   7
BRANCH   1  21
ATOM     18  C   UNL     1       1.850   8.399  19.234  0.00  0.00    +0.000 A 
ATOM     19  C   UNL     1       2.189   7.651  18.107  0.00  0.00    +0.000 A 
ATOM     20  C   UNL     1       2.301   6.262  18.180  0.00  0.00    +0.000 A 
ATOM     21  C   UNL     1       2.075   5.587  19.390  0.00  0.00    +0.000 A 
ATOM     22  C   UNL     1       1.716   6.348  20.516  0.00  0.00    +0.000 A 
ATOM     23  C   UNL     1       1.610   7.744  20.439  0.00  0.00    +0.000 A 
BRANCH  18  25
ATOM     24  C   UNL     1       0.701  10.454  19.543  0.00  0.00    +0.000 C 
ATOM     25  O   UNL     1       1.826   9.750  19.032  0.00  0.00    +0.000 OA
ENDBRANCH  18  25
ENDBRANCH   1  21
TORSDOF 3
ENDMDL
MODEL 3
REMARK VINA RESULT:      -7.4      3.048      6.659
REMARK  Name = 
REMARK  4 active torsions:
REMARK  status: ('A' for Active; 'I' for Inactive)
REMARK    1  A    between atoms: C_1  and  O_2
REMARK    2  A    between atoms: O_2  and  C_3
REMARK    3  A    between atoms: C_6  and  C_7
REMARK    4  A    between atoms: N_12  and  N_13
REMARK                            x       y       z     vdW  Elec       q    Type
REMARK                         _______ _______ _______ _____ _____    ______ ____
ROOT
ATOM      1  C   UNL     1       6.345   5.863  17.046  0.00  0.00    +0.000 C 
ATOM      2  S   UNL     1       7.348   7.375  17.086  0.00  0.00    +0.000 S 
ATOM      3  C   UNL     1       7.989   7.046  18.734  0.00  0.00    +0.000 C 
ATOM      4  C   UNL     1       7.559   5.649  19.121  0.00  0.00    +0.000 C 
ATOM      5  O   UNL     1       7.781   5.173  20.232  0.00  0.00    +0.000 OA
ATOM      6  N   UNL     1       6.857   4.995  18.099  0.00  0.00    +0.000 N 
ENDROOT
BRANCH   6   7
ATOM      7  N   UNL     1       6.016   3.958  18.568  0.00  0.00    +0.000 N 
ATOM      8  C   UNL     1       4.779   4.212  19.081  0.00  0.00    +0.000 C 
ATOM      9  N   UNL     1       4.277   3.403  19.956  0.00  0.00    +0.000 NA
ATOM     10  C   UNL     1       3.004   3.614  20.424  0.00  0.00    +0.000 C 
ATOM     11  O   UNL     1       2.368   2.723  20.979  0.00  0.00    +0.000 OA
ATOM     12  C   UNL     1       2.448   5.001  20.355  0.00  0.00    +0.000 C 
ATOM     13  C   UNL     1       2.916   5.736  19.150  0.00  0.00    +0.000 C 
ATOM     14  O   UNL     1       2.332   6.715  18.689  0.00  0.00    +0.000 OA
ATOM     15  N   UNL     1       4.093   5.297  18.622  0.00  0.00    +0.000 N 
ATOM     16  H   UNL     1       6.469   3.100  18.881  0.00  0.00    +0.000 HD
ATOM     17  H   UNL     1       4.485   5.829  17.859  0.00  0.00    +0.000 HD
ENDBRANCH   6   7
BRANCH   1  21
ATOM     18  C   UNL     1       6.457   3.976  13.142  0.00  0.00    +0.000 A 
ATOM     19  C   UNL     1       5.330   3.844  13.954  0.00  0.00    +0.000 A 
ATOM     20  C   UNL     1       5.271   4.472  15.199  0.00  0.00    +0.000 A 
ATOM     21  C   UNL     1       6.344   5.251  15.662  0.00  0.00    +0.000 A 
ATOM     22  C   UNL     1       7.466   5.393  14.828  0.00  0.00    +0.000 A 
ATOM     23  C   UNL     1       7.524   4.756  13.580  0.00  0.00    +0.000 A 
BRANCH  18  25
ATOM     24  C   UNL     1       5.151   2.679  11.642  0.00  0.00    +0.000 C 
ATOM     25  O   UNL     1       6.401   3.269  11.975  0.00  0.00    +0.000 OA
ENDBRANCH  18  25
ENDBRANCH   1  21
TORSDOF 3
ENDMDL
MODEL 4
REMARK VINA RESULT:      -7.4      3.080      6.719
REMARK  Name = 
REMARK  4 active torsions:
REMARK  status: ('A' for Active; 'I' for Inactive)
REMARK    1  A    between atoms: C_1  and  O_2
REMARK    2  A    between atoms: O_2  and  C_3
REMARK    3  A    between atoms: C_6  and  C_7
REMARK    4  A    between atoms: N_12  and  N_13
REMARK                            x       y       z     vdW  Elec       q    Type
REMARK                         _______ _______ _______ _____ _____    ______ ____
ROOT
ATOM      1  C   UNL     1       6.330   5.739  17.065  0.00  0.00    +0.000 C 
ATOM      2  S   UNL     1       7.366   7.229  17.046  0.00  0.00    +0.000 S 
ATOM      3  C   UNL     1       7.972   6.972  18.719  0.00  0.00    +0.000 C 
ATOM      4  C   UNL     1       7.504   5.606  19.169  0.00  0.00    +0.000 C 
ATOM      5  O   UNL     1       7.698   5.183  20.306  0.00  0.00    +0.000 OA
ATOM      6  N   UNL     1       6.805   4.915  18.170  0.00  0.00    +0.000 N 
ENDROOT
BRANCH   6   7
ATOM      7  N   UNL     1       5.934   3.921  18.675  0.00  0.00    +0.000 N 
ATOM      8  C   UNL     1       4.693   4.228  19.151  0.00  0.00    +0.000 C 
ATOM      9  N   UNL     1       4.158   3.476  20.057  0.00  0.00    +0.000 NA
ATOM     10  C   UNL     1       2.881   3.738  20.488  0.00  0.00    +0.000 C 
ATOM     11  O   UNL     1       2.216   2.890  21.077  0.00  0.00    +0.000 OA
ATOM     12  C   UNL     1       2.356   5.130  20.335  0.00  0.00    +0.000 C 
ATOM     13  C   UNL     1       2.863   5.791  19.102  0.00  0.00    +0.000 C 
ATOM     14  O   UNL     1       2.308   6.755  18.580  0.00  0.00    +0.000 OA
ATOM     15  N   UNL     1       4.039   5.300  18.622  0.00  0.00    +0.000 N 
ATOM     16  H   UNL     1       6.363   3.073  19.042  0.00  0.00    +0.000 HD
ATOM     17  H   UNL     1       4.456   5.783  17.840  0.00  0.00    +0.000 HD
ENDBRANCH   6   7
BRANCH   1  21
ATOM     18  C   UNL     1       6.246   3.921  13.128  0.00  0.00    +0.000 A 
ATOM     19  C   UNL     1       7.389   4.587  13.569  0.00  0.00    +0.000 A 
ATOM     20  C   UNL     1       7.438   5.149  14.846  0.00  0.00    +0.000 A 
ATOM     21  C   UNL     1       6.338   5.056  15.714  0.00  0.00    +0.000 A 
ATOM     22  C   UNL     1       5.198   4.367  15.265  0.00  0.00    +0.000 A 
ATOM     23  C   UNL     1       5.151   3.808  13.981  0.00  0.00    +0.000 A 
BRANCH  18  25
ATOM     24  C   UNL     1       5.620   2.260  11.550  0.00  0.00    +0.000 C 
ATOM     25  O   UNL     1       6.316   3.464  11.842  0.00  0.00    +0.000 OA
ENDBRANCH  18  25
ENDBRANCH   1  21
TORSDOF 3
ENDMDL
MODEL 5
REMARK VINA RESULT:      -7.2      2.599      4.885
REMARK  Name = 
REMARK  4 active torsions:
REMARK  status: ('A' for Active; 'I' for Inactive)
REMARK    1  A    between atoms: C_1  and  O_2
REMARK    2  A    between atoms: O_2  and  C_3
REMARK    3  A    between atoms: C_6  and  C_7
REMARK    4  A    between atoms: N_12  and  N_13
REMARK                            x       y       z     vdW  Elec       q    Type
REMARK                         _______ _______ _______ _____ _____    ______ ____
ROOT
ATOM      1  C   UNL     1       4.696   6.184  17.532  0.00  0.00    +0.000 C 
ATOM      2  S   UNL     1       5.093   6.725  15.846  0.00  0.00    +0.000 S 
ATOM      3  C   UNL     1       5.464   5.061  15.274  0.00  0.00    +0.000 C 
ATOM      4  C   UNL     1       5.061   4.101  16.370  0.00  0.00    +0.000 C 
ATOM      5  O   UNL     1       5.270   2.892  16.299  0.00  0.00    +0.000 OA
ATOM      6  N   UNL     1       4.471   4.745  17.466  0.00  0.00    +0.000 N 
ENDROOT
BRANCH   6   7
ATOM      7  N   UNL     1       4.562   4.007  18.670  0.00  0.00    +0.000 N 
ATOM      8  C   UNL     1       3.456   3.511  19.294  0.00  0.00    +0.000 C 
ATOM      9  N   UNL     1       3.474   3.340  20.576  0.00  0.00    +0.000 NA
ATOM     10  C   UNL     1       2.391   2.775  21.201  0.00  0.00    +0.000 C 
ATOM     11  O   UNL     1       2.478   2.291  22.326  0.00  0.00    +0.000 OA
ATOM     12  C   UNL     1       1.058   2.873  20.527  0.00  0.00    +0.000 C 
ATOM     13  C   UNL     1       1.169   2.801  19.046  0.00  0.00    +0.000 C 
ATOM     14  O   UNL     1       0.229   2.495  18.316  0.00  0.00    +0.000 OA
ATOM     15  N   UNL     1       2.375   3.174  18.535  0.00  0.00    +0.000 N 
ATOM     16  H   UNL     1       5.375   4.181  19.259  0.00  0.00    +0.000 HD
ATOM     17  H   UNL     1       2.457   3.223  17.530  0.00  0.00    +0.000 HD
ENDBRANCH   6   7
BRANCH   1  21
ATOM     18  C   UNL     1       1.508   8.560  19.265  0.00  0.00    +0.000 A 
ATOM     19  C   UNL     1       1.973   8.840  17.980  0.00  0.00    +0.000 A 
ATOM     20  C   UNL     1       2.977   8.062  17.401  0.00  0.00    +0.000 A 
ATOM     21  C   UNL     1       3.541   6.982  18.099  0.00  0.00    +0.000 A 
ATOM     22  C   UNL     1       3.052   6.698  19.385  0.00  0.00    +0.000 A 
ATOM     23  C   UNL     1       2.047   7.485  19.966  0.00  0.00    +0.000 A 
BRANCH  18  25
ATOM     24  C   UNL     1       0.316   9.427  21.127  0.00  0.00    +0.000 C 
ATOM     25  O   UNL     1       0.561   9.430  19.727  0.00  0.00    +0.000 OA
ENDBRANCH  18  25
ENDBRANCH   1  21
TORSDOF 3
ENDMDL
MODEL 6
REMARK VINA RESULT:      -7.0      1.716      1.873
REMARK  Name = 
REMARK  4 active torsions:
REMARK  status: ('A' for Active; 'I' for Inactive)
REMARK    1  A    between atoms: C_1  and  O_2
REMARK    2  A    between atoms: O_2  and  C_3
REMARK    3  A    between atoms: C_6  and  C_7
REMARK    4  A    between atoms: N_12  and  N_13
REMARK                            x       y       z     vdW  Elec       q    Type
REMARK                         _______ _______ _______ _____ _____    ______ ____
ROOT
ATOM      1  C   UNL     1       2.339   5.086  17.829  0.00  0.00    +0.000 C 
ATOM      2  S   UNL     1       1.328   3.691  18.401  0.00  0.00    +0.000 S 
ATOM      3  C   UNL     1       2.593   2.469  18.028  0.00  0.00    +0.000 C 
ATOM      4  C   UNL     1       3.856   3.216  17.660  0.00  0.00    +0.000 C 
ATOM      5  O   UNL     1       4.872   2.645  17.275  0.00  0.00    +0.000 OA
ATOM      6  N   UNL     1       3.714   4.606  17.769  0.00  0.00    +0.000 N 
ENDROOT
BRANCH   6   7
ATOM      7  N   UNL     1       4.632   5.330  16.970  0.00  0.00    +0.000 N 
ATOM      8  C   UNL     1       5.772   5.865  17.492  0.00  0.00    +0.000 C 
ATOM      9  N   UNL     1       6.287   6.917  16.944  0.00  0.00    +0.000 NA
ATOM     10  C   UNL     1       7.473   7.419  17.419  0.00  0.00    +0.000 C 
ATOM     11  O   UNL     1       8.161   8.184  16.750  0.00  0.00    +0.000 OA
ATOM     12  C   UNL     1       7.854   7.108  18.832  0.00  0.00    +0.000 C 
ATOM     13  C   UNL     1       7.413   5.750  19.250  0.00  0.00    +0.000 C 
ATOM     14  O   UNL     1       7.910   5.143  20.195  0.00  0.00    +0.000 OA
ATOM     15  N   UNL     1       6.356   5.244  18.555  0.00  0.00    +0.000 N 
ATOM     16  H   UNL     1       4.262   5.779  16.133  0.00  0.00    +0.000 HD
ATOM     17  H   UNL     1       5.974   4.364  18.870  0.00  0.00    +0.000 HD
ENDBRANCH   6   7
BRANCH   1  21
ATOM     18  C   UNL     1       1.560   8.582  20.276  0.00  0.00    +0.000 A 
ATOM     19  C   UNL     1       1.613   7.316  20.857  0.00  0.00    +0.000 A 
ATOM     20  C   UNL     1       1.894   6.187  20.085  0.00  0.00    +0.000 A 
ATOM     21  C   UNL     1       2.128   6.302  18.706  0.00  0.00    +0.000 A 
ATOM     22  C   UNL     1       2.090   7.585  18.133  0.00  0.00    +0.000 A 
ATOM     23  C   UNL     1       1.803   8.715  18.911  0.00  0.00    +0.000 A 
BRANCH  18  25
ATOM     24  C   UNL     1       0.635   9.207  22.371  0.00  0.00    +0.000 C 
ATOM     25  O   UNL     1       1.227   9.589  21.137  0.00  0.00    +0.000 OA
ENDBRANCH  18  25
ENDBRANCH   1  21
TORSDOF 3
ENDMDL
MODEL 7
REMARK VINA RESULT:      -6.8      2.618      4.815
REMARK  Name = 
REMARK  4 active torsions:
REMARK  status: ('A' for Active; 'I' for Inactive)
REMARK    1  A    between atoms: C_1  and  O_2
REMARK    2  A    between atoms: O_2  and  C_3
REMARK    3  A    between atoms: C_6  and  C_7
REMARK    4  A    between atoms: N_12  and  N_13
REMARK                            x       y       z     vdW  Elec       q    Type
REMARK                         _______ _______ _______ _____ _____    ______ ____
ROOT
ATOM      1  C   UNL     1       4.792   6.136  17.525  0.00  0.00    +0.000 C 
ATOM      2  S   UNL     1       5.167   6.639  15.822  0.00  0.00    +0.000 S 
ATOM      3  C   UNL     1       5.407   4.950  15.252  0.00  0.00    +0.000 C 
ATOM      4  C   UNL     1       4.979   4.026  16.370  0.00  0.00    +0.000 C 
ATOM      5  O   UNL     1       5.105   2.806  16.303  0.00  0.00    +0.000 OA
ATOM      6  N   UNL     1       4.471   4.715  17.479  0.00  0.00    +0.000 N 
ENDROOT
BRANCH   6   7
ATOM      7  N   UNL     1       4.553   3.980  18.686  0.00  0.00    +0.000 N 
ATOM      8  C   UNL     1       3.442   3.487  19.304  0.00  0.00    +0.000 C 
ATOM      9  N   UNL     1       3.453   3.319  20.587  0.00  0.00    +0.000 NA
ATOM     10  C   UNL     1       2.365   2.757  21.206  0.00  0.00    +0.000 C 
ATOM     11  O   UNL     1       2.444   2.276  22.333  0.00  0.00    +0.000 OA
ATOM     12  C   UNL     1       1.037   2.854  20.524  0.00  0.00    +0.000 C 
ATOM     13  C   UNL     1       1.156   2.779  19.044  0.00  0.00    +0.000 C 
ATOM     14  O   UNL     1       0.221   2.471  18.308  0.00  0.00    +0.000 OA
ATOM     15  N   UNL     1       2.367   3.149  18.540  0.00  0.00    +0.000 N 
ATOM     16  H   UNL     1       5.362   4.155  19.280  0.00  0.00    +0.000 HD
ATOM     17  H   UNL     1       2.454   3.195  17.535  0.00  0.00    +0.000 HD
ENDBRANCH   6   7
BRANCH   1  21
ATOM     18  C   UNL     1       1.576   8.570  19.121  0.00  0.00    +0.000 A 
ATOM     19  C   UNL     1       2.066   7.488  19.851  0.00  0.00    +0.000 A 
ATOM     20  C   UNL     1       3.121   6.717  19.362  0.00  0.00    +0.000 A 
ATOM     21  C   UNL     1       3.712   7.013  18.123  0.00  0.00    +0.000 A 
ATOM     22  C   UNL     1       3.223   8.117  17.404  0.00  0.00    +0.000 A 
ATOM     23  C   UNL     1       2.159   8.886  17.897  0.00  0.00    +0.000 A 
BRANCH  18  25
ATOM     24  C   UNL     1       0.792  10.077  20.781  0.00  0.00    +0.000 C 
ATOM     25  O   UNL     1       0.510   9.205  19.694  0.00  0.00    +0.000 OA
ENDBRANCH  18  25
ENDBRANCH   1  21
TORSDOF 3
ENDMDL
MODEL 8
REMARK VINA RESULT:      -6.7      1.910      2.336
REMARK  Name = 
REMARK  4 active torsions:
REMARK  status: ('A' for Active; 'I' for Inactive)
REMARK    1  A    between atoms: C_1  and  O_2
REMARK    2  A    between atoms: O_2  and  C_3
REMARK    3  A    between atoms: C_6  and  C_7
REMARK    4  A    between atoms: N_12  and  N_13
REMARK                            x       y       z     vdW  Elec       q    Type
REMARK                         _______ _______ _______ _____ _____    ______ ____
ROOT
ATOM      1  C   UNL     1       2.522   5.229  17.624  0.00  0.00    +0.000 C 
ATOM      2  S   UNL     1       1.672   3.682  18.050  0.00  0.00    +0.000 S 
ATOM      3  C   UNL     1       3.095   2.655  17.656  0.00  0.00    +0.000 C 
ATOM      4  C   UNL     1       4.267   3.576  17.401  0.00  0.00    +0.000 C 
ATOM      5  O   UNL     1       5.362   3.164  17.029  0.00  0.00    +0.000 OA
ATOM      6  N   UNL     1       3.948   4.927  17.598  0.00  0.00    +0.000 N 
ENDROOT
BRANCH   6   7
ATOM      7  N   UNL     1       4.798   5.815  16.897  0.00  0.00    +0.000 N 
ATOM      8  C   UNL     1       5.971   6.259  17.431  0.00  0.00    +0.000 C 
ATOM      9  N   UNL     1       6.437   7.410  17.069  0.00  0.00    +0.000 NA
ATOM     10  C   UNL     1       7.652   7.831  17.549  0.00  0.00    +0.000 C 
ATOM     11  O   UNL     1       8.283   8.729  16.998  0.00  0.00    +0.000 OA
ATOM     12  C   UNL     1       8.140   7.253  18.839  0.00  0.00    +0.000 C 
ATOM     13  C   UNL     1       7.740   5.830  19.007  0.00  0.00    +0.000 C 
ATOM     14  O   UNL     1       8.311   5.057  19.773  0.00  0.00    +0.000 OA
ATOM     15  N   UNL     1       6.637   5.451  18.303  0.00  0.00    +0.000 N 
ATOM     16  H   UNL     1       4.364   6.414  16.195  0.00  0.00    +0.000 HD
ATOM     17  H   UNL     1       6.286   4.518  18.462  0.00  0.00    +0.000 HD
ENDBRANCH   6   7
BRANCH   1  21
ATOM     18  C   UNL     1       1.558   8.415  20.405  0.00  0.00    +0.000 A 
ATOM     19  C   UNL     1       1.754   8.698  19.054  0.00  0.00    +0.000 A 
ATOM     20  C   UNL     1       2.035   7.677  18.145  0.00  0.00    +0.000 A 
ATOM     21  C   UNL     1       2.125   6.342  18.571  0.00  0.00    +0.000 A 
ATOM     22  C   UNL     1       1.906   6.066  19.932  0.00  0.00    +0.000 A 
ATOM     23  C   UNL     1       1.630   7.095  20.842  0.00  0.00    +0.000 A 
BRANCH  18  25
ATOM     24  C   UNL     1       0.977   9.273  22.542  0.00  0.00    +0.000 C 
ATOM     25  O   UNL     1       1.341   9.513  21.189  0.00  0.00    +0.000 OA
ENDBRANCH  18  25
ENDBRANCH   1  21
TORSDOF 3
ENDMDL
MODEL 9
REMARK VINA RESULT:      -6.6      3.404      7.012
REMARK  Name = 
REMARK  4 active torsions:
REMARK  status: ('A' for Active; 'I' for Inactive)
REMARK    1  A    between atoms: C_1  and  O_2
REMARK    2  A    between atoms: O_2  and  C_3
REMARK    3  A    between atoms: C_6  and  C_7
REMARK    4  A    between atoms: N_12  and  N_13
REMARK                            x       y       z     vdW  Elec       q    Type
REMARK                         _______ _______ _______ _____ _____    ______ ____
ROOT
ATOM      1  C   UNL     1       5.690   5.275  16.379  0.00  0.00    +0.000 C 
ATOM      2  S   UNL     1       6.989   6.289  17.137  0.00  0.00    +0.000 S 
ATOM      3  C   UNL     1       6.768   5.562  18.768  0.00  0.00    +0.000 C 
ATOM      4  C   UNL     1       5.822   4.392  18.621  0.00  0.00    +0.000 C 
ATOM      5  O   UNL     1       5.417   3.746  19.584  0.00  0.00    +0.000 OA
ATOM      6  N   UNL     1       5.441   4.166  17.292  0.00  0.00    +0.000 N 
ENDROOT
BRANCH   6   7
ATOM      7  N   UNL     1       4.214   3.470  17.167  0.00  0.00    +0.000 N 
ATOM      8  C   UNL     1       3.160   3.718  17.995  0.00  0.00    +0.000 C 
ATOM      9  N   UNL     1       2.307   2.777  18.235  0.00  0.00    +0.000 NA
ATOM     10  C   UNL     1       1.206   3.040  19.010  0.00  0.00    +0.000 C 
ATOM     11  O   UNL     1       0.219   2.309  18.995  0.00  0.00    +0.000 OA
ATOM     12  C   UNL     1       1.280   4.179  19.977  0.00  0.00    +0.000 C 
ATOM     13  C   UNL     1       2.096   5.308  19.457  0.00  0.00    +0.000 C 
ATOM     14  O   UNL     1       2.004   6.457  19.883  0.00  0.00    +0.000 OA
ATOM     15  N   UNL     1       3.020   4.971  18.514  0.00  0.00    +0.000 N 
ATOM     16  H   UNL     1       4.248   2.545  16.741  0.00  0.00    +0.000 HD
ATOM     17  H   UNL     1       3.650   5.696  18.205  0.00  0.00    +0.000 HD
ENDBRANCH   6   7
BRANCH   1  21
ATOM     18  C   UNL     1       6.913   3.986  12.422  0.00  0.00    +0.000 A 
ATOM     19  C   UNL     1       5.698   3.559  12.954  0.00  0.00    +0.000 A 
ATOM     20  C   UNL     1       5.279   3.992  14.214  0.00  0.00    +0.000 A 
ATOM     21  C   UNL     1       6.074   4.867  14.972  0.00  0.00    +0.000 A 
ATOM     22  C   UNL     1       7.289   5.306  14.418  0.00  0.00    +0.000 A 
ATOM     23  C   UNL     1       7.707   4.865  13.155  0.00  0.00    +0.000 A 
BRANCH  18  25
ATOM     24  C   UNL     1       7.279   2.029  11.129  0.00  0.00    +0.000 C 
ATOM     25  O   UNL     1       7.221   3.447  11.205  0.00  0.00    +0.000 OA
ENDBRANCH  18  25
ENDBRANCH   1  21
TORSDOF 3
ENDMDL
