MODEL 1
REMARK VINA RESULT:      -8.4      0.000      0.000
REMARK  Name = 
REMARK  4 active torsions:
REMARK  status: ('A' for Active; 'I' for Inactive)
REMARK    1  A    between atoms: C_1  and  C_2
REMARK    2  A    between atoms: N_10  and  C_11
REMARK    3  A    between atoms: C_11  and  C_12
REMARK    4  A    between atoms: C_16  and  N_17
REMARK                            x       y       z     vdW  Elec       q    Type
REMARK                         _______ _______ _______ _____ _____    ______ ____
ROOT
ATOM      1  C   UNL     1       1.872   7.886  19.860  0.00  0.00    +0.000 C 
ATOM      2  C   UNL     1       2.577   6.546  20.035  0.00  0.00    +0.000 C 
ATOM      3  C   UNL     1       1.641   5.537  20.755  0.00  0.00    +0.000 C 
ATOM      4  C   UNL     1       1.605   4.393  19.799  0.00  0.00    +0.000 A 
ATOM      5  C   UNL     1       0.886   3.211  19.922  0.00  0.00    +0.000 A 
ATOM      6  C   UNL     1       1.022   2.248  18.927  0.00  0.00    +0.000 A 
ATOM      7  C   UNL     1       1.885   2.475  17.846  0.00  0.00    +0.000 A 
ATOM      8  C   UNL     1       2.575   3.688  17.729  0.00  0.00    +0.000 A 
ATOM      9  C   UNL     1       2.419   4.662  18.696  0.00  0.00    +0.000 A 
ATOM     10  N   UNL     1       2.955   5.934  18.748  0.00  0.00    +0.000 N 
ENDROOT
BRANCH  10  11
ATOM     11  C   UNL     1       3.685   6.608  17.693  0.00  0.00    +0.000 C 
BRANCH  11  12
ATOM     12  C   UNL     1       4.988   5.908  17.390  0.00  0.00    +0.000 A 
ATOM     13  C   UNL     1       5.879   5.579  18.427  0.00  0.00    +0.000 A 
ATOM     14  C   UNL     1       7.125   5.020  18.154  0.00  0.00    +0.000 A 
ATOM     15  C   UNL     1       7.503   4.770  16.835  0.00  0.00    +0.000 A 
ATOM     16  C   UNL     1       6.612   5.059  15.796  0.00  0.00    +0.000 A 
ATOM     17  C   UNL     1       5.355   5.616  16.065  0.00  0.00    +0.000 A 
BRANCH  16  18
ATOM     18  N   UNL     1       7.008   4.795  14.406  0.00  0.00    +0.000 N 
ATOM     19  O   UNL     1       7.929   5.475  13.930  0.00  0.00    +0.000 OA
ATOM     20  O   UNL     1       6.398   3.906  13.795  0.00  0.00    +0.000 OA
ENDBRANCH  16  18
ENDBRANCH  11  12
ENDBRANCH  10  11
TORSDOF 3
ENDMDL
MODEL 2
REMARK VINA RESULT:      -7.9      1.228      2.795
REMARK  Name = 
REMARK  4 active torsions:
REMARK  status: ('A' for Active; 'I' for Inactive)
REMARK    1  A    between atoms: C_1  and  C_2
REMARK    2  A    between atoms: N_10  and  C_11
REMARK    3  A    between atoms: C_11  and  C_12
REMARK    4  A    between atoms: C_16  and  N_17
REMARK                            x       y       z     vdW  Elec       q    Type
REMARK                         _______ _______ _______ _____ _____    ______ ____
ROOT
ATOM      1  C   UNL     1       3.304   2.455  20.564  0.00  0.00    +0.000 C 
ATOM      2  C   UNL     1       2.195   3.317  19.972  0.00  0.00    +0.000 C 
ATOM      3  C   UNL     1       1.777   4.422  20.981  0.00  0.00    +0.000 C 
ATOM      4  C   UNL     1       1.963   5.670  20.186  0.00  0.00    +0.000 A 
ATOM      5  C   UNL     1       1.763   6.978  20.608  0.00  0.00    +0.000 A 
ATOM      6  C   UNL     1       1.957   8.006  19.690  0.00  0.00    +0.000 A 
ATOM      7  C   UNL     1       2.324   7.706  18.371  0.00  0.00    +0.000 A 
ATOM      8  C   UNL     1       2.549   6.380  17.978  0.00  0.00    +0.000 A 
ATOM      9  C   UNL     1       2.390   5.357  18.894  0.00  0.00    +0.000 A 
ATOM     10  N   UNL     1       2.611   4.003  18.735  0.00  0.00    +0.000 N 
ENDROOT
BRANCH  10  11
ATOM     11  C   UNL     1       3.231   3.356  17.597  0.00  0.00    +0.000 C 
BRANCH  11  12
ATOM     12  C   UNL     1       4.640   3.853  17.380  0.00  0.00    +0.000 A 
ATOM     13  C   UNL     1       5.440   4.229  18.473  0.00  0.00    +0.000 A 
ATOM     14  C   UNL     1       6.705   4.778  18.282  0.00  0.00    +0.000 A 
ATOM     15  C   UNL     1       7.202   4.955  16.991  0.00  0.00    +0.000 A 
ATOM     16  C   UNL     1       6.431   4.552  15.896  0.00  0.00    +0.000 A 
ATOM     17  C   UNL     1       5.159   3.994  16.082  0.00  0.00    +0.000 A 
BRANCH  16  18
ATOM     18  N   UNL     1       6.952   4.735  14.534  0.00  0.00    +0.000 N 
ATOM     19  O   UNL     1       7.871   5.552  14.374  0.00  0.00    +0.000 OA
ATOM     20  O   UNL     1       6.443   4.060  13.629  0.00  0.00    +0.000 OA
ENDBRANCH  16  18
ENDBRANCH  11  12
ENDBRANCH  10  11
TORSDOF 3
ENDMDL
MODEL 3
REMARK VINA RESULT:      -7.9      1.896      2.228
REMARK  Name = 
REMARK  4 active torsions:
REMARK  status: ('A' for Active; 'I' for Inactive)
REMARK    1  A    between atoms: C_1  and  C_2
REMARK    2  A    between atoms: N_10  and  C_11
REMARK    3  A    between atoms: C_11  and  C_12
REMARK    4  A    between atoms: C_16  and  N_17
REMARK                            x       y       z     vdW  Elec       q    Type
REMARK                         _______ _______ _______ _____ _____    ______ ____
ROOT
ATOM      1  C   UNL     1       1.721   8.011  19.996  0.00  0.00    +0.000 C 
ATOM      2  C   UNL     1       2.537   6.724  20.029  0.00  0.00    +0.000 C 
ATOM      3  C   UNL     1       1.747   5.605  20.763  0.00  0.00    +0.000 C 
ATOM      4  C   UNL     1       1.712   4.516  19.746  0.00  0.00    +0.000 A 
ATOM      5  C   UNL     1       1.098   3.275  19.857  0.00  0.00    +0.000 A 
ATOM      6  C   UNL     1       1.217   2.381  18.797  0.00  0.00    +0.000 A 
ATOM      7  C   UNL     1       1.961   2.735  17.663  0.00  0.00    +0.000 A 
ATOM      8  C   UNL     1       2.544   4.004  17.562  0.00  0.00    +0.000 A 
ATOM      9  C   UNL     1       2.403   4.909  18.597  0.00  0.00    +0.000 A 
ATOM     10  N   UNL     1       2.844   6.215  18.679  0.00  0.00    +0.000 N 
ENDROOT
BRANCH  10  11
ATOM     11  C   UNL     1       3.424   7.001  17.610  0.00  0.00    +0.000 C 
BRANCH  11  12
ATOM     12  C   UNL     1       4.693   6.372  17.089  0.00  0.00    +0.000 A 
ATOM     13  C   UNL     1       4.859   6.130  15.714  0.00  0.00    +0.000 A 
ATOM     14  C   UNL     1       5.983   5.465  15.231  0.00  0.00    +0.000 A 
ATOM     15  C   UNL     1       6.972   5.034  16.115  0.00  0.00    +0.000 A 
ATOM     16  C   UNL     1       6.837   5.300  17.482  0.00  0.00    +0.000 A 
ATOM     17  C   UNL     1       5.711   5.973  17.973  0.00  0.00    +0.000 A 
BRANCH  16  18
ATOM     18  N   UNL     1       7.879   4.848  18.415  0.00  0.00    +0.000 N 
ATOM     19  O   UNL     1       7.876   5.330  19.558  0.00  0.00    +0.000 OA
ATOM     20  O   UNL     1       8.693   4.010  18.004  0.00  0.00    +0.000 OA
ENDBRANCH  16  18
ENDBRANCH  11  12
ENDBRANCH  10  11
TORSDOF 3
ENDMDL
MODEL 4
REMARK VINA RESULT:      -7.8      2.206      2.482
REMARK  Name = 
REMARK  4 active torsions:
REMARK  status: ('A' for Active; 'I' for Inactive)
REMARK    1  A    between atoms: C_1  and  C_2
REMARK    2  A    between atoms: N_10  and  C_11
REMARK    3  A    between atoms: C_11  and  C_12
REMARK    4  A    between atoms: C_16  and  N_17
REMARK                            x       y       z     vdW  Elec       q    Type
REMARK                         _______ _______ _______ _____ _____    ______ ____
ROOT
ATOM      1  C   UNL     1       1.813   7.990  19.443  0.00  0.00    +0.000 C 
ATOM      2  C   UNL     1       2.515   6.674  19.759  0.00  0.00    +0.000 C 
ATOM      3  C   UNL     1       1.654   5.826  20.734  0.00  0.00    +0.000 C 
ATOM      4  C   UNL     1       1.494   4.543  19.990  0.00  0.00    +0.000 A 
ATOM      5  C   UNL     1       0.778   3.421  20.385  0.00  0.00    +0.000 A 
ATOM      6  C   UNL     1       0.787   2.304  19.553  0.00  0.00    +0.000 A 
ATOM      7  C   UNL     1       1.525   2.325  18.362  0.00  0.00    +0.000 A 
ATOM      8  C   UNL     1       2.213   3.481  17.971  0.00  0.00    +0.000 A 
ATOM      9  C   UNL     1       2.181   4.604  18.775  0.00  0.00    +0.000 A 
ATOM     10  N   UNL     1       2.737   5.849  18.556  0.00  0.00    +0.000 N 
ENDROOT
BRANCH  10  11
ATOM     11  C   UNL     1       3.351   6.319  17.331  0.00  0.00    +0.000 C 
BRANCH  11  12
ATOM     12  C   UNL     1       4.760   5.799  17.186  0.00  0.00    +0.000 A 
ATOM     13  C   UNL     1       5.079   4.873  16.177  0.00  0.00    +0.000 A 
ATOM     14  C   UNL     1       6.352   4.314  16.092  0.00  0.00    +0.000 A 
ATOM     15  C   UNL     1       7.337   4.675  17.010  0.00  0.00    +0.000 A 
ATOM     16  C   UNL     1       7.043   5.622  17.997  0.00  0.00    +0.000 A 
ATOM     17  C   UNL     1       5.766   6.193  18.086  0.00  0.00    +0.000 A 
BRANCH  16  18
ATOM     18  N   UNL     1       8.079   6.007  18.966  0.00  0.00    +0.000 N 
ATOM     19  O   UNL     1       8.451   5.150  19.782  0.00  0.00    +0.000 OA
ATOM     20  O   UNL     1       8.520   7.163  18.906  0.00  0.00    +0.000 OA
ENDBRANCH  16  18
ENDBRANCH  11  12
ENDBRANCH  10  11
TORSDOF 3
ENDMDL
MODEL 5
REMARK VINA RESULT:      -7.7      2.387      3.706
REMARK  Name = 
REMARK  4 active torsions:
REMARK  status: ('A' for Active; 'I' for Inactive)
REMARK    1  A    between atoms: C_1  and  C_2
REMARK    2  A    between atoms: N_10  and  C_11
REMARK    3  A    between atoms: C_11  and  C_12
REMARK    4  A    between atoms: C_16  and  N_17
REMARK                            x       y       z     vdW  Elec       q    Type
REMARK                         _______ _______ _______ _____ _____    ______ ____
ROOT
ATOM      1  C   UNL     1       3.724   2.638  20.206  0.00  0.00    +0.000 C 
ATOM      2  C   UNL     1       2.501   3.437  19.771  0.00  0.00    +0.000 C 
ATOM      3  C   UNL     1       2.095   4.445  20.882  0.00  0.00    +0.000 C 
ATOM      4  C   UNL     1       2.107   5.746  20.153  0.00  0.00    +0.000 A 
ATOM      5  C   UNL     1       1.846   7.008  20.673  0.00  0.00    +0.000 A 
ATOM      6  C   UNL     1       1.873   8.098  19.808  0.00  0.00    +0.000 A 
ATOM      7  C   UNL     1       2.136   7.903  18.445  0.00  0.00    +0.000 A 
ATOM      8  C   UNL     1       2.426   6.625  17.951  0.00  0.00    +0.000 A 
ATOM      9  C   UNL     1       2.434   5.543  18.811  0.00  0.00    +0.000 A 
ATOM     10  N   UNL     1       2.743   4.223  18.548  0.00  0.00    +0.000 N 
ENDROOT
BRANCH  10  11
ATOM     11  C   UNL     1       3.303   3.694  17.320  0.00  0.00    +0.000 C 
BRANCH  11  12
ATOM     12  C   UNL     1       4.715   4.180  17.104  0.00  0.00    +0.000 A 
ATOM     13  C   UNL     1       5.368   3.953  15.879  0.00  0.00    +0.000 A 
ATOM     14  C   UNL     1       6.701   4.312  15.699  0.00  0.00    +0.000 A 
ATOM     15  C   UNL     1       7.409   4.913  16.738  0.00  0.00    +0.000 A 
ATOM     16  C   UNL     1       6.762   5.177  17.950  0.00  0.00    +0.000 A 
ATOM     17  C   UNL     1       5.419   4.823  18.136  0.00  0.00    +0.000 A 
BRANCH  16  18
ATOM     18  N   UNL     1       7.505   5.812  19.048  0.00  0.00    +0.000 N 
ATOM     19  O   UNL     1       7.410   5.306  20.176  0.00  0.00    +0.000 OA
ATOM     20  O   UNL     1       8.185   6.811  18.777  0.00  0.00    +0.000 OA
ENDBRANCH  16  18
ENDBRANCH  11  12
ENDBRANCH  10  11
TORSDOF 3
ENDMDL
MODEL 6
REMARK VINA RESULT:      -7.2      1.171      1.503
REMARK  Name = 
REMARK  4 active torsions:
REMARK  status: ('A' for Active; 'I' for Inactive)
REMARK    1  A    between atoms: C_1  and  C_2
REMARK    2  A    between atoms: N_10  and  C_11
REMARK    3  A    between atoms: C_11  and  C_12
REMARK    4  A    between atoms: C_16  and  N_17
REMARK                            x       y       z     vdW  Elec       q    Type
REMARK                         _______ _______ _______ _____ _____    ______ ____
ROOT
ATOM      1  C   UNL     1       2.558   7.276  17.850  0.00  0.00    +0.000 C 
ATOM      2  C   UNL     1       3.252   6.225  18.709  0.00  0.00    +0.000 C 
ATOM      3  C   UNL     1       2.615   6.181  20.125  0.00  0.00    +0.000 C 
ATOM      4  C   UNL     1       2.218   4.750  20.255  0.00  0.00    +0.000 A 
ATOM      5  C   UNL     1       1.568   4.147  21.324  0.00  0.00    +0.000 A 
ATOM      6  C   UNL     1       1.322   2.779  21.262  0.00  0.00    +0.000 A 
ATOM      7  C   UNL     1       1.747   2.041  20.148  0.00  0.00    +0.000 A 
ATOM      8  C   UNL     1       2.373   2.678  19.069  0.00  0.00    +0.000 A 
ATOM      9  C   UNL     1       2.592   4.042  19.110  0.00  0.00    +0.000 A 
ATOM     10  N   UNL     1       3.135   4.867  18.146  0.00  0.00    +0.000 N 
ENDROOT
BRANCH  10  11
ATOM     11  C   UNL     1       3.453   4.507  16.779  0.00  0.00    +0.000 C 
BRANCH  11  12
ATOM     12  C   UNL     1       4.942   4.534  16.534  0.00  0.00    +0.000 A 
ATOM     13  C   UNL     1       5.844   4.495  17.613  0.00  0.00    +0.000 A 
ATOM     14  C   UNL     1       7.216   4.616  17.407  0.00  0.00    +0.000 A 
ATOM     15  C   UNL     1       7.717   4.769  16.115  0.00  0.00    +0.000 A 
ATOM     16  C   UNL     1       6.834   4.773  15.030  0.00  0.00    +0.000 A 
ATOM     17  C   UNL     1       5.453   4.647  15.230  0.00  0.00    +0.000 A 
BRANCH  16  18
ATOM     18  N   UNL     1       7.360   4.933  13.667  0.00  0.00    +0.000 N 
ATOM     19  O   UNL     1       8.266   5.762  13.493  0.00  0.00    +0.000 OA
ATOM     20  O   UNL     1       6.868   4.227  12.776  0.00  0.00    +0.000 OA
ENDBRANCH  16  18
ENDBRANCH  11  12
ENDBRANCH  10  11
TORSDOF 3
ENDMDL
MODEL 7
REMARK VINA RESULT:      -7.2      2.348      2.638
REMARK  Name = 
REMARK  4 active torsions:
REMARK  status: ('A' for Active; 'I' for Inactive)
REMARK    1  A    between atoms: C_1  and  C_2
REMARK    2  A    between atoms: N_10  and  C_11
REMARK    3  A    between atoms: C_11  and  C_12
REMARK    4  A    between atoms: C_16  and  N_17
REMARK                            x       y       z     vdW  Elec       q    Type
REMARK                         _______ _______ _______ _____ _____    ______ ____
ROOT
ATOM      1  C   UNL     1       2.018   7.725  18.136  0.00  0.00    +0.000 C 
ATOM      2  C   UNL     1       2.748   6.655  18.941  0.00  0.00    +0.000 C 
ATOM      3  C   UNL     1       1.921   6.271  20.199  0.00  0.00    +0.000 C 
ATOM      4  C   UNL     1       1.767   4.796  20.044  0.00  0.00    +0.000 A 
ATOM      5  C   UNL     1       1.078   3.927  20.880  0.00  0.00    +0.000 A 
ATOM      6  C   UNL     1       1.088   2.569  20.574  0.00  0.00    +0.000 A 
ATOM      7  C   UNL     1       1.800   2.108  19.458  0.00  0.00    +0.000 A 
ATOM      8  C   UNL     1       2.461   3.009  18.613  0.00  0.00    +0.000 A 
ATOM      9  C   UNL     1       2.428   4.362  18.892  0.00  0.00    +0.000 A 
ATOM     10  N   UNL     1       2.958   5.414  18.172  0.00  0.00    +0.000 N 
ENDROOT
BRANCH  10  11
ATOM     11  C   UNL     1       3.538   5.349  16.846  0.00  0.00    +0.000 C 
BRANCH  11  12
ATOM     12  C   UNL     1       5.034   5.160  16.908  0.00  0.00    +0.000 A 
ATOM     13  C   UNL     1       5.693   4.366  15.953  0.00  0.00    +0.000 A 
ATOM     14  C   UNL     1       7.058   4.106  16.053  0.00  0.00    +0.000 A 
ATOM     15  C   UNL     1       7.795   4.643  17.108  0.00  0.00    +0.000 A 
ATOM     16  C   UNL     1       7.159   5.465  18.045  0.00  0.00    +0.000 A 
ATOM     17  C   UNL     1       5.787   5.734  17.947  0.00  0.00    +0.000 A 
BRANCH  16  18
ATOM     18  N   UNL     1       7.934   6.033  19.157  0.00  0.00    +0.000 N 
ATOM     19  O   UNL     1       8.500   7.121  18.968  0.00  0.00    +0.000 OA
ATOM     20  O   UNL     1       7.971   5.392  20.216  0.00  0.00    +0.000 OA
ENDBRANCH  16  18
ENDBRANCH  11  12
ENDBRANCH  10  11
TORSDOF 3
ENDMDL
MODEL 8
REMARK VINA RESULT:      -7.1      4.149      6.227
REMARK  Name = 
REMARK  4 active torsions:
REMARK  status: ('A' for Active; 'I' for Inactive)
REMARK    1  A    between atoms: C_1  and  C_2
REMARK    2  A    between atoms: N_10  and  C_11
REMARK    3  A    between atoms: C_11  and  C_12
REMARK    4  A    between atoms: C_16  and  N_17
REMARK                            x       y       z     vdW  Elec       q    Type
REMARK                         _______ _______ _______ _____ _____    ______ ____
ROOT
ATOM      1  C   UNL     1       5.368   5.036  17.260  0.00  0.00    +0.000 C 
ATOM      2  C   UNL     1       3.844   5.026  17.240  0.00  0.00    +0.000 C 
ATOM      3  C   UNL     1       3.319   3.592  16.955  0.00  0.00    +0.000 C 
ATOM      4  C   UNL     1       2.426   3.339  18.122  0.00  0.00    +0.000 A 
ATOM      5  C   UNL     1       1.708   2.183  18.401  0.00  0.00    +0.000 A 
ATOM      6  C   UNL     1       0.897   2.165  19.532  0.00  0.00    +0.000 A 
ATOM      7  C   UNL     1       0.804   3.304  20.344  0.00  0.00    +0.000 A 
ATOM      8  C   UNL     1       1.562   4.447  20.058  0.00  0.00    +0.000 A 
ATOM      9  C   UNL     1       2.395   4.459  18.955  0.00  0.00    +0.000 A 
ATOM     10  N   UNL     1       3.259   5.447  18.526  0.00  0.00    +0.000 N 
ENDROOT
BRANCH  10  11
ATOM     11  C   UNL     1       3.618   6.653  19.244  0.00  0.00    +0.000 C 
BRANCH  11  12
ATOM     12  C   UNL     1       2.507   7.674  19.198  0.00  0.00    +0.000 A 
ATOM     13  C   UNL     1       2.168   8.305  17.988  0.00  0.00    +0.000 A 
ATOM     14  C   UNL     1       1.211   9.316  17.949  0.00  0.00    +0.000 A 
ATOM     15  C   UNL     1       0.565   9.712  19.119  0.00  0.00    +0.000 A 
ATOM     16  C   UNL     1       0.867   9.067  20.324  0.00  0.00    +0.000 A 
ATOM     17  C   UNL     1       1.825   8.046  20.369  0.00  0.00    +0.000 A 
BRANCH  16  18
ATOM     18  N   UNL     1       0.186   9.481  21.559  0.00  0.00    +0.000 N 
ATOM     19  O   UNL     1      -0.697   8.735  22.008  0.00  0.00    +0.000 OA
ATOM     20  O   UNL     1       0.540  10.548  22.078  0.00  0.00    +0.000 OA
ENDBRANCH  16  18
ENDBRANCH  11  12
ENDBRANCH  10  11
TORSDOF 3
ENDMDL
MODEL 9
REMARK VINA RESULT:      -7.1      4.051      6.445
REMARK  Name = 
REMARK  4 active torsions:
REMARK  status: ('A' for Active; 'I' for Inactive)
REMARK    1  A    between atoms: C_1  and  C_2
REMARK    2  A    between atoms: N_10  and  C_11
REMARK    3  A    between atoms: C_11  and  C_12
REMARK    4  A    between atoms: C_16  and  N_17
REMARK                            x       y       z     vdW  Elec       q    Type
REMARK                         _______ _______ _______ _____ _____    ______ ____
ROOT
ATOM      1  C   UNL     1       1.422   4.048  18.024  0.00  0.00    +0.000 C 
ATOM      2  C   UNL     1       2.898   3.730  18.235  0.00  0.00    +0.000 C 
ATOM      3  C   UNL     1       3.553   3.305  16.892  0.00  0.00    +0.000 C 
ATOM      4  C   UNL     1       4.687   4.266  16.770  0.00  0.00    +0.000 A 
ATOM      5  C   UNL     1       5.602   4.366  15.730  0.00  0.00    +0.000 A 
ATOM      6  C   UNL     1       6.615   5.315  15.830  0.00  0.00    +0.000 A 
ATOM      7  C   UNL     1       6.705   6.126  16.969  0.00  0.00    +0.000 A 
ATOM      8  C   UNL     1       5.751   6.028  17.990  0.00  0.00    +0.000 A 
ATOM      9  C   UNL     1       4.723   5.110  17.883  0.00  0.00    +0.000 A 
ATOM     10  N   UNL     1       3.660   4.888  18.736  0.00  0.00    +0.000 N 
ENDROOT
BRANCH  10  11
ATOM     11  C   UNL     1       3.283   5.698  19.876  0.00  0.00    +0.000 C 
BRANCH  11  12
ATOM     12  C   UNL     1       2.550   6.946  19.448  0.00  0.00    +0.000 A 
ATOM     13  C   UNL     1       2.601   7.380  18.112  0.00  0.00    +0.000 A 
ATOM     14  C   UNL     1       2.009   8.580  17.724  0.00  0.00    +0.000 A 
ATOM     15  C   UNL     1       1.346   9.367  18.664  0.00  0.00    +0.000 A 
ATOM     16  C   UNL     1       1.257   8.929  19.989  0.00  0.00    +0.000 A 
ATOM     17  C   UNL     1       1.846   7.721  20.386  0.00  0.00    +0.000 A 
BRANCH  16  18
ATOM     18  N   UNL     1       0.557   9.757  20.982  0.00  0.00    +0.000 N 
ATOM     19  O   UNL     1       1.102   9.919  22.084  0.00  0.00    +0.000 OA
ATOM     20  O   UNL     1      -0.533  10.245  20.655  0.00  0.00    +0.000 OA
ENDBRANCH  16  18
ENDBRANCH  11  12
ENDBRANCH  10  11
TORSDOF 3
ENDMDL
