MODEL 1
REMARK VINA RESULT:      -8.0      0.000      0.000
REMARK  Name = 
REMARK  9 active torsions:
REMARK  status: ('A' for Active; 'I' for Inactive)
REMARK    1  A    between atoms: C_1  and  O_2
REMARK    2  A    between atoms: O_2  and  C_3
REMARK    3  A    between atoms: C_3  and  C_4
REMARK    4  A    between atoms: C_4  and  N_5
REMARK    5  A    between atoms: N_5  and  S_6
REMARK    6  A    between atoms: S_6  and  C_9
REMARK    7  A    between atoms: N_16  and  N_17
REMARK    8  A    between atoms: N_17  and  C_18
REMARK    9  A    between atoms: C_23  and  N_24
REMARK                            x       y       z     vdW  Elec       q    Type
REMARK                         _______ _______ _______ _____ _____    ______ ____
ROOT
ATOM      1  C   UNL     1       1.194   9.694  19.638  0.00  0.00    +0.000 A 
ATOM      2  C   UNL     1       0.673   9.409  20.922  0.00  0.00    +0.000 A 
ATOM      3  C   UNL     1       0.857   8.150  21.508  0.00  0.00    +0.000 A 
ATOM      4  C   UNL     1       1.529   7.201  20.769  0.00  0.00    +0.000 A 
ATOM      5  C   UNL     1       1.993   7.474  19.481  0.00  0.00    +0.000 A 
ATOM      6  C   UNL     1       1.849   8.711  18.884  0.00  0.00    +0.000 A 
ATOM      7  C   UNL     1       2.583   6.230  18.982  0.00  0.00    +0.000 C 
ATOM      8  N   UNL     1       3.064   6.065  17.794  0.00  0.00    +0.000 NA
ATOM      9  C   UNL     1       2.480   5.225  20.133  0.00  0.00    +0.000 C 
ATOM     10  O   UNL     1       2.907   4.092  20.131  0.00  0.00    +0.000 OA
ATOM     11  N   UNL     1       1.827   5.898  21.150  0.00  0.00    +0.000 N 
ATOM     12  H   UNL     1       1.616   5.469  22.039  0.00  0.00    +0.000 HD
ENDROOT
BRANCH   1  13
ATOM     13  S   UNL     1       0.948  11.311  18.925  0.00  0.00    +0.000 S 
ATOM     14  O   UNL     1       2.139  11.656  18.179  0.00  0.00    +0.000 OA
ATOM     15  O   UNL     1       0.446  12.144  19.994  0.00  0.00    +0.000 OA
BRANCH  13  16
ATOM     16  N   UNL     1      -0.314  11.072  17.827  0.00  0.00    +0.000 NA
ATOM     17  H   UNL     1      -0.509  11.913  17.281  0.00  0.00    +0.000 HD
BRANCH  16  18
ATOM     18  C   UNL     1      -1.581  10.471  18.325  0.00  0.00    +0.000 C 
BRANCH  18  19
ATOM     19  C   UNL     1      -2.450   9.914  17.200  0.00  0.00    +0.000 C 
BRANCH  19  21
ATOM     20  C   UNL     1      -3.086  10.297  14.959  0.00  0.00    +0.000 C 
ATOM     21  O   UNL     1      -2.382  10.807  16.084  0.00  0.00    +0.000 OA
ENDBRANCH  19  21
ENDBRANCH  18  19
ENDBRANCH  16  18
ENDBRANCH  13  16
ENDBRANCH   1  13
BRANCH   8  22
ATOM     22  N   UNL     1       3.540   4.829  17.481  0.00  0.00    +0.000 N 
ATOM     23  H   UNL     1       3.246   3.994  18.015  0.00  0.00    +0.000 HD
BRANCH  22  24
ATOM     24  C   UNL     1       4.809   4.763  16.862  0.00  0.00    +0.000 A 
ATOM     25  C   UNL     1       4.889   4.861  15.458  0.00  0.00    +0.000 A 
ATOM     26  C   UNL     1       6.114   4.880  14.784  0.00  0.00    +0.000 A 
ATOM     27  C   UNL     1       7.300   4.799  15.499  0.00  0.00    +0.000 A 
ATOM     28  C   UNL     1       7.261   4.666  16.886  0.00  0.00    +0.000 A 
ATOM     29  C   UNL     1       6.024   4.633  17.565  0.00  0.00    +0.000 A 
BRANCH  29  30
ATOM     30  N   UNL     1       6.059   4.479  19.026  0.00  0.00    +0.000 N 
ATOM     31  O   UNL     1       5.537   3.473  19.524  0.00  0.00    +0.000 OA
ATOM     32  O   UNL     1       6.624   5.364  19.687  0.00  0.00    +0.000 OA
ENDBRANCH  29  30
ENDBRANCH  22  24
ENDBRANCH   8  22
TORSDOF 8
ENDMDL
MODEL 2
REMARK VINA RESULT:      -8.0      1.671      2.090
REMARK  Name = 
REMARK  9 active torsions:
REMARK  status: ('A' for Active; 'I' for Inactive)
REMARK    1  A    between atoms: C_1  and  O_2
REMARK    2  A    between atoms: O_2  and  C_3
REMARK    3  A    between atoms: C_3  and  C_4
REMARK    4  A    between atoms: C_4  and  N_5
REMARK    5  A    between atoms: N_5  and  S_6
REMARK    6  A    between atoms: S_6  and  C_9
REMARK    7  A    between atoms: N_16  and  N_17
REMARK    8  A    between atoms: N_17  and  C_18
REMARK    9  A    between atoms: C_23  and  N_24
REMARK                            x       y       z     vdW  Elec       q    Type
REMARK                         _______ _______ _______ _____ _____    ______ ____
ROOT
ATOM      1  C   UNL     1       1.918   8.275  18.999  0.00  0.00    +0.000 A 
ATOM      2  C   UNL     1       1.479   7.794  20.254  0.00  0.00    +0.000 A 
ATOM      3  C   UNL     1       1.845   6.519  20.703  0.00  0.00    +0.000 A 
ATOM      4  C   UNL     1       2.615   5.749  19.859  0.00  0.00    +0.000 A 
ATOM      5  C   UNL     1       3.001   6.211  18.599  0.00  0.00    +0.000 A 
ATOM      6  C   UNL     1       2.676   7.472  18.137  0.00  0.00    +0.000 A 
ATOM      7  C   UNL     1       3.735   5.115  17.964  0.00  0.00    +0.000 C 
ATOM      8  N   UNL     1       4.199   5.138  16.758  0.00  0.00    +0.000 NA
ATOM      9  C   UNL     1       3.801   3.994  19.005  0.00  0.00    +0.000 C 
ATOM     10  O   UNL     1       4.374   2.936  18.879  0.00  0.00    +0.000 OA
ATOM     11  N   UNL     1       3.095   4.467  20.097  0.00  0.00    +0.000 N 
ATOM     12  H   UNL     1       2.969   3.925  20.940  0.00  0.00    +0.000 HD
ENDROOT
BRANCH   1  13
ATOM     13  S   UNL     1       1.439   9.908  18.462  0.00  0.00    +0.000 S 
ATOM     14  O   UNL     1       2.458  10.399  17.559  0.00  0.00    +0.000 OA
ATOM     15  O   UNL     1       1.067  10.626  19.660  0.00  0.00    +0.000 OA
BRANCH  13  16
ATOM     16  N   UNL     1       0.029   9.634  17.572  0.00  0.00    +0.000 NA
ATOM     17  H   UNL     1       0.188   9.728  16.567  0.00  0.00    +0.000 HD
BRANCH  16  18
ATOM     18  C   UNL     1      -1.211  10.353  17.970  0.00  0.00    +0.000 C 
BRANCH  18  19
ATOM     19  C   UNL     1      -2.417   9.964  17.119  0.00  0.00    +0.000 C 
BRANCH  19  21
ATOM     20  C   UNL     1      -3.429  10.338  15.019  0.00  0.00    +0.000 C 
ATOM     21  O   UNL     1      -2.372  10.706  15.896  0.00  0.00    +0.000 OA
ENDBRANCH  19  21
ENDBRANCH  18  19
ENDBRANCH  16  18
ENDBRANCH  13  16
ENDBRANCH   1  13
BRANCH   8  22
ATOM     22  N   UNL     1       4.825   4.016  16.310  0.00  0.00    +0.000 N 
ATOM     23  H   UNL     1       5.056   3.241  16.955  0.00  0.00    +0.000 HD
BRANCH  22  24
ATOM     24  C   UNL     1       5.647   4.146  15.168  0.00  0.00    +0.000 A 
ATOM     25  C   UNL     1       5.207   3.600  13.945  0.00  0.00    +0.000 A 
ATOM     26  C   UNL     1       5.930   3.757  12.759  0.00  0.00    +0.000 A 
ATOM     27  C   UNL     1       7.122   4.468  12.762  0.00  0.00    +0.000 A 
ATOM     28  C   UNL     1       7.608   4.993  13.959  0.00  0.00    +0.000 A 
ATOM     29  C   UNL     1       6.884   4.822  15.159  0.00  0.00    +0.000 A 
BRANCH  29  30
ATOM     30  N   UNL     1       7.462   5.393  16.383  0.00  0.00    +0.000 N 
ATOM     31  O   UNL     1       7.827   4.618  17.278  0.00  0.00    +0.000 OA
ATOM     32  O   UNL     1       7.566   6.627  16.452  0.00  0.00    +0.000 OA
ENDBRANCH  29  30
ENDBRANCH  22  24
ENDBRANCH   8  22
TORSDOF 8
ENDMDL
MODEL 3
REMARK VINA RESULT:      -7.9      3.416      7.858
REMARK  Name = 
REMARK  9 active torsions:
REMARK  status: ('A' for Active; 'I' for Inactive)
REMARK    1  A    between atoms: C_1  and  O_2
REMARK    2  A    between atoms: O_2  and  C_3
REMARK    3  A    between atoms: C_3  and  C_4
REMARK    4  A    between atoms: C_4  and  N_5
REMARK    5  A    between atoms: N_5  and  S_6
REMARK    6  A    between atoms: S_6  and  C_9
REMARK    7  A    between atoms: N_16  and  N_17
REMARK    8  A    between atoms: N_17  and  C_18
REMARK    9  A    between atoms: C_23  and  N_24
REMARK                            x       y       z     vdW  Elec       q    Type
REMARK                         _______ _______ _______ _____ _____    ______ ____
ROOT
ATOM      1  C   UNL     1       5.339   4.889  17.067  0.00  0.00    +0.000 A 
ATOM      2  C   UNL     1       5.015   3.513  17.097  0.00  0.00    +0.000 A 
ATOM      3  C   UNL     1       3.908   3.051  17.820  0.00  0.00    +0.000 A 
ATOM      4  C   UNL     1       3.179   3.985  18.524  0.00  0.00    +0.000 A 
ATOM      5  C   UNL     1       3.537   5.334  18.533  0.00  0.00    +0.000 A 
ATOM      6  C   UNL     1       4.607   5.825  17.811  0.00  0.00    +0.000 A 
ATOM      7  C   UNL     1       2.595   6.006  19.429  0.00  0.00    +0.000 C 
ATOM      8  N   UNL     1       2.642   7.257  19.748  0.00  0.00    +0.000 NA
ATOM      9  C   UNL     1       1.608   4.927  19.888  0.00  0.00    +0.000 C 
ATOM     10  O   UNL     1       0.644   5.097  20.599  0.00  0.00    +0.000 OA
ATOM     11  N   UNL     1       2.049   3.755  19.300  0.00  0.00    +0.000 N 
ATOM     12  H   UNL     1       1.584   2.869  19.436  0.00  0.00    +0.000 HD
ENDROOT
BRANCH   1  13
ATOM     13  S   UNL     1       6.751   5.444  16.128  0.00  0.00    +0.000 S 
ATOM     14  O   UNL     1       6.399   5.404  14.725  0.00  0.00    +0.000 OA
ATOM     15  O   UNL     1       7.886   4.721  16.654  0.00  0.00    +0.000 OA
BRANCH  13  16
ATOM     16  N   UNL     1       6.919   7.062  16.585  0.00  0.00    +0.000 NA
ATOM     17  H   UNL     1       7.150   7.661  15.790  0.00  0.00    +0.000 HD
BRANCH  16  18
ATOM     18  C   UNL     1       7.792   7.383  17.746  0.00  0.00    +0.000 C 
BRANCH  18  19
ATOM     19  C   UNL     1       8.067   8.878  17.881  0.00  0.00    +0.000 C 
BRANCH  19  21
ATOM     20  C   UNL     1       9.330  10.445  19.117  0.00  0.00    +0.000 C 
ATOM     21  O   UNL     1       8.928   9.086  19.006  0.00  0.00    +0.000 OA
ENDBRANCH  19  21
ENDBRANCH  18  19
ENDBRANCH  16  18
ENDBRANCH  13  16
ENDBRANCH   1  13
BRANCH   8  22
ATOM     22  N   UNL     1       1.709   7.712  20.629  0.00  0.00    +0.000 N 
ATOM     23  H   UNL     1       1.179   7.057  21.229  0.00  0.00    +0.000 HD
BRANCH  22  24
ATOM     24  C   UNL     1       1.071   8.935  20.320  0.00  0.00    +0.000 A 
ATOM     25  C   UNL     1       0.984   9.338  18.973  0.00  0.00    +0.000 A 
ATOM     26  C   UNL     1       0.301  10.495  18.586  0.00  0.00    +0.000 A 
ATOM     27  C   UNL     1      -0.317  11.288  19.544  0.00  0.00    +0.000 A 
ATOM     28  C   UNL     1      -0.224  10.941  20.890  0.00  0.00    +0.000 A 
ATOM     29  C   UNL     1       0.478   9.779  21.281  0.00  0.00    +0.000 A 
BRANCH  29  30
ATOM     30  N   UNL     1       0.544   9.482  22.718  0.00  0.00    +0.000 N 
ATOM     31  O   UNL     1       1.652   9.495  23.271  0.00  0.00    +0.000 OA
ATOM     32  O   UNL     1      -0.521   9.243  23.309  0.00  0.00    +0.000 OA
ENDBRANCH  29  30
ENDBRANCH  22  24
ENDBRANCH   8  22
TORSDOF 8
ENDMDL
MODEL 4
REMARK VINA RESULT:      -7.8      1.014      1.186
REMARK  Name = 
REMARK  9 active torsions:
REMARK  status: ('A' for Active; 'I' for Inactive)
REMARK    1  A    between atoms: C_1  and  O_2
REMARK    2  A    between atoms: O_2  and  C_3
REMARK    3  A    between atoms: C_3  and  C_4
REMARK    4  A    between atoms: C_4  and  N_5
REMARK    5  A    between atoms: N_5  and  S_6
REMARK    6  A    between atoms: S_6  and  C_9
REMARK    7  A    between atoms: N_16  and  N_17
REMARK    8  A    between atoms: N_17  and  C_18
REMARK    9  A    between atoms: C_23  and  N_24
REMARK                            x       y       z     vdW  Elec       q    Type
REMARK                         _______ _______ _______ _____ _____    ______ ____
ROOT
ATOM      1  C   UNL     1       1.348   9.255  19.503  0.00  0.00    +0.000 A 
ATOM      2  C   UNL     1       0.798   8.936  20.766  0.00  0.00    +0.000 A 
ATOM      3  C   UNL     1       1.038   7.690  21.359  0.00  0.00    +0.000 A 
ATOM      4  C   UNL     1       1.796   6.786  20.647  0.00  0.00    +0.000 A 
ATOM      5  C   UNL     1       2.291   7.090  19.377  0.00  0.00    +0.000 A 
ATOM      6  C   UNL     1       2.093   8.317  18.775  0.00  0.00    +0.000 A 
ATOM      7  C   UNL     1       2.976   5.887  18.902  0.00  0.00    +0.000 C 
ATOM      8  N   UNL     1       3.512   5.755  17.733  0.00  0.00    +0.000 NA
ATOM      9  C   UNL     1       2.893   4.875  20.048  0.00  0.00    +0.000 C 
ATOM     10  O   UNL     1       3.390   3.771  20.064  0.00  0.00    +0.000 OA
ATOM     11  N   UNL     1       2.161   5.504  21.040  0.00  0.00    +0.000 N 
ATOM     12  H   UNL     1       1.943   5.061  21.920  0.00  0.00    +0.000 HD
ENDROOT
BRANCH   1  13
ATOM     13  S   UNL     1       1.029  10.856  18.780  0.00  0.00    +0.000 S 
ATOM     14  O   UNL     1       2.187  11.232  17.999  0.00  0.00    +0.000 OA
ATOM     15  O   UNL     1       0.527  11.682  19.853  0.00  0.00    +0.000 OA
BRANCH  13  16
ATOM     16  N   UNL     1      -0.253  10.561  17.719  0.00  0.00    +0.000 NA
ATOM     17  H   UNL     1      -0.211  11.163  16.894  0.00  0.00    +0.000 HD
BRANCH  16  18
ATOM     18  C   UNL     1      -1.634  10.530  18.269  0.00  0.00    +0.000 C 
BRANCH  18  19
ATOM     19  C   UNL     1      -2.604  11.404  17.477  0.00  0.00    +0.000 C 
BRANCH  19  21
ATOM     20  C   UNL     1      -4.896  11.643  16.966  0.00  0.00    +0.000 C 
ATOM     21  O   UNL     1      -3.893  10.781  17.485  0.00  0.00    +0.000 OA
ENDBRANCH  19  21
ENDBRANCH  18  19
ENDBRANCH  16  18
ENDBRANCH  13  16
ENDBRANCH   1  13
BRANCH   8  22
ATOM     22  N   UNL     1       4.076   4.552  17.439  0.00  0.00    +0.000 N 
ATOM     23  H   UNL     1       4.062   3.775  18.122  0.00  0.00    +0.000 HD
BRANCH  22  24
ATOM     24  C   UNL     1       5.138   4.546  16.506  0.00  0.00    +0.000 A 
ATOM     25  C   UNL     1       4.866   4.211  15.165  0.00  0.00    +0.000 A 
ATOM     26  C   UNL     1       5.850   4.259  14.173  0.00  0.00    +0.000 A 
ATOM     27  C   UNL     1       7.143   4.645  14.498  0.00  0.00    +0.000 A 
ATOM     28  C   UNL     1       7.459   4.950  15.820  0.00  0.00    +0.000 A 
ATOM     29  C   UNL     1       6.468   4.888  16.823  0.00  0.00    +0.000 A 
BRANCH  29  30
ATOM     30  N   UNL     1       6.877   5.213  18.197  0.00  0.00    +0.000 N 
ATOM     31  O   UNL     1       7.589   6.210  18.378  0.00  0.00    +0.000 OA
ATOM     32  O   UNL     1       6.476   4.475  19.110  0.00  0.00    +0.000 OA
ENDBRANCH  29  30
ENDBRANCH  22  24
ENDBRANCH   8  22
TORSDOF 8
ENDMDL
MODEL 5
REMARK VINA RESULT:      -7.7      1.436      1.648
REMARK  Name = 
REMARK  9 active torsions:
REMARK  status: ('A' for Active; 'I' for Inactive)
REMARK    1  A    between atoms: C_1  and  O_2
REMARK    2  A    between atoms: O_2  and  C_3
REMARK    3  A    between atoms: C_3  and  C_4
REMARK    4  A    between atoms: C_4  and  N_5
REMARK    5  A    between atoms: N_5  and  S_6
REMARK    6  A    between atoms: S_6  and  C_9
REMARK    7  A    between atoms: N_16  and  N_17
REMARK    8  A    between atoms: N_17  and  C_18
REMARK    9  A    between atoms: C_23  and  N_24
REMARK                            x       y       z     vdW  Elec       q    Type
REMARK                         _______ _______ _______ _____ _____    ______ ____
ROOT
ATOM      1  C   UNL     1       0.616  10.779  19.667  0.00  0.00    +0.000 A 
ATOM      2  C   UNL     1       0.041  10.454  20.917  0.00  0.00    +0.000 A 
ATOM      3  C   UNL     1       0.274   9.209  21.513  0.00  0.00    +0.000 A 
ATOM      4  C   UNL     1       1.051   8.309  20.814  0.00  0.00    +0.000 A 
ATOM      5  C   UNL     1       1.571   8.618  19.556  0.00  0.00    +0.000 A 
ATOM      6  C   UNL     1       1.379   9.846  18.952  0.00  0.00    +0.000 A 
ATOM      7  C   UNL     1       2.271   7.419  19.093  0.00  0.00    +0.000 C 
ATOM      8  N   UNL     1       2.831   7.292  17.935  0.00  0.00    +0.000 NA
ATOM      9  C   UNL     1       2.168   6.404  20.235  0.00  0.00    +0.000 C 
ATOM     10  O   UNL     1       2.669   5.303  20.259  0.00  0.00    +0.000 OA
ATOM     11  N   UNL     1       1.413   7.029  21.212  0.00  0.00    +0.000 N 
ATOM     12  H   UNL     1       1.179   6.582  22.087  0.00  0.00    +0.000 HD
ENDROOT
BRANCH   1  13
ATOM     13  S   UNL     1       0.304  12.380  18.941  0.00  0.00    +0.000 S 
ATOM     14  O   UNL     1       1.543  12.857  18.364  0.00  0.00    +0.000 OA
ATOM     15  O   UNL     1      -0.418  13.134  19.939  0.00  0.00    +0.000 OA
BRANCH  13  16
ATOM     16  N   UNL     1      -0.770  12.040  17.681  0.00  0.00    +0.000 NA
ATOM     17  H   UNL     1      -1.004  12.877  17.144  0.00  0.00    +0.000 HD
BRANCH  16  18
ATOM     18  C   UNL     1      -1.999  11.261  17.989  0.00  0.00    +0.000 C 
BRANCH  18  19
ATOM     19  C   UNL     1      -2.077   9.951  17.209  0.00  0.00    +0.000 C 
BRANCH  19  21
ATOM     20  C   UNL     1      -2.967  10.334  15.056  0.00  0.00    +0.000 C 
ATOM     21  O   UNL     1      -3.257   9.971  16.399  0.00  0.00    +0.000 OA
ENDBRANCH  19  21
ENDBRANCH  18  19
ENDBRANCH  16  18
ENDBRANCH  13  16
ENDBRANCH   1  13
BRANCH   8  22
ATOM     22  N   UNL     1       3.406   6.092  17.650  0.00  0.00    +0.000 N 
ATOM     23  H   UNL     1       2.902   5.206  17.821  0.00  0.00    +0.000 HD
BRANCH  22  24
ATOM     24  C   UNL     1       4.818   6.027  17.686  0.00  0.00    +0.000 A 
ATOM     25  C   UNL     1       5.563   7.153  17.283  0.00  0.00    +0.000 A 
ATOM     26  C   UNL     1       6.958   7.188  17.364  0.00  0.00    +0.000 A 
ATOM     27  C   UNL     1       7.652   6.089  17.854  0.00  0.00    +0.000 A 
ATOM     28  C   UNL     1       6.952   4.944  18.230  0.00  0.00    +0.000 A 
ATOM     29  C   UNL     1       5.545   4.905  18.134  0.00  0.00    +0.000 A 
BRANCH  29  30
ATOM     30  N   UNL     1       4.875   3.661  18.539  0.00  0.00    +0.000 N 
ATOM     31  O   UNL     1       5.151   3.177  19.645  0.00  0.00    +0.000 OA
ATOM     32  O   UNL     1       4.056   3.163  17.751  0.00  0.00    +0.000 OA
ENDBRANCH  29  30
ENDBRANCH  22  24
ENDBRANCH   8  22
TORSDOF 8
ENDMDL
MODEL 6
REMARK VINA RESULT:      -7.7      3.148      4.750
REMARK  Name = 
REMARK  9 active torsions:
REMARK  status: ('A' for Active; 'I' for Inactive)
REMARK    1  A    between atoms: C_1  and  O_2
REMARK    2  A    between atoms: O_2  and  C_3
REMARK    3  A    between atoms: C_3  and  C_4
REMARK    4  A    between atoms: C_4  and  N_5
REMARK    5  A    between atoms: N_5  and  S_6
REMARK    6  A    between atoms: S_6  and  C_9
REMARK    7  A    between atoms: N_16  and  N_17
REMARK    8  A    between atoms: N_17  and  C_18
REMARK    9  A    between atoms: C_23  and  N_24
REMARK                            x       y       z     vdW  Elec       q    Type
REMARK                         _______ _______ _______ _____ _____    ______ ____
ROOT
ATOM      1  C   UNL     1      -0.362  11.194  21.161  0.00  0.00    +0.000 A 
ATOM      2  C   UNL     1      -0.397  12.121  20.093  0.00  0.00    +0.000 A 
ATOM      3  C   UNL     1       0.207  11.826  18.866  0.00  0.00    +0.000 A 
ATOM      4  C   UNL     1       0.863  10.618  18.758  0.00  0.00    +0.000 A 
ATOM      5  C   UNL     1       0.939   9.732  19.834  0.00  0.00    +0.000 A 
ATOM      6  C   UNL     1       0.334   9.983  21.050  0.00  0.00    +0.000 A 
ATOM      7  C   UNL     1       1.761   8.607  19.384  0.00  0.00    +0.000 C 
ATOM      8  N   UNL     1       2.114   7.607  20.124  0.00  0.00    +0.000 NA
ATOM      9  C   UNL     1       2.097   8.891  17.918  0.00  0.00    +0.000 C 
ATOM     10  O   UNL     1       2.719   8.165  17.174  0.00  0.00    +0.000 OA
ATOM     11  N   UNL     1       1.524  10.119  17.642  0.00  0.00    +0.000 N 
ATOM     12  H   UNL     1       1.594  10.562  16.737  0.00  0.00    +0.000 HD
ENDROOT
BRANCH   1  13
ATOM     13  S   UNL     1      -1.150  11.601  22.710  0.00  0.00    +0.000 S 
ATOM     14  O   UNL     1      -0.483  12.762  23.259  0.00  0.00    +0.000 OA
ATOM     15  O   UNL     1      -1.253  10.359  23.440  0.00  0.00    +0.000 OA
BRANCH  13  16
ATOM     16  N   UNL     1      -2.712  12.055  22.251  0.00  0.00    +0.000 NA
ATOM     17  H   UNL     1      -2.706  12.664  21.431  0.00  0.00    +0.000 HD
BRANCH  16  18
ATOM     18  C   UNL     1      -3.626  12.596  23.293  0.00  0.00    +0.000 C 
BRANCH  18  19
ATOM     19  C   UNL     1      -4.932  13.131  22.710  0.00  0.00    +0.000 C 
BRANCH  19  21
ATOM     20  C   UNL     1      -6.363  12.167  21.100  0.00  0.00    +0.000 C 
ATOM     21  O   UNL     1      -5.058  12.663  21.364  0.00  0.00    +0.000 OA
ENDBRANCH  19  21
ENDBRANCH  18  19
ENDBRANCH  16  18
ENDBRANCH  13  16
ENDBRANCH   1  13
BRANCH   8  22
ATOM     22  N   UNL     1       2.914   6.664  19.557  0.00  0.00    +0.000 N 
ATOM     23  H   UNL     1       3.386   6.839  18.654  0.00  0.00    +0.000 HD
BRANCH  22  24
ATOM     24  C   UNL     1       2.643   5.313  19.871  0.00  0.00    +0.000 A 
ATOM     25  C   UNL     1       1.446   4.996  20.544  0.00  0.00    +0.000 A 
ATOM     26  C   UNL     1       1.076   3.676  20.819  0.00  0.00    +0.000 A 
ATOM     27  C   UNL     1       1.899   2.629  20.427  0.00  0.00    +0.000 A 
ATOM     28  C   UNL     1       3.108   2.904  19.790  0.00  0.00    +0.000 A 
ATOM     29  C   UNL     1       3.487   4.238  19.525  0.00  0.00    +0.000 A 
BRANCH  29  30
ATOM     30  N   UNL     1       4.780   4.453  18.860  0.00  0.00    +0.000 N 
ATOM     31  O   UNL     1       5.785   3.910  19.340  0.00  0.00    +0.000 OA
ATOM     32  O   UNL     1       4.796   5.160  17.841  0.00  0.00    +0.000 OA
ENDBRANCH  29  30
ENDBRANCH  22  24
ENDBRANCH   8  22
TORSDOF 8
ENDMDL
MODEL 7
REMARK VINA RESULT:      -7.7      3.427      7.899
REMARK  Name = 
REMARK  9 active torsions:
REMARK  status: ('A' for Active; 'I' for Inactive)
REMARK    1  A    between atoms: C_1  and  O_2
REMARK    2  A    between atoms: O_2  and  C_3
REMARK    3  A    between atoms: C_3  and  C_4
REMARK    4  A    between atoms: C_4  and  N_5
REMARK    5  A    between atoms: N_5  and  S_6
REMARK    6  A    between atoms: S_6  and  C_9
REMARK    7  A    between atoms: N_16  and  N_17
REMARK    8  A    between atoms: N_17  and  C_18
REMARK    9  A    between atoms: C_23  and  N_24
REMARK                            x       y       z     vdW  Elec       q    Type
REMARK                         _______ _______ _______ _____ _____    ______ ____
ROOT
ATOM      1  C   UNL     1       4.886   5.004  16.628  0.00  0.00    +0.000 A 
ATOM      2  C   UNL     1       4.727   3.616  16.852  0.00  0.00    +0.000 A 
ATOM      3  C   UNL     1       3.840   3.144  17.827  0.00  0.00    +0.000 A 
ATOM      4  C   UNL     1       3.164   4.083  18.576  0.00  0.00    +0.000 A 
ATOM      5  C   UNL     1       3.367   5.451  18.385  0.00  0.00    +0.000 A 
ATOM      6  C   UNL     1       4.216   5.950  17.416  0.00  0.00    +0.000 A 
ATOM      7  C   UNL     1       2.550   6.134  19.389  0.00  0.00    +0.000 C 
ATOM      8  N   UNL     1       2.521   7.413  19.573  0.00  0.00    +0.000 NA
ATOM      9  C   UNL     1       1.796   5.031  20.139  0.00  0.00    +0.000 C 
ATOM     10  O   UNL     1       0.976   5.195  21.014  0.00  0.00    +0.000 OA
ATOM     11  N   UNL     1       2.240   3.843  19.585  0.00  0.00    +0.000 N 
ATOM     12  H   UNL     1       1.910   2.941  19.896  0.00  0.00    +0.000 HD
ENDROOT
BRANCH   1  13
ATOM     13  S   UNL     1       6.019   5.571  15.371  0.00  0.00    +0.000 S 
ATOM     14  O   UNL     1       7.329   5.694  15.974  0.00  0.00    +0.000 OA
ATOM     15  O   UNL     1       5.366   6.684  14.722  0.00  0.00    +0.000 OA
BRANCH  13  16
ATOM     16  N   UNL     1       6.061   4.290  14.270  0.00  0.00    +0.000 NA
ATOM     17  H   UNL     1       6.047   3.382  14.739  0.00  0.00    +0.000 HD
BRANCH  16  18
ATOM     18  C   UNL     1       7.100   4.306  13.205  0.00  0.00    +0.000 C 
BRANCH  18  19
ATOM     19  C   UNL     1       6.617   3.676  11.901  0.00  0.00    +0.000 C 
BRANCH  19  21
ATOM     20  C   UNL     1       4.377   3.155  11.370  0.00  0.00    +0.000 C 
ATOM     21  O   UNL     1       5.494   2.835  12.187  0.00  0.00    +0.000 OA
ENDBRANCH  19  21
ENDBRANCH  18  19
ENDBRANCH  16  18
ENDBRANCH  13  16
ENDBRANCH   1  13
BRANCH   8  22
ATOM     22  N   UNL     1       1.734   7.880  20.580  0.00  0.00    +0.000 N 
ATOM     23  H   UNL     1       1.346   7.239  21.293  0.00  0.00    +0.000 HD
BRANCH  22  24
ATOM     24  C   UNL     1       0.998   9.060  20.331  0.00  0.00    +0.000 A 
ATOM     25  C   UNL     1       0.713   9.417  18.997  0.00  0.00    +0.000 A 
ATOM     26  C   UNL     1      -0.074  10.528  18.678  0.00  0.00    +0.000 A 
ATOM     27  C   UNL     1      -0.601  11.318  19.690  0.00  0.00    +0.000 A 
ATOM     28  C   UNL     1      -0.313  11.017  21.020  0.00  0.00    +0.000 A 
ATOM     29  C   UNL     1       0.493   9.904  21.341  0.00  0.00    +0.000 A 
BRANCH  29  30
ATOM     30  N   UNL     1       0.764   9.655  22.764  0.00  0.00    +0.000 N 
ATOM     31  O   UNL     1       1.927   9.401  23.106  0.00  0.00    +0.000 OA
ATOM     32  O   UNL     1      -0.190   9.722  23.554  0.00  0.00    +0.000 OA
ENDBRANCH  29  30
ENDBRANCH  22  24
ENDBRANCH   8  22
TORSDOF 8
ENDMDL
MODEL 8
REMARK VINA RESULT:      -7.7      3.399      7.846
REMARK  Name = 
REMARK  9 active torsions:
REMARK  status: ('A' for Active; 'I' for Inactive)
REMARK    1  A    between atoms: C_1  and  O_2
REMARK    2  A    between atoms: O_2  and  C_3
REMARK    3  A    between atoms: C_3  and  C_4
REMARK    4  A    between atoms: C_4  and  N_5
REMARK    5  A    between atoms: N_5  and  S_6
REMARK    6  A    between atoms: S_6  and  C_9
REMARK    7  A    between atoms: N_16  and  N_17
REMARK    8  A    between atoms: N_17  and  C_18
REMARK    9  A    between atoms: C_23  and  N_24
REMARK                            x       y       z     vdW  Elec       q    Type
REMARK                         _______ _______ _______ _____ _____    ______ ____
ROOT
ATOM      1  C   UNL     1       5.503   5.050  17.387  0.00  0.00    +0.000 A 
ATOM      2  C   UNL     1       5.409   3.675  17.706  0.00  0.00    +0.000 A 
ATOM      3  C   UNL     1       4.385   3.199  18.534  0.00  0.00    +0.000 A 
ATOM      4  C   UNL     1       3.504   4.126  19.048  0.00  0.00    +0.000 A 
ATOM      5  C   UNL     1       3.636   5.488  18.771  0.00  0.00    +0.000 A 
ATOM      6  C   UNL     1       4.620   5.987  17.940  0.00  0.00    +0.000 A 
ATOM      7  C   UNL     1       2.587   6.167  19.533  0.00  0.00    +0.000 C 
ATOM      8  N   UNL     1       2.424   7.448  19.587  0.00  0.00    +0.000 NA
ATOM      9  C   UNL     1       1.786   5.061  20.225  0.00  0.00    +0.000 C 
ATOM     10  O   UNL     1       0.798   5.215  20.908  0.00  0.00    +0.000 OA
ATOM     11  N   UNL     1       2.419   3.880  19.880  0.00  0.00    +0.000 N 
ATOM     12  H   UNL     1       2.104   2.978  20.207  0.00  0.00    +0.000 HD
ENDROOT
BRANCH   1  13
ATOM     13  S   UNL     1       6.816   5.621  16.322  0.00  0.00    +0.000 S 
ATOM     14  O   UNL     1       7.868   4.627  16.338  0.00  0.00    +0.000 OA
ATOM     15  O   UNL     1       7.057   6.997  16.692  0.00  0.00    +0.000 OA
BRANCH  13  16
ATOM     16  N   UNL     1       6.109   5.620  14.788  0.00  0.00    +0.000 NA
ATOM     17  H   UNL     1       5.282   6.218  14.748  0.00  0.00    +0.000 HD
BRANCH  16  18
ATOM     18  C   UNL     1       5.834   4.312  14.136  0.00  0.00    +0.000 C 
BRANCH  18  19
ATOM     19  C   UNL     1       6.785   4.019  12.977  0.00  0.00    +0.000 C 
BRANCH  19  21
ATOM     20  C   UNL     1       4.789   3.338  11.917  0.00  0.00    +0.000 C 
ATOM     21  O   UNL     1       6.169   3.060  12.111  0.00  0.00    +0.000 OA
ENDBRANCH  19  21
ENDBRANCH  18  19
ENDBRANCH  16  18
ENDBRANCH  13  16
ENDBRANCH   1  13
BRANCH   8  22
ATOM     22  N   UNL     1       1.420   7.917  20.376  0.00  0.00    +0.000 N 
ATOM     23  H   UNL     1       0.723   7.273  20.789  0.00  0.00    +0.000 HD
BRANCH  22  24
ATOM     24  C   UNL     1       0.993   9.246  20.158  0.00  0.00    +0.000 A 
ATOM     25  C   UNL     1       1.343   9.886  18.952  0.00  0.00    +0.000 A 
ATOM     26  C   UNL     1       0.892  11.171  18.636  0.00  0.00    +0.000 A 
ATOM     27  C   UNL     1       0.075  11.858  19.523  0.00  0.00    +0.000 A 
ATOM     28  C   UNL     1      -0.265  11.272  20.742  0.00  0.00    +0.000 A 
ATOM     29  C   UNL     1       0.202   9.980  21.066  0.00  0.00    +0.000 A 
BRANCH  29  30
ATOM     30  N   UNL     1      -0.187   9.431  22.373  0.00  0.00    +0.000 N 
ATOM     31  O   UNL     1      -0.783   8.345  22.400  0.00  0.00    +0.000 OA
ATOM     32  O   UNL     1       0.114  10.081  23.386  0.00  0.00    +0.000 OA
ENDBRANCH  29  30
ENDBRANCH  22  24
ENDBRANCH   8  22
TORSDOF 8
ENDMDL
MODEL 9
REMARK VINA RESULT:      -7.6      2.223      3.179
REMARK  Name = 
REMARK  9 active torsions:
REMARK  status: ('A' for Active; 'I' for Inactive)
REMARK    1  A    between atoms: C_1  and  O_2
REMARK    2  A    between atoms: O_2  and  C_3
REMARK    3  A    between atoms: C_3  and  C_4
REMARK    4  A    between atoms: C_4  and  N_5
REMARK    5  A    between atoms: N_5  and  S_6
REMARK    6  A    between atoms: S_6  and  C_9
REMARK    7  A    between atoms: N_16  and  N_17
REMARK    8  A    between atoms: N_17  and  C_18
REMARK    9  A    between atoms: C_23  and  N_24
REMARK                            x       y       z     vdW  Elec       q    Type
REMARK                         _______ _______ _______ _____ _____    ______ ____
ROOT
ATOM      1  C   UNL     1       1.855   8.245  18.964  0.00  0.00    +0.000 A 
ATOM      2  C   UNL     1       1.473   7.788  20.247  0.00  0.00    +0.000 A 
ATOM      3  C   UNL     1       1.901   6.543  20.722  0.00  0.00    +0.000 A 
ATOM      4  C   UNL     1       2.675   5.775  19.878  0.00  0.00    +0.000 A 
ATOM      5  C   UNL     1       3.003   6.211  18.593  0.00  0.00    +0.000 A 
ATOM      6  C   UNL     1       2.616   7.443  18.103  0.00  0.00    +0.000 A 
ATOM      7  C   UNL     1       3.760   5.124  17.969  0.00  0.00    +0.000 C 
ATOM      8  N   UNL     1       4.185   5.125  16.749  0.00  0.00    +0.000 NA
ATOM      9  C   UNL     1       3.900   4.040  19.042  0.00  0.00    +0.000 C 
ATOM     10  O   UNL     1       4.510   3.000  18.930  0.00  0.00    +0.000 OA
ATOM     11  N   UNL     1       3.211   4.521  20.141  0.00  0.00    +0.000 N 
ATOM     12  H   UNL     1       3.131   4.002  21.003  0.00  0.00    +0.000 HD
ENDROOT
BRANCH   1  13
ATOM     13  S   UNL     1       1.296   9.841  18.393  0.00  0.00    +0.000 S 
ATOM     14  O   UNL     1      -0.013   9.670  17.800  0.00  0.00    +0.000 OA
ATOM     15  O   UNL     1       2.403  10.408  17.658  0.00  0.00    +0.000 OA
BRANCH  13  16
ATOM     16  N   UNL     1       1.120  10.731  19.818  0.00  0.00    +0.000 NA
ATOM     17  H   UNL     1       1.725  10.382  20.564  0.00  0.00    +0.000 HD
BRANCH  16  18
ATOM     18  C   UNL     1      -0.254  10.973  20.336  0.00  0.00    +0.000 C 
BRANCH  18  19
ATOM     19  C   UNL     1      -0.388  12.317  21.047  0.00  0.00    +0.000 C 
BRANCH  19  21
ATOM     20  C   UNL     1      -1.071  11.042  22.912  0.00  0.00    +0.000 C 
ATOM     21  O   UNL     1      -0.247  12.106  22.456  0.00  0.00    +0.000 OA
ENDBRANCH  19  21
ENDBRANCH  18  19
ENDBRANCH  16  18
ENDBRANCH  13  16
ENDBRANCH   1  13
BRANCH   8  22
ATOM     22  N   UNL     1       4.840   4.014  16.316  0.00  0.00    +0.000 N 
ATOM     23  H   UNL     1       5.091   3.255  16.972  0.00  0.00    +0.000 HD
BRANCH  22  24
ATOM     24  C   UNL     1       5.658   4.150  15.172  0.00  0.00    +0.000 A 
ATOM     25  C   UNL     1       5.224   3.590  13.953  0.00  0.00    +0.000 A 
ATOM     26  C   UNL     1       5.942   3.751  12.765  0.00  0.00    +0.000 A 
ATOM     27  C   UNL     1       7.124   4.479  12.762  0.00  0.00    +0.000 A 
ATOM     28  C   UNL     1       7.604   5.019  13.954  0.00  0.00    +0.000 A 
ATOM     29  C   UNL     1       6.884   4.844  15.156  0.00  0.00    +0.000 A 
BRANCH  29  30
ATOM     30  N   UNL     1       7.456   5.431  16.376  0.00  0.00    +0.000 N 
ATOM     31  O   UNL     1       7.808   4.669  17.287  0.00  0.00    +0.000 OA
ATOM     32  O   UNL     1       7.568   6.666  16.426  0.00  0.00    +0.000 OA
ENDBRANCH  29  30
ENDBRANCH  22  24
ENDBRANCH   8  22
TORSDOF 8
ENDMDL
