MODEL 1
REMARK VINA RESULT:      -7.5      0.000      0.000
REMARK  Name = 
REMARK  9 active torsions:
REMARK  status: ('A' for Active; 'I' for Inactive)
REMARK    1  A    between atoms: C_1  and  C_2
REMARK    2  A    between atoms: C_2  and  C_3
REMARK    3  A    between atoms: C_2  and  C_4
REMARK    4  A    between atoms: C_2  and  C_8
REMARK    5  A    between atoms: C_4  and  C_5
REMARK    6  A    between atoms: C_5  and  O_7
REMARK    7  A    between atoms: C_8  and  C_9
REMARK    8  A    between atoms: N_18  and  C_19
REMARK    9  A    between atoms: C_19  and  C_20
REMARK                            x       y       z     vdW  Elec       q    Type
REMARK                         _______ _______ _______ _____ _____    ______ ____
ROOT
ATOM      1  C   UNL     1       3.976   3.514  18.132  0.00  0.00    +0.000 A 
ATOM      2  N   UNL     1       4.429   2.930  17.032  0.00  0.00    +0.000 NA
ATOM      3  C   UNL     1       5.204   3.867  16.396  0.00  0.00    +0.000 A 
ATOM      4  C   UNL     1       5.921   3.814  15.197  0.00  0.00    +0.000 A 
ATOM      5  C   UNL     1       6.638   4.956  14.841  0.00  0.00    +0.000 A 
ATOM      6 CL   UNL     1       7.547   4.988  13.382  0.00  0.00    +0.000 Cl
ATOM      7  C   UNL     1       6.617   6.069  15.678  0.00  0.00    +0.000 A 
ATOM      8  N   UNL     1       5.926   6.171  16.842  0.00  0.00    +0.000 NA
ATOM      9  C   UNL     1       5.240   5.045  17.129  0.00  0.00    +0.000 A 
ATOM     10  N   UNL     1       4.421   4.823  18.207  0.00  0.00    +0.000 N 
ENDROOT
BRANCH   1  11
ATOM     11  C   UNL     1       2.999   2.876  19.078  0.00  0.00    +0.000 C 
BRANCH  11  13
ATOM     12  C   UNL     1       0.620   1.973  18.580  0.00  0.00    +0.000 C 
ATOM     13  C   UNL     1       1.485   3.209  18.886  0.00  0.00    +0.000 C 
ATOM     14  C   UNL     1       1.281   4.194  17.711  0.00  0.00    +0.000 C 
BRANCH  13  15
ATOM     15  C   UNL     1       0.953   3.910  20.174  0.00  0.00    +0.000 C 
BRANCH  15  16
ATOM     16  C   UNL     1       1.691   3.590  21.462  0.00  0.00    +0.000 C 
ATOM     17  O   UNL     1       2.581   4.255  21.970  0.00  0.00    +0.000 OA
BRANCH  16  18
ATOM     18  O   UNL     1       1.255   2.444  22.036  0.00  0.00    +0.000 OA
ATOM     19  H   UNL     1       1.374   1.648  21.483  0.00  0.00    +0.000 HD
ENDBRANCH  16  18
ENDBRANCH  15  16
ENDBRANCH  13  15
ENDBRANCH  11  13
ENDBRANCH   1  11
BRANCH  10  20
ATOM     20  C   UNL     1       4.246   5.776  19.290  0.00  0.00    +0.000 C 
BRANCH  20  21
ATOM     21  C   UNL     1       3.166   6.811  19.080  0.00  0.00    +0.000 A 
ATOM     22  C   UNL     1       2.330   7.166  20.152  0.00  0.00    +0.000 A 
ATOM     23  C   UNL     1       1.447   8.244  20.045  0.00  0.00    +0.000 A 
ATOM     24  C   UNL     1       1.387   8.973  18.862  0.00  0.00    +0.000 A 
ATOM     25 CL   UNL     1       0.349  10.342  18.753  0.00  0.00    +0.000 Cl
ATOM     26  C   UNL     1       2.183   8.617  17.777  0.00  0.00    +0.000 A 
ATOM     27  C   UNL     1       3.069   7.539  17.884  0.00  0.00    +0.000 A 
ENDBRANCH  20  21
ENDBRANCH  10  20
TORSDOF 7
ENDMDL
MODEL 2
REMARK VINA RESULT:      -7.2      0.801      1.570
REMARK  Name = 
REMARK  9 active torsions:
REMARK  status: ('A' for Active; 'I' for Inactive)
REMARK    1  A    between atoms: C_1  and  C_2
REMARK    2  A    between atoms: C_2  and  C_3
REMARK    3  A    between atoms: C_2  and  C_4
REMARK    4  A    between atoms: C_2  and  C_8
REMARK    5  A    between atoms: C_4  and  C_5
REMARK    6  A    between atoms: C_5  and  O_7
REMARK    7  A    between atoms: C_8  and  C_9
REMARK    8  A    between atoms: N_18  and  C_19
REMARK    9  A    between atoms: C_19  and  C_20
REMARK                            x       y       z     vdW  Elec       q    Type
REMARK                         _______ _______ _______ _____ _____    ______ ____
ROOT
ATOM      1  C   UNL     1       2.891   4.459  17.598  0.00  0.00    +0.000 A 
ATOM      2  N   UNL     1       3.352   3.875  16.502  0.00  0.00    +0.000 NA
ATOM      3  C   UNL     1       4.535   4.504  16.204  0.00  0.00    +0.000 A 
ATOM      4  C   UNL     1       5.446   4.314  15.161  0.00  0.00    +0.000 A 
ATOM      5  C   UNL     1       6.583   5.122  15.163  0.00  0.00    +0.000 A 
ATOM      6 CL   UNL     1       7.760   4.964  13.919  0.00  0.00    +0.000 Cl
ATOM      7  C   UNL     1       6.761   6.054  16.182  0.00  0.00    +0.000 A 
ATOM      8  N   UNL     1       5.899   6.284  17.205  0.00  0.00    +0.000 NA
ATOM      9  C   UNL     1       4.812   5.486  17.145  0.00  0.00    +0.000 A 
ATOM     10  N   UNL     1       3.740   5.478  18.000  0.00  0.00    +0.000 N 
ENDROOT
BRANCH   1  11
ATOM     11  C   UNL     1       1.559   4.147  18.217  0.00  0.00    +0.000 C 
BRANCH  11  13
ATOM     12  C   UNL     1       2.801   2.131  19.275  0.00  0.00    +0.000 C 
ATOM     13  C   UNL     1       1.471   2.895  19.147  0.00  0.00    +0.000 C 
ATOM     14  C   UNL     1       0.428   1.884  18.615  0.00  0.00    +0.000 C 
BRANCH  13  15
ATOM     15  C   UNL     1       0.993   3.348  20.562  0.00  0.00    +0.000 C 
BRANCH  15  16
ATOM     16  C   UNL     1       2.077   3.502  21.615  0.00  0.00    +0.000 C 
ATOM     17  O   UNL     1       2.513   2.620  22.338  0.00  0.00    +0.000 OA
BRANCH  16  18
ATOM     18  O   UNL     1       2.550   4.768  21.688  0.00  0.00    +0.000 OA
ATOM     19  H   UNL     1       2.070   5.409  21.129  0.00  0.00    +0.000 HD
ENDBRANCH  16  18
ENDBRANCH  15  16
ENDBRANCH  13  15
ENDBRANCH  11  13
ENDBRANCH   1  11
BRANCH  10  20
ATOM     20  C   UNL     1       3.664   6.295  19.199  0.00  0.00    +0.000 C 
BRANCH  20  21
ATOM     21  C   UNL     1       2.752   7.496  19.113  0.00  0.00    +0.000 A 
ATOM     22  C   UNL     1       2.621   8.179  17.892  0.00  0.00    +0.000 A 
ATOM     23  C   UNL     1       1.654   9.175  17.728  0.00  0.00    +0.000 A 
ATOM     24  C   UNL     1       0.813   9.501  18.786  0.00  0.00    +0.000 A 
ATOM     25 CL   UNL     1      -0.422  10.680  18.565  0.00  0.00    +0.000 Cl
ATOM     26  C   UNL     1       0.948   8.860  20.015  0.00  0.00    +0.000 A 
ATOM     27  C   UNL     1       1.915   7.861  20.178  0.00  0.00    +0.000 A 
ENDBRANCH  20  21
ENDBRANCH  10  20
TORSDOF 7
ENDMDL
MODEL 3
REMARK VINA RESULT:      -7.2      1.365      1.833
REMARK  Name = 
REMARK  9 active torsions:
REMARK  status: ('A' for Active; 'I' for Inactive)
REMARK    1  A    between atoms: C_1  and  C_2
REMARK    2  A    between atoms: C_2  and  C_3
REMARK    3  A    between atoms: C_2  and  C_4
REMARK    4  A    between atoms: C_2  and  C_8
REMARK    5  A    between atoms: C_4  and  C_5
REMARK    6  A    between atoms: C_5  and  O_7
REMARK    7  A    between atoms: C_8  and  C_9
REMARK    8  A    between atoms: N_18  and  C_19
REMARK    9  A    between atoms: C_19  and  C_20
REMARK                            x       y       z     vdW  Elec       q    Type
REMARK                         _______ _______ _______ _____ _____    ______ ____
ROOT
ATOM      1  C   UNL     1       3.058   4.454  17.781  0.00  0.00    +0.000 A 
ATOM      2  N   UNL     1       3.493   3.782  16.725  0.00  0.00    +0.000 NA
ATOM      3  C   UNL     1       4.574   4.481  16.249  0.00  0.00    +0.000 A 
ATOM      4  C   UNL     1       5.417   4.249  15.157  0.00  0.00    +0.000 A 
ATOM      5  C   UNL     1       6.457   5.158  14.961  0.00  0.00    +0.000 A 
ATOM      6 CL   UNL     1       7.543   4.959  13.644  0.00  0.00    +0.000 Cl
ATOM      7  C   UNL     1       6.611   6.225  15.843  0.00  0.00    +0.000 A 
ATOM      8  N   UNL     1       5.812   6.498  16.904  0.00  0.00    +0.000 NA
ATOM      9  C   UNL     1       4.816   5.596  17.038  0.00  0.00    +0.000 A 
ATOM     10  N   UNL     1       3.820   5.593  17.981  0.00  0.00    +0.000 N 
ENDROOT
BRANCH   1  11
ATOM     11  C   UNL     1       1.819   4.094  18.551  0.00  0.00    +0.000 C 
BRANCH  11  13
ATOM     12  C   UNL     1       0.676   2.582  20.321  0.00  0.00    +0.000 C 
ATOM     13  C   UNL     1       1.992   3.207  19.824  0.00  0.00    +0.000 C 
ATOM     14  C   UNL     1       2.561   4.034  21.001  0.00  0.00    +0.000 C 
BRANCH  13  15
ATOM     15  C   UNL     1       3.021   2.074  19.517  0.00  0.00    +0.000 C 
BRANCH  15  16
ATOM     16  C   UNL     1       4.396   2.234  20.143  0.00  0.00    +0.000 C 
ATOM     17  O   UNL     1       4.742   1.827  21.242  0.00  0.00    +0.000 OA
BRANCH  16  18
ATOM     18  O   UNL     1       5.257   2.899  19.337  0.00  0.00    +0.000 OA
ATOM     19  H   UNL     1       5.717   3.643  19.770  0.00  0.00    +0.000 HD
ENDBRANCH  16  18
ENDBRANCH  15  16
ENDBRANCH  13  15
ENDBRANCH  11  13
ENDBRANCH   1  11
BRANCH  10  20
ATOM     20  C   UNL     1       3.749   6.545  19.076  0.00  0.00    +0.000 C 
BRANCH  20  21
ATOM     21  C   UNL     1       2.628   7.553  18.993  0.00  0.00    +0.000 A 
ATOM     22  C   UNL     1       1.881   7.854  20.144  0.00  0.00    +0.000 A 
ATOM     23  C   UNL     1       0.964   8.909  20.148  0.00  0.00    +0.000 A 
ATOM     24  C   UNL     1       0.780   9.668  18.997  0.00  0.00    +0.000 A 
ATOM     25 CL   UNL     1      -0.300  11.008  19.020  0.00  0.00    +0.000 Cl
ATOM     26  C   UNL     1       1.485   9.364  17.835  0.00  0.00    +0.000 A 
ATOM     27  C   UNL     1       2.406   8.310  17.832  0.00  0.00    +0.000 A 
ENDBRANCH  20  21
ENDBRANCH  10  20
TORSDOF 7
ENDMDL
MODEL 4
REMARK VINA RESULT:      -7.2      0.841      1.164
REMARK  Name = 
REMARK  9 active torsions:
REMARK  status: ('A' for Active; 'I' for Inactive)
REMARK    1  A    between atoms: C_1  and  C_2
REMARK    2  A    between atoms: C_2  and  C_3
REMARK    3  A    between atoms: C_2  and  C_4
REMARK    4  A    between atoms: C_2  and  C_8
REMARK    5  A    between atoms: C_4  and  C_5
REMARK    6  A    between atoms: C_5  and  O_7
REMARK    7  A    between atoms: C_8  and  C_9
REMARK    8  A    between atoms: N_18  and  C_19
REMARK    9  A    between atoms: C_19  and  C_20
REMARK                            x       y       z     vdW  Elec       q    Type
REMARK                         _______ _______ _______ _____ _____    ______ ____
ROOT
ATOM      1  C   UNL     1       2.862   4.434  17.681  0.00  0.00    +0.000 A 
ATOM      2  N   UNL     1       3.349   3.821  16.612  0.00  0.00    +0.000 NA
ATOM      3  C   UNL     1       4.500   4.491  16.282  0.00  0.00    +0.000 A 
ATOM      4  C   UNL     1       5.419   4.295  15.245  0.00  0.00    +0.000 A 
ATOM      5  C   UNL     1       6.517   5.155  15.207  0.00  0.00    +0.000 A 
ATOM      6 CL   UNL     1       7.698   4.995  13.968  0.00  0.00    +0.000 Cl
ATOM      7  C   UNL     1       6.652   6.141  16.182  0.00  0.00    +0.000 A 
ATOM      8  N   UNL     1       5.781   6.377  17.195  0.00  0.00    +0.000 NA
ATOM      9  C   UNL     1       4.732   5.527  17.176  0.00  0.00    +0.000 A 
ATOM     10  N   UNL     1       3.662   5.508  18.033  0.00  0.00    +0.000 N 
ENDROOT
BRANCH   1  11
ATOM     11  C   UNL     1       1.546   4.089  18.318  0.00  0.00    +0.000 C 
BRANCH  11  13
ATOM     12  C   UNL     1       2.804   2.001  19.203  0.00  0.00    +0.000 C 
ATOM     13  C   UNL     1       1.468   2.762  19.139  0.00  0.00    +0.000 C 
ATOM     14  C   UNL     1       0.433   1.791  18.523  0.00  0.00    +0.000 C 
BRANCH  13  15
ATOM     15  C   UNL     1       0.986   3.090  20.587  0.00  0.00    +0.000 C 
BRANCH  15  16
ATOM     16  C   UNL     1       2.059   3.550  21.559  0.00  0.00    +0.000 C 
ATOM     17  O   UNL     1       2.489   4.687  21.676  0.00  0.00    +0.000 OA
BRANCH  16  18
ATOM     18  O   UNL     1       2.523   2.540  22.331  0.00  0.00    +0.000 OA
ATOM     19  H   UNL     1       2.371   2.664  23.288  0.00  0.00    +0.000 HD
ENDBRANCH  16  18
ENDBRANCH  15  16
ENDBRANCH  13  15
ENDBRANCH  11  13
ENDBRANCH   1  11
BRANCH  10  20
ATOM     20  C   UNL     1       3.549   6.376  19.193  0.00  0.00    +0.000 C 
BRANCH  20  21
ATOM     21  C   UNL     1       2.508   7.465  19.094  0.00  0.00    +0.000 A 
ATOM     22  C   UNL     1       1.813   7.865  20.248  0.00  0.00    +0.000 A 
ATOM     23  C   UNL     1       0.980   8.987  20.230  0.00  0.00    +0.000 A 
ATOM     24  C   UNL     1       0.829   9.716  19.055  0.00  0.00    +0.000 A 
ATOM     25 CL   UNL     1      -0.144  11.137  19.049  0.00  0.00    +0.000 Cl
ATOM     26  C   UNL     1       1.482   9.317  17.892  0.00  0.00    +0.000 A 
ATOM     27  C   UNL     1       2.318   8.195  17.910  0.00  0.00    +0.000 A 
ENDBRANCH  20  21
ENDBRANCH  10  20
TORSDOF 7
ENDMDL
MODEL 5
REMARK VINA RESULT:      -7.1      0.219      1.152
REMARK  Name = 
REMARK  9 active torsions:
REMARK  status: ('A' for Active; 'I' for Inactive)
REMARK    1  A    between atoms: C_1  and  C_2
REMARK    2  A    between atoms: C_2  and  C_3
REMARK    3  A    between atoms: C_2  and  C_4
REMARK    4  A    between atoms: C_2  and  C_8
REMARK    5  A    between atoms: C_4  and  C_5
REMARK    6  A    between atoms: C_5  and  O_7
REMARK    7  A    between atoms: C_8  and  C_9
REMARK    8  A    between atoms: N_18  and  C_19
REMARK    9  A    between atoms: C_19  and  C_20
REMARK                            x       y       z     vdW  Elec       q    Type
REMARK                         _______ _______ _______ _____ _____    ______ ____
ROOT
ATOM      1  C   UNL     1       3.994   3.507  18.129  0.00  0.00    +0.000 A 
ATOM      2  N   UNL     1       4.408   2.937  17.007  0.00  0.00    +0.000 NA
ATOM      3  C   UNL     1       5.216   3.858  16.389  0.00  0.00    +0.000 A 
ATOM      4  C   UNL     1       5.917   3.809  15.179  0.00  0.00    +0.000 A 
ATOM      5  C   UNL     1       6.680   4.928  14.848  0.00  0.00    +0.000 A 
ATOM      6 CL   UNL     1       7.573   4.964  13.380  0.00  0.00    +0.000 Cl
ATOM      7  C   UNL     1       6.716   6.016  15.718  0.00  0.00    +0.000 A 
ATOM      8  N   UNL     1       6.044   6.114  16.892  0.00  0.00    +0.000 NA
ATOM      9  C   UNL     1       5.312   5.011  17.155  0.00  0.00    +0.000 A 
ATOM     10  N   UNL     1       4.496   4.793  18.236  0.00  0.00    +0.000 N 
ENDROOT
BRANCH   1  11
ATOM     11  C   UNL     1       3.000   2.884  19.068  0.00  0.00    +0.000 C 
BRANCH  11  13
ATOM     12  C   UNL     1       0.586   2.086  18.558  0.00  0.00    +0.000 C 
ATOM     13  C   UNL     1       1.499   3.279  18.896  0.00  0.00    +0.000 C 
ATOM     14  C   UNL     1       1.325   4.307  17.753  0.00  0.00    +0.000 C 
BRANCH  13  15
ATOM     15  C   UNL     1       1.000   3.959  20.209  0.00  0.00    +0.000 C 
BRANCH  15  16
ATOM     16  C   UNL     1       1.685   3.520  21.490  0.00  0.00    +0.000 C 
ATOM     17  O   UNL     1       1.482   2.480  22.099  0.00  0.00    +0.000 OA
BRANCH  16  18
ATOM     18  O   UNL     1       2.594   4.423  21.926  0.00  0.00    +0.000 OA
ATOM     19  H   UNL     1       2.431   4.751  22.832  0.00  0.00    +0.000 HD
ENDBRANCH  16  18
ENDBRANCH  15  16
ENDBRANCH  13  15
ENDBRANCH  11  13
ENDBRANCH   1  11
BRANCH  10  20
ATOM     20  C   UNL     1       4.374   5.720  19.348  0.00  0.00    +0.000 C 
BRANCH  20  21
ATOM     21  C   UNL     1       3.415   6.867  19.139  0.00  0.00    +0.000 A 
ATOM     22  C   UNL     1       3.360   7.504  17.887  0.00  0.00    +0.000 A 
ATOM     23  C   UNL     1       2.363   8.440  17.602  0.00  0.00    +0.000 A 
ATOM     24  C   UNL     1       1.415   8.756  18.571  0.00  0.00    +0.000 A 
ATOM     25 CL   UNL     1       0.147   9.859  18.199  0.00  0.00    +0.000 Cl
ATOM     26  C   UNL     1       1.472   8.162  19.829  0.00  0.00    +0.000 A 
ATOM     27  C   UNL     1       2.469   7.222  20.113  0.00  0.00    +0.000 A 
ENDBRANCH  20  21
ENDBRANCH  10  20
TORSDOF 7
ENDMDL
MODEL 6
REMARK VINA RESULT:      -7.0      1.169      1.877
REMARK  Name = 
REMARK  9 active torsions:
REMARK  status: ('A' for Active; 'I' for Inactive)
REMARK    1  A    between atoms: C_1  and  C_2
REMARK    2  A    between atoms: C_2  and  C_3
REMARK    3  A    between atoms: C_2  and  C_4
REMARK    4  A    between atoms: C_2  and  C_8
REMARK    5  A    between atoms: C_4  and  C_5
REMARK    6  A    between atoms: C_5  and  O_7
REMARK    7  A    between atoms: C_8  and  C_9
REMARK    8  A    between atoms: N_18  and  C_19
REMARK    9  A    between atoms: C_19  and  C_20
REMARK                            x       y       z     vdW  Elec       q    Type
REMARK                         _______ _______ _______ _____ _____    ______ ____
ROOT
ATOM      1  C   UNL     1       2.984   4.339  17.515  0.00  0.00    +0.000 A 
ATOM      2  N   UNL     1       3.447   3.802  16.396  0.00  0.00    +0.000 NA
ATOM      3  C   UNL     1       4.620   4.457  16.118  0.00  0.00    +0.000 A 
ATOM      4  C   UNL     1       5.530   4.317  15.064  0.00  0.00    +0.000 A 
ATOM      5  C   UNL     1       6.657   5.138  15.093  0.00  0.00    +0.000 A 
ATOM      6 CL   UNL     1       7.830   5.042  13.839  0.00  0.00    +0.000 Cl
ATOM      7  C   UNL     1       6.828   6.034  16.146  0.00  0.00    +0.000 A 
ATOM      8  N   UNL     1       5.968   6.214  17.179  0.00  0.00    +0.000 NA
ATOM      9  C   UNL     1       4.890   5.405  17.094  0.00  0.00    +0.000 A 
ATOM     10  N   UNL     1       3.821   5.352  17.952  0.00  0.00    +0.000 N 
ENDROOT
BRANCH   1  11
ATOM     11  C   UNL     1       1.658   3.987  18.127  0.00  0.00    +0.000 C 
BRANCH  11  13
ATOM     12  C   UNL     1       0.417   2.003  19.243  0.00  0.00    +0.000 C 
ATOM     13  C   UNL     1       1.650   2.924  19.271  0.00  0.00    +0.000 C 
ATOM     14  C   UNL     1       1.662   3.606  20.659  0.00  0.00    +0.000 C 
BRANCH  13  15
ATOM     15  C   UNL     1       2.946   2.061  19.170  0.00  0.00    +0.000 C 
BRANCH  15  16
ATOM     16  C   UNL     1       4.004   2.319  20.228  0.00  0.00    +0.000 C 
ATOM     17  O   UNL     1       3.903   2.084  21.423  0.00  0.00    +0.000 OA
BRANCH  16  18
ATOM     18  O   UNL     1       5.132   2.857  19.711  0.00  0.00    +0.000 OA
ATOM     19  H   UNL     1       5.707   2.218  19.248  0.00  0.00    +0.000 HD
ENDBRANCH  16  18
ENDBRANCH  15  16
ENDBRANCH  13  15
ENDBRANCH  11  13
ENDBRANCH   1  11
BRANCH  10  20
ATOM     20  C   UNL     1       3.741   6.123  19.181  0.00  0.00    +0.000 C 
BRANCH  20  21
ATOM     21  C   UNL     1       2.852   7.343  19.128  0.00  0.00    +0.000 A 
ATOM     22  C   UNL     1       2.759   8.080  17.935  0.00  0.00    +0.000 A 
ATOM     23  C   UNL     1       1.814   9.100  17.795  0.00  0.00    +0.000 A 
ATOM     24  C   UNL     1       0.956   9.397  18.849  0.00  0.00    +0.000 A 
ATOM     25 CL   UNL     1      -0.252  10.606  18.654  0.00  0.00    +0.000 Cl
ATOM     26  C   UNL     1       1.055   8.701  20.052  0.00  0.00    +0.000 A 
ATOM     27  C   UNL     1       2.000   7.678  20.192  0.00  0.00    +0.000 A 
ENDBRANCH  20  21
ENDBRANCH  10  20
TORSDOF 7
ENDMDL
MODEL 7
REMARK VINA RESULT:      -7.0      2.359      5.889
REMARK  Name = 
REMARK  9 active torsions:
REMARK  status: ('A' for Active; 'I' for Inactive)
REMARK    1  A    between atoms: C_1  and  C_2
REMARK    2  A    between atoms: C_2  and  C_3
REMARK    3  A    between atoms: C_2  and  C_4
REMARK    4  A    between atoms: C_2  and  C_8
REMARK    5  A    between atoms: C_4  and  C_5
REMARK    6  A    between atoms: C_5  and  O_7
REMARK    7  A    between atoms: C_8  and  C_9
REMARK    8  A    between atoms: N_18  and  C_19
REMARK    9  A    between atoms: C_19  and  C_20
REMARK                            x       y       z     vdW  Elec       q    Type
REMARK                         _______ _______ _______ _____ _____    ______ ____
ROOT
ATOM      1  C   UNL     1       2.340   6.490  19.719  0.00  0.00    +0.000 A 
ATOM      2  N   UNL     1       1.710   7.028  20.753  0.00  0.00    +0.000 NA
ATOM      3  C   UNL     1       1.415   8.317  20.389  0.00  0.00    +0.000 A 
ATOM      4  C   UNL     1       0.770   9.349  21.079  0.00  0.00    +0.000 A 
ATOM      5  C   UNL     1       0.606  10.555  20.399  0.00  0.00    +0.000 A 
ATOM      6 CL   UNL     1      -0.171  11.883  21.166  0.00  0.00    +0.000 Cl
ATOM      7  C   UNL     1       1.073  10.676  19.092  0.00  0.00    +0.000 A 
ATOM      8  N   UNL     1       1.716   9.710  18.389  0.00  0.00    +0.000 NA
ATOM      9  C   UNL     1       1.860   8.571  19.099  0.00  0.00    +0.000 A 
ATOM     10  N   UNL     1       2.484   7.417  18.701  0.00  0.00    +0.000 N 
ENDROOT
BRANCH   1  11
ATOM     11  C   UNL     1       2.937   5.111  19.727  0.00  0.00    +0.000 C 
BRANCH  11  13
ATOM     12  C   UNL     1       1.340   4.188  17.905  0.00  0.00    +0.000 C 
ATOM     13  C   UNL     1       2.032   3.929  19.256  0.00  0.00    +0.000 C 
ATOM     14  C   UNL     1       0.910   3.649  20.282  0.00  0.00    +0.000 C 
BRANCH  13  15
ATOM     15  C   UNL     1       2.899   2.635  19.156  0.00  0.00    +0.000 C 
BRANCH  15  16
ATOM     16  C   UNL     1       3.928   2.435  20.255  0.00  0.00    +0.000 C 
ATOM     17  O   UNL     1       3.694   2.266  21.443  0.00  0.00    +0.000 OA
BRANCH  16  18
ATOM     18  O   UNL     1       5.197   2.457  19.786  0.00  0.00    +0.000 OA
ATOM     19  H   UNL     1       5.546   3.353  19.614  0.00  0.00    +0.000 HD
ENDBRANCH  16  18
ENDBRANCH  15  16
ENDBRANCH  13  15
ENDBRANCH  11  13
ENDBRANCH   1  11
BRANCH  10  20
ATOM     20  C   UNL     1       3.018   7.214  17.365  0.00  0.00    +0.000 C 
BRANCH  20  21
ATOM     21  C   UNL     1       4.356   6.517  17.296  0.00  0.00    +0.000 A 
ATOM     22  C   UNL     1       5.487   7.132  17.859  0.00  0.00    +0.000 A 
ATOM     23  C   UNL     1       6.696   6.440  17.977  0.00  0.00    +0.000 A 
ATOM     24  C   UNL     1       6.787   5.127  17.525  0.00  0.00    +0.000 A 
ATOM     25 CL   UNL     1       8.255   4.252  17.729  0.00  0.00    +0.000 Cl
ATOM     26  C   UNL     1       5.687   4.511  16.933  0.00  0.00    +0.000 A 
ATOM     27  C   UNL     1       4.476   5.203  16.818  0.00  0.00    +0.000 A 
ENDBRANCH  20  21
ENDBRANCH  10  20
TORSDOF 7
ENDMDL
MODEL 8
REMARK VINA RESULT:      -6.7      2.423      6.104
REMARK  Name = 
REMARK  9 active torsions:
REMARK  status: ('A' for Active; 'I' for Inactive)
REMARK    1  A    between atoms: C_1  and  C_2
REMARK    2  A    between atoms: C_2  and  C_3
REMARK    3  A    between atoms: C_2  and  C_4
REMARK    4  A    between atoms: C_2  and  C_8
REMARK    5  A    between atoms: C_4  and  C_5
REMARK    6  A    between atoms: C_5  and  O_7
REMARK    7  A    between atoms: C_8  and  C_9
REMARK    8  A    between atoms: N_18  and  C_19
REMARK    9  A    between atoms: C_19  and  C_20
REMARK                            x       y       z     vdW  Elec       q    Type
REMARK                         _______ _______ _______ _____ _____    ______ ____
ROOT
ATOM      1  C   UNL     1       2.345   6.314  20.216  0.00  0.00    +0.000 A 
ATOM      2  N   UNL     1       1.859   6.775  21.359  0.00  0.00    +0.000 NA
ATOM      3  C   UNL     1       1.350   8.019  21.081  0.00  0.00    +0.000 A 
ATOM      4  C   UNL     1       0.727   8.966  21.900  0.00  0.00    +0.000 A 
ATOM      5  C   UNL     1       0.298  10.143  21.286  0.00  0.00    +0.000 A 
ATOM      6 CL   UNL     1      -0.475  11.370  22.211  0.00  0.00    +0.000 Cl
ATOM      7  C   UNL     1       0.497  10.317  19.918  0.00  0.00    +0.000 A 
ATOM      8  N   UNL     1       1.108   9.433  19.089  0.00  0.00    +0.000 NA
ATOM      9  C   UNL     1       1.514   8.321  19.737  0.00  0.00    +0.000 A 
ATOM     10  N   UNL     1       2.186   7.249  19.207  0.00  0.00    +0.000 N 
ENDROOT
BRANCH   1  11
ATOM     11  C   UNL     1       3.092   5.017  20.085  0.00  0.00    +0.000 C 
BRANCH  11  13
ATOM     12  C   UNL     1       0.878   3.748  19.624  0.00  0.00    +0.000 C 
ATOM     13  C   UNL     1       2.279   3.695  20.259  0.00  0.00    +0.000 C 
ATOM     14  C   UNL     1       2.074   3.365  21.757  0.00  0.00    +0.000 C 
BRANCH  13  15
ATOM     15  C   UNL     1       3.089   2.516  19.634  0.00  0.00    +0.000 C 
BRANCH  15  16
ATOM     16  C   UNL     1       4.517   2.353  20.125  0.00  0.00    +0.000 C 
ATOM     17  O   UNL     1       4.870   1.771  21.140  0.00  0.00    +0.000 OA
BRANCH  16  18
ATOM     18  O   UNL     1       5.417   2.935  19.299  0.00  0.00    +0.000 OA
ATOM     19  H   UNL     1       6.347   2.821  19.576  0.00  0.00    +0.000 HD
ENDBRANCH  16  18
ENDBRANCH  15  16
ENDBRANCH  13  15
ENDBRANCH  11  13
ENDBRANCH   1  11
BRANCH  10  20
ATOM     20  C   UNL     1       2.483   7.110  17.792  0.00  0.00    +0.000 C 
BRANCH  20  21
ATOM     21  C   UNL     1       3.771   6.394  17.463  0.00  0.00    +0.000 A 
ATOM     22  C   UNL     1       3.727   5.079  16.969  0.00  0.00    +0.000 A 
ATOM     23  C   UNL     1       4.879   4.456  16.484  0.00  0.00    +0.000 A 
ATOM     24  C   UNL     1       6.091   5.140  16.495  0.00  0.00    +0.000 A 
ATOM     25 CL   UNL     1       7.498   4.398  15.837  0.00  0.00    +0.000 Cl
ATOM     26  C   UNL     1       6.164   6.431  17.012  0.00  0.00    +0.000 A 
ATOM     27  C   UNL     1       5.009   7.056  17.495  0.00  0.00    +0.000 A 
ENDBRANCH  20  21
ENDBRANCH  10  20
TORSDOF 7
ENDMDL
MODEL 9
REMARK VINA RESULT:      -6.6      2.800      3.914
REMARK  Name = 
REMARK  9 active torsions:
REMARK  status: ('A' for Active; 'I' for Inactive)
REMARK    1  A    between atoms: C_1  and  C_2
REMARK    2  A    between atoms: C_2  and  C_3
REMARK    3  A    between atoms: C_2  and  C_4
REMARK    4  A    between atoms: C_2  and  C_8
REMARK    5  A    between atoms: C_4  and  C_5
REMARK    6  A    between atoms: C_5  and  O_7
REMARK    7  A    between atoms: C_8  and  C_9
REMARK    8  A    between atoms: N_18  and  C_19
REMARK    9  A    between atoms: C_19  and  C_20
REMARK                            x       y       z     vdW  Elec       q    Type
REMARK                         _______ _______ _______ _____ _____    ______ ____
ROOT
ATOM      1  C   UNL     1       4.770   4.288  17.741  0.00  0.00    +0.000 A 
ATOM      2  N   UNL     1       4.293   3.829  16.593  0.00  0.00    +0.000 NA
ATOM      3  C   UNL     1       5.273   4.051  15.659  0.00  0.00    +0.000 A 
ATOM      4  C   UNL     1       5.320   3.782  14.287  0.00  0.00    +0.000 A 
ATOM      5  C   UNL     1       6.498   4.118  13.620  0.00  0.00    +0.000 A 
ATOM      6 CL   UNL     1       6.650   3.829  11.932  0.00  0.00    +0.000 Cl
ATOM      7  C   UNL     1       7.553   4.685  14.332  0.00  0.00    +0.000 A 
ATOM      8  N   UNL     1       7.547   4.977  15.656  0.00  0.00    +0.000 NA
ATOM      9  C   UNL     1       6.380   4.645  16.248  0.00  0.00    +0.000 A 
ATOM     10  N   UNL     1       6.032   4.830  17.562  0.00  0.00    +0.000 N 
ENDROOT
BRANCH   1  11
ATOM     11  C   UNL     1       3.979   4.338  19.017  0.00  0.00    +0.000 C 
BRANCH  11  13
ATOM     12  C   UNL     1       2.584   6.354  18.173  0.00  0.00    +0.000 C 
ATOM     13  C   UNL     1       2.585   5.040  18.976  0.00  0.00    +0.000 C 
ATOM     14  C   UNL     1       2.101   5.393  20.402  0.00  0.00    +0.000 C 
BRANCH  13  15
ATOM     15  C   UNL     1       1.539   4.056  18.365  0.00  0.00    +0.000 C 
BRANCH  15  16
ATOM     16  C   UNL     1       1.676   2.600  18.772  0.00  0.00    +0.000 C 
ATOM     17  O   UNL     1       1.384   2.122  19.858  0.00  0.00    +0.000 OA
BRANCH  16  18
ATOM     18  O   UNL     1       2.172   1.829  17.776  0.00  0.00    +0.000 OA
ATOM     19  H   UNL     1       2.741   2.308  17.143  0.00  0.00    +0.000 HD
ENDBRANCH  16  18
ENDBRANCH  15  16
ENDBRANCH  13  15
ENDBRANCH  11  13
ENDBRANCH   1  11
BRANCH  10  20
ATOM     20  C   UNL     1       6.945   5.344  18.568  0.00  0.00    +0.000 C 
BRANCH  20  21
ATOM     21  C   UNL     1       7.481   6.732  18.315  0.00  0.00    +0.000 A 
ATOM     22  C   UNL     1       6.809   7.581  17.418  0.00  0.00    +0.000 A 
ATOM     23  C   UNL     1       7.168   8.926  17.299  0.00  0.00    +0.000 A 
ATOM     24  C   UNL     1       8.208   9.435  18.070  0.00  0.00    +0.000 A 
ATOM     25 CL   UNL     1       8.607  11.106  17.973  0.00  0.00    +0.000 Cl
ATOM     26  C   UNL     1       8.909   8.603  18.940  0.00  0.00    +0.000 A 
ATOM     27  C   UNL     1       8.548   7.256  19.062  0.00  0.00    +0.000 A 
ENDBRANCH  20  21
ENDBRANCH  10  20
TORSDOF 7
ENDMDL
