MODEL 1
REMARK VINA RESULT:      -8.6      0.000      0.000
REMARK  Name = 
REMARK  7 active torsions:
REMARK  status: ('A' for Active; 'I' for Inactive)
REMARK    1  A    between atoms: C_1  and  C_2
REMARK    2  A    between atoms: C_3  and  C_4
REMARK    3  A    between atoms: C_4  and  O_6
REMARK    4  A    between atoms: O_6  and  C_7
REMARK    5  A    between atoms: C_7  and  C_8
REMARK    6  A    between atoms: N_10  and  C_11
REMARK    7  A    between atoms: N_10  and  C_12
REMARK                            x       y       z     vdW  Elec       q    Type
REMARK                         _______ _______ _______ _____ _____    ______ ____
ROOT
ATOM      1  C   UNL     1       6.949   6.219  17.015  0.00  0.00    +0.000 C 
ATOM      2  O   UNL     1       6.994   7.438  17.119  0.00  0.00    +0.000 OA
ENDROOT
BRANCH   1   5
ATOM      3  C   UNL     1       4.594   4.053  16.210  0.00  0.00    +0.000 C 
ATOM      4  C   UNL     1       5.739   4.558  15.415  0.00  0.00    +0.000 A 
ATOM      5  C   UNL     1       6.722   5.470  15.793  0.00  0.00    +0.000 A 
ATOM      6  O   UNL     1       7.595   5.658  14.748  0.00  0.00    +0.000 OA
ATOM      7  C   UNL     1       7.178   4.893  13.711  0.00  0.00    +0.000 A 
ATOM      8  C   UNL     1       7.795   4.824  12.465  0.00  0.00    +0.000 A 
ATOM      9  C   UNL     1       7.200   3.980  11.522  0.00  0.00    +0.000 A 
ATOM     10  C   UNL     1       6.051   3.250  11.832  0.00  0.00    +0.000 A 
ATOM     11  C   UNL     1       5.457   3.341  13.100  0.00  0.00    +0.000 A 
ATOM     12  C   UNL     1       6.037   4.190  14.062  0.00  0.00    +0.000 A 
ENDBRANCH   1   5
BRANCH   1  13
ATOM     13  O   UNL     1       7.170   5.345  18.039  0.00  0.00    +0.000 OA
BRANCH  13  14
ATOM     14  C   UNL     1       6.452   5.572  19.257  0.00  0.00    +0.000 C 
BRANCH  14  15
ATOM     15  C   UNL     1       5.260   4.613  19.407  0.00  0.00    +0.000 C 
ATOM     16  O   UNL     1       5.507   3.411  19.551  0.00  0.00    +0.000 OA
ATOM     17  N   UNL     1       3.958   5.152  19.352  0.00  0.00    +0.000 N 
ATOM     18  C   UNL     1       3.692   6.572  19.086  0.00  0.00    +0.000 C 
BRANCH  17  19
ATOM     19  C   UNL     1       2.789   4.313  19.548  0.00  0.00    +0.000 A 
ATOM     20  C   UNL     1       2.090   3.744  18.470  0.00  0.00    +0.000 A 
ATOM     21  C   UNL     1       0.952   2.953  18.664  0.00  0.00    +0.000 A 
ATOM     22  C   UNL     1       0.487   2.698  19.945  0.00  0.00    +0.000 A 
ATOM     23  C   UNL     1       1.172   3.226  21.036  0.00  0.00    +0.000 A 
ATOM     24  C   UNL     1       2.314   4.013  20.837  0.00  0.00    +0.000 A 
ENDBRANCH  17  19
ENDBRANCH  14  15
ENDBRANCH  13  14
ENDBRANCH   1  13
TORSDOF 5
ENDMDL
MODEL 2
REMARK VINA RESULT:      -7.9      1.902      6.722
REMARK  Name = 
REMARK  7 active torsions:
REMARK  status: ('A' for Active; 'I' for Inactive)
REMARK    1  A    between atoms: C_1  and  C_2
REMARK    2  A    between atoms: C_3  and  C_4
REMARK    3  A    between atoms: C_4  and  O_6
REMARK    4  A    between atoms: O_6  and  C_7
REMARK    5  A    between atoms: C_7  and  C_8
REMARK    6  A    between atoms: N_10  and  C_11
REMARK    7  A    between atoms: N_10  and  C_12
REMARK                            x       y       z     vdW  Elec       q    Type
REMARK                         _______ _______ _______ _____ _____    ______ ____
ROOT
ATOM      1  C   UNL     1       6.978   5.184  18.456  0.00  0.00    +0.000 C 
ATOM      2  O   UNL     1       7.632   5.999  19.094  0.00  0.00    +0.000 OA
ENDROOT
BRANCH   1   5
ATOM      3  C   UNL     1       4.195   6.640  17.448  0.00  0.00    +0.000 C 
ATOM      4  C   UNL     1       4.391   5.419  18.265  0.00  0.00    +0.000 A 
ATOM      5  C   UNL     1       5.587   4.836  18.680  0.00  0.00    +0.000 A 
ATOM      6  O   UNL     1       5.313   3.712  19.421  0.00  0.00    +0.000 OA
ATOM      7  C   UNL     1       3.968   3.563  19.474  0.00  0.00    +0.000 A 
ATOM      8  C   UNL     1       3.299   2.528  20.122  0.00  0.00    +0.000 A 
ATOM      9  C   UNL     1       1.903   2.547  20.051  0.00  0.00    +0.000 A 
ATOM     10  C   UNL     1       1.231   3.561  19.364  0.00  0.00    +0.000 A 
ATOM     11  C   UNL     1       1.937   4.591  18.724  0.00  0.00    +0.000 A 
ATOM     12  C   UNL     1       3.344   4.587  18.779  0.00  0.00    +0.000 A 
ENDBRANCH   1   5
BRANCH   1  13
ATOM     13  O   UNL     1       7.440   4.501  17.368  0.00  0.00    +0.000 OA
BRANCH  13  14
ATOM     14  C   UNL     1       7.281   5.125  16.090  0.00  0.00    +0.000 C 
BRANCH  14  15
ATOM     15  C   UNL     1       6.522   4.225  15.102  0.00  0.00    +0.000 C 
ATOM     16  O   UNL     1       5.725   3.405  15.571  0.00  0.00    +0.000 OA
ATOM     17  N   UNL     1       6.790   4.368  13.725  0.00  0.00    +0.000 N 
ATOM     18  C   UNL     1       7.811   5.285  13.202  0.00  0.00    +0.000 C 
BRANCH  17  19
ATOM     19  C   UNL     1       6.065   3.594  12.734  0.00  0.00    +0.000 A 
ATOM     20  C   UNL     1       4.773   3.950  12.309  0.00  0.00    +0.000 A 
ATOM     21  C   UNL     1       4.070   3.190  11.368  0.00  0.00    +0.000 A 
ATOM     22  C   UNL     1       4.644   2.054  10.816  0.00  0.00    +0.000 A 
ATOM     23  C   UNL     1       5.932   1.689  11.197  0.00  0.00    +0.000 A 
ATOM     24  C   UNL     1       6.635   2.458  12.135  0.00  0.00    +0.000 A 
ENDBRANCH  17  19
ENDBRANCH  14  15
ENDBRANCH  13  14
ENDBRANCH   1  13
TORSDOF 5
ENDMDL
MODEL 3
REMARK VINA RESULT:      -7.6      2.052      7.048
REMARK  Name = 
REMARK  7 active torsions:
REMARK  status: ('A' for Active; 'I' for Inactive)
REMARK    1  A    between atoms: C_1  and  C_2
REMARK    2  A    between atoms: C_3  and  C_4
REMARK    3  A    between atoms: C_4  and  O_6
REMARK    4  A    between atoms: O_6  and  C_7
REMARK    5  A    between atoms: C_7  and  C_8
REMARK    6  A    between atoms: N_10  and  C_11
REMARK    7  A    between atoms: N_10  and  C_12
REMARK                            x       y       z     vdW  Elec       q    Type
REMARK                         _______ _______ _______ _____ _____    ______ ____
ROOT
ATOM      1  C   UNL     1       4.357   4.053  18.534  0.00  0.00    +0.000 C 
ATOM      2  O   UNL     1       3.999   3.079  17.884  0.00  0.00    +0.000 OA
ENDROOT
BRANCH   1   5
ATOM      3  C   UNL     1       2.583   4.415  21.291  0.00  0.00    +0.000 C 
ATOM      4  C   UNL     1       2.757   5.334  20.140  0.00  0.00    +0.000 A 
ATOM      5  C   UNL     1       3.511   5.142  18.985  0.00  0.00    +0.000 A 
ATOM      6  O   UNL     1       3.395   6.248  18.176  0.00  0.00    +0.000 OA
ATOM      7  C   UNL     1       2.594   7.142  18.802  0.00  0.00    +0.000 A 
ATOM      8  C   UNL     1       2.249   8.396  18.307  0.00  0.00    +0.000 A 
ATOM      9  C   UNL     1       1.416   9.177  19.113  0.00  0.00    +0.000 A 
ATOM     10  C   UNL     1       0.959   8.706  20.346  0.00  0.00    +0.000 A 
ATOM     11  C   UNL     1       1.324   7.434  20.814  0.00  0.00    +0.000 A 
ATOM     12  C   UNL     1       2.167   6.635  20.019  0.00  0.00    +0.000 A 
ENDBRANCH   1   5
BRANCH   1  13
ATOM     13  O   UNL     1       5.623   4.247  19.004  0.00  0.00    +0.000 OA
BRANCH  13  14
ATOM     14  C   UNL     1       6.417   5.243  18.351  0.00  0.00    +0.000 C 
BRANCH  14  15
ATOM     15  C   UNL     1       6.867   4.791  16.952  0.00  0.00    +0.000 C 
ATOM     16  O   UNL     1       7.801   3.986  16.884  0.00  0.00    +0.000 OA
ATOM     17  N   UNL     1       6.206   5.334  15.830  0.00  0.00    +0.000 N 
ATOM     18  C   UNL     1       5.162   6.361  15.937  0.00  0.00    +0.000 C 
BRANCH  17  19
ATOM     19  C   UNL     1       6.538   4.905  14.483  0.00  0.00    +0.000 A 
ATOM     20  C   UNL     1       5.834   3.877  13.833  0.00  0.00    +0.000 A 
ATOM     21  C   UNL     1       6.171   3.454  12.542  0.00  0.00    +0.000 A 
ATOM     22  C   UNL     1       7.218   4.056  11.859  0.00  0.00    +0.000 A 
ATOM     23  C   UNL     1       7.919   5.094  12.466  0.00  0.00    +0.000 A 
ATOM     24  C   UNL     1       7.573   5.518  13.756  0.00  0.00    +0.000 A 
ENDBRANCH  17  19
ENDBRANCH  14  15
ENDBRANCH  13  14
ENDBRANCH   1  13
TORSDOF 5
ENDMDL
MODEL 4
REMARK VINA RESULT:      -7.5      0.929      1.489
REMARK  Name = 
REMARK  7 active torsions:
REMARK  status: ('A' for Active; 'I' for Inactive)
REMARK    1  A    between atoms: C_1  and  C_2
REMARK    2  A    between atoms: C_3  and  C_4
REMARK    3  A    between atoms: C_4  and  O_6
REMARK    4  A    between atoms: O_6  and  C_7
REMARK    5  A    between atoms: C_7  and  C_8
REMARK    6  A    between atoms: N_10  and  C_11
REMARK    7  A    between atoms: N_10  and  C_12
REMARK                            x       y       z     vdW  Elec       q    Type
REMARK                         _______ _______ _______ _____ _____    ______ ____
ROOT
ATOM      1  C   UNL     1       7.000   5.991  17.234  0.00  0.00    +0.000 C 
ATOM      2  O   UNL     1       7.140   7.191  17.427  0.00  0.00    +0.000 OA
ENDROOT
BRANCH   1   5
ATOM      3  C   UNL     1       4.636   3.913  16.245  0.00  0.00    +0.000 C 
ATOM      4  C   UNL     1       5.786   4.477  15.496  0.00  0.00    +0.000 A 
ATOM      5  C   UNL     1       6.772   5.349  15.952  0.00  0.00    +0.000 A 
ATOM      6  O   UNL     1       7.648   5.621  14.928  0.00  0.00    +0.000 OA
ATOM      7  C   UNL     1       7.229   4.949  13.830  0.00  0.00    +0.000 A 
ATOM      8  C   UNL     1       7.848   4.982  12.583  0.00  0.00    +0.000 A 
ATOM      9  C   UNL     1       7.252   4.225  11.570  0.00  0.00    +0.000 A 
ATOM     10  C   UNL     1       6.098   3.477  11.816  0.00  0.00    +0.000 A 
ATOM     11  C   UNL     1       5.502   3.463  13.087  0.00  0.00    +0.000 A 
ATOM     12  C   UNL     1       6.084   4.224  14.118  0.00  0.00    +0.000 A 
ENDBRANCH   1   5
BRANCH   1  13
ATOM     13  O   UNL     1       7.098   5.033  18.201  0.00  0.00    +0.000 OA
BRANCH  13  14
ATOM     14  C   UNL     1       6.479   5.312  19.461  0.00  0.00    +0.000 C 
BRANCH  14  15
ATOM     15  C   UNL     1       4.957   5.098  19.412  0.00  0.00    +0.000 C 
ATOM     16  O   UNL     1       4.250   6.075  19.143  0.00  0.00    +0.000 OA
ATOM     17  N   UNL     1       4.454   3.811  19.695  0.00  0.00    +0.000 N 
ATOM     18  C   UNL     1       5.311   2.691  20.104  0.00  0.00    +0.000 C 
BRANCH  17  19
ATOM     19  C   UNL     1       3.033   3.524  19.607  0.00  0.00    +0.000 A 
ATOM     20  C   UNL     1       2.091   4.164  20.430  0.00  0.00    +0.000 A 
ATOM     21  C   UNL     1       0.725   3.869  20.354  0.00  0.00    +0.000 A 
ATOM     22  C   UNL     1       0.260   2.933  19.443  0.00  0.00    +0.000 A 
ATOM     23  C   UNL     1       1.165   2.300  18.595  0.00  0.00    +0.000 A 
ATOM     24  C   UNL     1       2.532   2.603  18.671  0.00  0.00    +0.000 A 
ENDBRANCH  17  19
ENDBRANCH  14  15
ENDBRANCH  13  14
ENDBRANCH   1  13
TORSDOF 5
ENDMDL
MODEL 5
REMARK VINA RESULT:      -7.5      2.223      7.180
REMARK  Name = 
REMARK  7 active torsions:
REMARK  status: ('A' for Active; 'I' for Inactive)
REMARK    1  A    between atoms: C_1  and  C_2
REMARK    2  A    between atoms: C_3  and  C_4
REMARK    3  A    between atoms: C_4  and  O_6
REMARK    4  A    between atoms: O_6  and  C_7
REMARK    5  A    between atoms: C_7  and  C_8
REMARK    6  A    between atoms: N_10  and  C_11
REMARK    7  A    between atoms: N_10  and  C_12
REMARK                            x       y       z     vdW  Elec       q    Type
REMARK                         _______ _______ _______ _____ _____    ______ ____
ROOT
ATOM      1  C   UNL     1       4.049   4.359  18.460  0.00  0.00    +0.000 C 
ATOM      2  O   UNL     1       3.673   3.453  17.728  0.00  0.00    +0.000 OA
ENDROOT
BRANCH   1   5
ATOM      3  C   UNL     1       2.352   4.615  21.278  0.00  0.00    +0.000 C 
ATOM      4  C   UNL     1       2.508   5.584  20.166  0.00  0.00    +0.000 A 
ATOM      5  C   UNL     1       3.228   5.437  18.983  0.00  0.00    +0.000 A 
ATOM      6  O   UNL     1       3.106   6.580  18.230  0.00  0.00    +0.000 OA
ATOM      7  C   UNL     1       2.332   7.453  18.917  0.00  0.00    +0.000 A 
ATOM      8  C   UNL     1       1.990   8.733  18.489  0.00  0.00    +0.000 A 
ATOM      9  C   UNL     1       1.188   9.485  19.353  0.00  0.00    +0.000 A 
ATOM     10  C   UNL     1       0.758   8.963  20.574  0.00  0.00    +0.000 A 
ATOM     11  C   UNL     1       1.119   7.666  20.973  0.00  0.00    +0.000 A 
ATOM     12  C   UNL     1       1.931   6.895  20.121  0.00  0.00    +0.000 A 
ENDBRANCH   1   5
BRANCH   1  13
ATOM     13  O   UNL     1       5.311   4.474  18.966  0.00  0.00    +0.000 OA
BRANCH  13  14
ATOM     14  C   UNL     1       6.190   5.402  18.323  0.00  0.00    +0.000 C 
BRANCH  14  15
ATOM     15  C   UNL     1       6.673   4.884  16.959  0.00  0.00    +0.000 C 
ATOM     16  O   UNL     1       7.559   4.023  16.955  0.00  0.00    +0.000 OA
ATOM     17  N   UNL     1       6.097   5.432  15.793  0.00  0.00    +0.000 N 
ATOM     18  C   UNL     1       5.114   6.522  15.826  0.00  0.00    +0.000 C 
BRANCH  17  19
ATOM     19  C   UNL     1       6.462   4.945  14.475  0.00  0.00    +0.000 A 
ATOM     20  C   UNL     1       7.541   5.484  13.753  0.00  0.00    +0.000 A 
ATOM     21  C   UNL     1       7.876   5.025  12.475  0.00  0.00    +0.000 A 
ATOM     22  C   UNL     1       7.148   4.002  11.885  0.00  0.00    +0.000 A 
ATOM     23  C   UNL     1       6.089   3.429  12.585  0.00  0.00    +0.000 A 
ATOM     24  C   UNL     1       5.762   3.889  13.867  0.00  0.00    +0.000 A 
ENDBRANCH  17  19
ENDBRANCH  14  15
ENDBRANCH  13  14
ENDBRANCH   1  13
TORSDOF 5
ENDMDL
MODEL 6
REMARK VINA RESULT:      -7.4      4.087      6.158
REMARK  Name = 
REMARK  7 active torsions:
REMARK  status: ('A' for Active; 'I' for Inactive)
REMARK    1  A    between atoms: C_1  and  C_2
REMARK    2  A    between atoms: C_3  and  C_4
REMARK    3  A    between atoms: C_4  and  O_6
REMARK    4  A    between atoms: O_6  and  C_7
REMARK    5  A    between atoms: C_7  and  C_8
REMARK    6  A    between atoms: N_10  and  C_11
REMARK    7  A    between atoms: N_10  and  C_12
REMARK                            x       y       z     vdW  Elec       q    Type
REMARK                         _______ _______ _______ _____ _____    ______ ____
ROOT
ATOM      1  C   UNL     1       2.444   4.885  20.611  0.00  0.00    +0.000 C 
ATOM      2  O   UNL     1       2.333   4.152  21.586  0.00  0.00    +0.000 OA
ENDROOT
BRANCH   1   5
ATOM      3  C   UNL     1       1.840   3.918  17.516  0.00  0.00    +0.000 C 
ATOM      4  C   UNL     1       3.120   4.288  18.168  0.00  0.00    +0.000 A 
ATOM      5  C   UNL     1       3.338   4.684  19.485  0.00  0.00    +0.000 A 
ATOM      6  O   UNL     1       4.677   4.935  19.670  0.00  0.00    +0.000 OA
ATOM      7  C   UNL     1       5.309   4.716  18.492  0.00  0.00    +0.000 A 
ATOM      8  C   UNL     1       6.674   4.879  18.272  0.00  0.00    +0.000 A 
ATOM      9  C   UNL     1       7.132   4.613  16.978  0.00  0.00    +0.000 A 
ATOM     10  C   UNL     1       6.254   4.203  15.973  0.00  0.00    +0.000 A 
ATOM     11  C   UNL     1       4.883   4.045  16.231  0.00  0.00    +0.000 A 
ATOM     12  C   UNL     1       4.401   4.314  17.526  0.00  0.00    +0.000 A 
ENDBRANCH   1   5
BRANCH   1  13
ATOM     13  O   UNL     1       1.689   5.999  20.389  0.00  0.00    +0.000 OA
BRANCH  13  14
ATOM     14  C   UNL     1       2.387   7.214  20.100  0.00  0.00    +0.000 C 
BRANCH  14  15
ATOM     15  C   UNL     1       1.434   8.417  20.013  0.00  0.00    +0.000 C 
ATOM     16  O   UNL     1       0.724   8.657  20.995  0.00  0.00    +0.000 OA
ATOM     17  N   UNL     1       1.407   9.164  18.817  0.00  0.00    +0.000 N 
ATOM     18  C   UNL     1       2.193   8.800  17.631  0.00  0.00    +0.000 C 
BRANCH  17  19
ATOM     19  C   UNL     1       0.577  10.348  18.689  0.00  0.00    +0.000 A 
ATOM     20  C   UNL     1      -0.757  10.280  18.251  0.00  0.00    +0.000 A 
ATOM     21  C   UNL     1      -1.547  11.426  18.111  0.00  0.00    +0.000 A 
ATOM     22  C   UNL     1      -1.028  12.676  18.416  0.00  0.00    +0.000 A 
ATOM     23  C   UNL     1       0.282  12.775  18.877  0.00  0.00    +0.000 A 
ATOM     24  C   UNL     1       1.067  11.623  19.022  0.00  0.00    +0.000 A 
ENDBRANCH  17  19
ENDBRANCH  14  15
ENDBRANCH  13  14
ENDBRANCH   1  13
TORSDOF 5
ENDMDL
MODEL 7
REMARK VINA RESULT:      -7.4      4.361      7.744
REMARK  Name = 
REMARK  7 active torsions:
REMARK  status: ('A' for Active; 'I' for Inactive)
REMARK    1  A    between atoms: C_1  and  C_2
REMARK    2  A    between atoms: C_3  and  C_4
REMARK    3  A    between atoms: C_4  and  O_6
REMARK    4  A    between atoms: O_6  and  C_7
REMARK    5  A    between atoms: C_7  and  C_8
REMARK    6  A    between atoms: N_10  and  C_11
REMARK    7  A    between atoms: N_10  and  C_12
REMARK                            x       y       z     vdW  Elec       q    Type
REMARK                         _______ _______ _______ _____ _____    ______ ____
ROOT
ATOM      1  C   UNL     1       6.542   6.319  16.914  0.00  0.00    +0.000 C 
ATOM      2  O   UNL     1       7.269   6.077  15.959  0.00  0.00    +0.000 OA
ENDROOT
BRANCH   1   5
ATOM      3  C   UNL     1       3.528   7.502  17.547  0.00  0.00    +0.000 C 
ATOM      4  C   UNL     1       4.015   6.102  17.507  0.00  0.00    +0.000 A 
ATOM      5  C   UNL     1       5.303   5.639  17.243  0.00  0.00    +0.000 A 
ATOM      6  O   UNL     1       5.315   4.266  17.307  0.00  0.00    +0.000 OA
ATOM      7  C   UNL     1       4.059   3.849  17.593  0.00  0.00    +0.000 A 
ATOM      8  C   UNL     1       3.664   2.520  17.724  0.00  0.00    +0.000 A 
ATOM      9  C   UNL     1       2.315   2.297  18.012  0.00  0.00    +0.000 A 
ATOM     10  C   UNL     1       1.424   3.363  18.160  0.00  0.00    +0.000 A 
ATOM     11  C   UNL     1       1.857   4.691  18.025  0.00  0.00    +0.000 A 
ATOM     12  C   UNL     1       3.211   4.936  17.729  0.00  0.00    +0.000 A 
ENDBRANCH   1   5
BRANCH   1  13
ATOM     13  O   UNL     1       6.814   7.244  17.879  0.00  0.00    +0.000 OA
BRANCH  13  14
ATOM     14  C   UNL     1       7.148   8.565  17.442  0.00  0.00    +0.000 C 
BRANCH  14  15
ATOM     15  C   UNL     1       8.350   9.137  18.209  0.00  0.00    +0.000 C 
ATOM     16  O   UNL     1       9.003   8.359  18.912  0.00  0.00    +0.000 OA
ATOM     17  N   UNL     1       8.628  10.515  18.086  0.00  0.00    +0.000 N 
ATOM     18  C   UNL     1       7.779  11.435  17.319  0.00  0.00    +0.000 C 
BRANCH  17  19
ATOM     19  C   UNL     1       9.784  11.108  18.734  0.00  0.00    +0.000 A 
ATOM     20  C   UNL     1      10.974  11.376  18.036  0.00  0.00    +0.000 A 
ATOM     21  C   UNL     1      12.092  11.930  18.670  0.00  0.00    +0.000 A 
ATOM     22  C   UNL     1      12.048  12.243  20.020  0.00  0.00    +0.000 A 
ATOM     23  C   UNL     1      10.875  12.013  20.734  0.00  0.00    +0.000 A 
ATOM     24  C   UNL     1       9.756  11.464  20.094  0.00  0.00    +0.000 A 
ENDBRANCH  17  19
ENDBRANCH  14  15
ENDBRANCH  13  14
ENDBRANCH   1  13
TORSDOF 5
ENDMDL
MODEL 8
REMARK VINA RESULT:      -7.3      4.600      7.274
REMARK  Name = 
REMARK  7 active torsions:
REMARK  status: ('A' for Active; 'I' for Inactive)
REMARK    1  A    between atoms: C_1  and  C_2
REMARK    2  A    between atoms: C_3  and  C_4
REMARK    3  A    between atoms: C_4  and  O_6
REMARK    4  A    between atoms: O_6  and  C_7
REMARK    5  A    between atoms: C_7  and  C_8
REMARK    6  A    between atoms: N_10  and  C_11
REMARK    7  A    between atoms: N_10  and  C_12
REMARK                            x       y       z     vdW  Elec       q    Type
REMARK                         _______ _______ _______ _____ _____    ______ ____
ROOT
ATOM      1  C   UNL     1       7.283   6.590  17.378  0.00  0.00    +0.000 C 
ATOM      2  O   UNL     1       7.112   6.280  18.550  0.00  0.00    +0.000 OA
ENDROOT
BRANCH   1   5
ATOM      3  C   UNL     1       4.594   4.772  16.794  0.00  0.00    +0.000 C 
ATOM      4  C   UNL     1       5.772   5.039  15.933  0.00  0.00    +0.000 A 
ATOM      5  C   UNL     1       6.897   5.808  16.218  0.00  0.00    +0.000 A 
ATOM      6  O   UNL     1       7.747   5.789  15.138  0.00  0.00    +0.000 OA
ATOM      7  C   UNL     1       7.178   5.033  14.170  0.00  0.00    +0.000 A 
ATOM      8  C   UNL     1       7.728   4.787  12.915  0.00  0.00    +0.000 A 
ATOM      9  C   UNL     1       6.974   3.988  12.050  0.00  0.00    +0.000 A 
ATOM     10  C   UNL     1       5.739   3.467  12.443  0.00  0.00    +0.000 A 
ATOM     11  C   UNL     1       5.216   3.733  13.718  0.00  0.00    +0.000 A 
ATOM     12  C   UNL     1       5.956   4.541  14.601  0.00  0.00    +0.000 A 
ENDBRANCH   1   5
BRANCH   1  13
ATOM     13  O   UNL     1       7.820   7.773  16.960  0.00  0.00    +0.000 OA
BRANCH  13  14
ATOM     14  C   UNL     1       7.375   8.962  17.621  0.00  0.00    +0.000 C 
BRANCH  14  15
ATOM     15  C   UNL     1       8.527   9.687  18.335  0.00  0.00    +0.000 C 
ATOM     16  O   UNL     1       9.225   9.027  19.112  0.00  0.00    +0.000 OA
ATOM     17  N   UNL     1       8.711  11.062  18.081  0.00  0.00    +0.000 N 
ATOM     18  C   UNL     1       7.809  11.844  17.226  0.00  0.00    +0.000 C 
BRANCH  17  19
ATOM     19  C   UNL     1       9.816  11.794  18.674  0.00  0.00    +0.000 A 
ATOM     20  C   UNL     1       9.694  12.463  19.904  0.00  0.00    +0.000 A 
ATOM     21  C   UNL     1      10.756  13.184  20.460  0.00  0.00    +0.000 A 
ATOM     22  C   UNL     1      11.978  13.246  19.807  0.00  0.00    +0.000 A 
ATOM     23  C   UNL     1      12.140  12.573  18.600  0.00  0.00    +0.000 A 
ATOM     24  C   UNL     1      11.074  11.848  18.049  0.00  0.00    +0.000 A 
ENDBRANCH  17  19
ENDBRANCH  14  15
ENDBRANCH  13  14
ENDBRANCH   1  13
TORSDOF 5
ENDMDL
MODEL 9
REMARK VINA RESULT:      -7.3      4.182      6.159
REMARK  Name = 
REMARK  7 active torsions:
REMARK  status: ('A' for Active; 'I' for Inactive)
REMARK    1  A    between atoms: C_1  and  C_2
REMARK    2  A    between atoms: C_3  and  C_4
REMARK    3  A    between atoms: C_4  and  O_6
REMARK    4  A    between atoms: O_6  and  C_7
REMARK    5  A    between atoms: C_7  and  C_8
REMARK    6  A    between atoms: N_10  and  C_11
REMARK    7  A    between atoms: N_10  and  C_12
REMARK                            x       y       z     vdW  Elec       q    Type
REMARK                         _______ _______ _______ _____ _____    ______ ____
ROOT
ATOM      1  C   UNL     1       2.562   4.849  20.475  0.00  0.00    +0.000 C 
ATOM      2  O   UNL     1       2.514   4.168  21.492  0.00  0.00    +0.000 OA
ENDROOT
BRANCH   1   5
ATOM      3  C   UNL     1       1.956   3.808  17.405  0.00  0.00    +0.000 C 
ATOM      4  C   UNL     1       3.232   4.218  18.039  0.00  0.00    +0.000 A 
ATOM      5  C   UNL     1       3.451   4.646  19.347  0.00  0.00    +0.000 A 
ATOM      6  O   UNL     1       4.786   4.928  19.516  0.00  0.00    +0.000 OA
ATOM      7  C   UNL     1       5.414   4.700  18.339  0.00  0.00    +0.000 A 
ATOM      8  C   UNL     1       6.774   4.888  18.104  0.00  0.00    +0.000 A 
ATOM      9  C   UNL     1       7.228   4.606  16.812  0.00  0.00    +0.000 A 
ATOM     10  C   UNL     1       6.351   4.156  15.823  0.00  0.00    +0.000 A 
ATOM     11  C   UNL     1       4.986   3.974  16.095  0.00  0.00    +0.000 A 
ATOM     12  C   UNL     1       4.508   4.259  17.388  0.00  0.00    +0.000 A 
ENDBRANCH   1   5
BRANCH   1  13
ATOM     13  O   UNL     1       1.729   5.895  20.204  0.00  0.00    +0.000 OA
BRANCH  13  14
ATOM     14  C   UNL     1       2.339   7.157  19.914  0.00  0.00    +0.000 C 
BRANCH  14  15
ATOM     15  C   UNL     1       1.430   8.336  20.300  0.00  0.00    +0.000 C 
ATOM     16  O   UNL     1       0.941   8.334  21.434  0.00  0.00    +0.000 OA
ATOM     17  N   UNL     1       1.188   9.337  19.336  0.00  0.00    +0.000 N 
ATOM     18  C   UNL     1       1.706   9.265  17.964  0.00  0.00    +0.000 C 
BRANCH  17  19
ATOM     19  C   UNL     1       0.391  10.508  19.653  0.00  0.00    +0.000 A 
ATOM     20  C   UNL     1       0.923  11.608  20.347  0.00  0.00    +0.000 A 
ATOM     21  C   UNL     1       0.145  12.725  20.668  0.00  0.00    +0.000 A 
ATOM     22  C   UNL     1      -1.189  12.780  20.293  0.00  0.00    +0.000 A 
ATOM     23  C   UNL     1      -1.741  11.717  19.582  0.00  0.00    +0.000 A 
ATOM     24  C   UNL     1      -0.955  10.603  19.258  0.00  0.00    +0.000 A 
ENDBRANCH  17  19
ENDBRANCH  14  15
ENDBRANCH  13  14
ENDBRANCH   1  13
TORSDOF 5
ENDMDL
