MODEL 1
REMARK VINA RESULT:      -8.3      0.000      0.000
REMARK  Name = 
REMARK  4 active torsions:
REMARK  status: ('A' for Active; 'I' for Inactive)
REMARK    1  A    between atoms: C_2  and  C_3
REMARK    2  A    between atoms: C_3  and  N_4
REMARK    3  A    between atoms: N_14  and  C_15
REMARK    4  A    between atoms: C_17  and  C_18
REMARK                            x       y       z     vdW  Elec       q    Type
REMARK                         _______ _______ _______ _____ _____    ______ ____
ROOT
ATOM      1  O   UNL     1       1.098   4.812  20.001  0.00  0.00    +0.000 OA
ATOM      2  C   UNL     1       2.296   5.090  19.925  0.00  0.00    +0.000 C 
ATOM      3  N   UNL     1       2.855   6.356  20.008  0.00  0.00    +0.000 N 
ATOM      4  H   UNL     1       3.799   6.471  19.628  0.00  0.00    +0.000 HD
ENDROOT
BRANCH   3   5
ATOM      5  C   UNL     1       2.133   7.579  20.028  0.00  0.00    +0.000 A 
ATOM      6  C   UNL     1       1.482   8.033  21.176  0.00  0.00    +0.000 A 
ATOM      7  C   UNL     1       0.586   9.111  21.131  0.00  0.00    +0.000 A 
ATOM      8  C   UNL     1       0.427   9.811  19.929  0.00  0.00    +0.000 A 
ATOM      9  C   UNL     1       1.153   9.436  18.795  0.00  0.00    +0.000 A 
ATOM     10  C   UNL     1       1.998   8.325  18.843  0.00  0.00    +0.000 A 
ATOM     11 CL   UNL     1       2.876   7.905  17.412  0.00  0.00    +0.000 Cl
BRANCH   7  12
ATOM     12  C   UNL     1      -0.238   9.449  22.348  0.00  0.00    +0.000 C 
ATOM     13  F   UNL     1       0.502   9.624  23.480  0.00  0.00    +0.000 F 
ATOM     14  F   UNL     1      -0.948  10.599  22.192  0.00  0.00    +0.000 F 
ATOM     15  F   UNL     1      -1.146   8.481  22.646  0.00  0.00    +0.000 F 
ENDBRANCH   7  12
ENDBRANCH   3   5
BRANCH   2  16
ATOM     16  C   UNL     1       3.307   3.965  19.859  0.00  0.00    +0.000 C 
BRANCH  16  17
ATOM     17  N   UNL     1       4.355   4.239  18.841  0.00  0.00    +0.000 N 
ATOM     18  C   UNL     1       5.574   4.649  19.242  0.00  0.00    +0.000 A 
ATOM     19  C   UNL     1       6.576   4.921  18.323  0.00  0.00    +0.000 A 
ATOM     20  C   UNL     1       6.332   4.746  16.961  0.00  0.00    +0.000 A 
ATOM     21  C   UNL     1       7.332   4.970  16.010  0.00  0.00    +0.000 A 
ATOM     22  C   UNL     1       7.082   4.756  14.654  0.00  0.00    +0.000 A 
ATOM     23  C   UNL     1       5.825   4.321  14.237  0.00  0.00    +0.000 A 
ATOM     24  C   UNL     1       4.812   4.112  15.180  0.00  0.00    +0.000 A 
ATOM     25  C   UNL     1       5.054   4.312  16.548  0.00  0.00    +0.000 A 
ATOM     26  C   UNL     1       4.075   4.094  17.527  0.00  0.00    +0.000 A 
ENDBRANCH  16  17
ENDBRANCH   2  16
TORSDOF 4
ENDMDL
MODEL 2
REMARK VINA RESULT:      -8.2      3.985      5.340
REMARK  Name = 
REMARK  4 active torsions:
REMARK  status: ('A' for Active; 'I' for Inactive)
REMARK    1  A    between atoms: C_2  and  C_3
REMARK    2  A    between atoms: C_3  and  N_4
REMARK    3  A    between atoms: N_14  and  C_15
REMARK    4  A    between atoms: C_17  and  C_18
REMARK                            x       y       z     vdW  Elec       q    Type
REMARK                         _______ _______ _______ _____ _____    ______ ____
ROOT
ATOM      1  O   UNL     1      -0.510   8.342  21.604  0.00  0.00    +0.000 OA
ATOM      2  C   UNL     1       0.406   8.684  20.854  0.00  0.00    +0.000 C 
ATOM      3  N   UNL     1       0.361   9.689  19.901  0.00  0.00    +0.000 N 
ATOM      4  H   UNL     1       1.067   9.658  19.161  0.00  0.00    +0.000 HD
ENDROOT
BRANCH   3   5
ATOM      5  C   UNL     1      -0.804  10.398  19.502  0.00  0.00    +0.000 A 
ATOM      6  C   UNL     1      -1.513  10.062  18.348  0.00  0.00    +0.000 A 
ATOM      7  C   UNL     1      -2.515  10.898  17.836  0.00  0.00    +0.000 A 
ATOM      8  C   UNL     1      -2.882  12.039  18.560  0.00  0.00    +0.000 A 
ATOM      9  C   UNL     1      -2.256  12.334  19.774  0.00  0.00    +0.000 A 
ATOM     10  C   UNL     1      -1.221  11.521  20.240  0.00  0.00    +0.000 A 
ATOM     11 CL   UNL     1      -0.480  11.928  21.751  0.00  0.00    +0.000 Cl
BRANCH   7  12
ATOM     12  C   UNL     1      -3.125  10.597  16.490  0.00  0.00    +0.000 C 
ATOM     13  F   UNL     1      -4.462  10.849  16.425  0.00  0.00    +0.000 F 
ATOM     14  F   UNL     1      -2.564  11.328  15.488  0.00  0.00    +0.000 F 
ATOM     15  F   UNL     1      -2.977   9.292  16.133  0.00  0.00    +0.000 F 
ENDBRANCH   7  12
ENDBRANCH   3   5
BRANCH   2  16
ATOM     16  C   UNL     1       1.773   8.059  21.037  0.00  0.00    +0.000 C 
BRANCH  16  17
ATOM     17  N   UNL     1       1.959   6.892  20.136  0.00  0.00    +0.000 N 
ATOM     18  C   UNL     1       2.540   7.070  18.935  0.00  0.00    +0.000 A 
ATOM     19  C   UNL     1       2.726   6.008  18.063  0.00  0.00    +0.000 A 
ATOM     20  C   UNL     1       2.328   4.725  18.441  0.00  0.00    +0.000 A 
ATOM     21  C   UNL     1       2.537   3.625  17.605  0.00  0.00    +0.000 A 
ATOM     22  C   UNL     1       2.165   2.344  18.012  0.00  0.00    +0.000 A 
ATOM     23  C   UNL     1       1.572   2.153  19.260  0.00  0.00    +0.000 A 
ATOM     24  C   UNL     1       1.342   3.252  20.096  0.00  0.00    +0.000 A 
ATOM     25  C   UNL     1       1.723   4.544  19.703  0.00  0.00    +0.000 A 
ATOM     26  C   UNL     1       1.528   5.668  20.518  0.00  0.00    +0.000 A 
ENDBRANCH  16  17
ENDBRANCH   2  16
TORSDOF 4
ENDMDL
MODEL 3
REMARK VINA RESULT:      -8.2      0.549      1.460
REMARK  Name = 
REMARK  4 active torsions:
REMARK  status: ('A' for Active; 'I' for Inactive)
REMARK    1  A    between atoms: C_2  and  C_3
REMARK    2  A    between atoms: C_3  and  N_4
REMARK    3  A    between atoms: N_14  and  C_15
REMARK    4  A    between atoms: C_17  and  C_18
REMARK                            x       y       z     vdW  Elec       q    Type
REMARK                         _______ _______ _______ _____ _____    ______ ____
ROOT
ATOM      1  O   UNL     1       1.017   4.943  20.763  0.00  0.00    +0.000 OA
ATOM      2  C   UNL     1       2.150   5.173  20.338  0.00  0.00    +0.000 C 
ATOM      3  N   UNL     1       2.704   6.422  20.101  0.00  0.00    +0.000 N 
ATOM      4  H   UNL     1       3.512   6.458  19.474  0.00  0.00    +0.000 HD
ENDROOT
BRANCH   3   5
ATOM      5  C   UNL     1       2.006   7.658  20.148  0.00  0.00    +0.000 A 
ATOM      6  C   UNL     1       1.359   8.097  21.304  0.00  0.00    +0.000 A 
ATOM      7  C   UNL     1       0.485   9.193  21.281  0.00  0.00    +0.000 A 
ATOM      8  C   UNL     1       0.345   9.925  20.096  0.00  0.00    +0.000 A 
ATOM      9  C   UNL     1       1.069   9.564  18.956  0.00  0.00    +0.000 A 
ATOM     10  C   UNL     1       1.891   8.435  18.981  0.00  0.00    +0.000 A 
ATOM     11 CL   UNL     1       2.767   8.032  17.544  0.00  0.00    +0.000 Cl
BRANCH   7  12
ATOM     12  C   UNL     1      -0.338   9.519  22.503  0.00  0.00    +0.000 C 
ATOM     13  F   UNL     1       0.405   9.707  23.630  0.00  0.00    +0.000 F 
ATOM     14  F   UNL     1      -1.069  10.656  22.350  0.00  0.00    +0.000 F 
ATOM     15  F   UNL     1      -1.227   8.535  22.807  0.00  0.00    +0.000 F 
ENDBRANCH   7  12
ENDBRANCH   3   5
BRANCH   2  16
ATOM     16  C   UNL     1       3.114   4.019  20.158  0.00  0.00    +0.000 C 
BRANCH  16  17
ATOM     17  N   UNL     1       3.742   4.045  18.811  0.00  0.00    +0.000 N 
ATOM     18  C   UNL     1       2.994   3.759  17.728  0.00  0.00    +0.000 A 
ATOM     19  C   UNL     1       3.544   3.766  16.455  0.00  0.00    +0.000 A 
ATOM     20  C   UNL     1       4.889   4.098  16.285  0.00  0.00    +0.000 A 
ATOM     21  C   UNL     1       5.466   4.156  15.012  0.00  0.00    +0.000 A 
ATOM     22  C   UNL     1       6.802   4.524  14.856  0.00  0.00    +0.000 A 
ATOM     23  C   UNL     1       7.577   4.832  15.975  0.00  0.00    +0.000 A 
ATOM     24  C   UNL     1       7.012   4.758  17.253  0.00  0.00    +0.000 A 
ATOM     25  C   UNL     1       5.666   4.401  17.423  0.00  0.00    +0.000 A 
ATOM     26  C   UNL     1       5.056   4.335  18.684  0.00  0.00    +0.000 A 
ENDBRANCH  16  17
ENDBRANCH   2  16
TORSDOF 4
ENDMDL
MODEL 4
REMARK VINA RESULT:      -8.0      3.558      7.803
REMARK  Name = 
REMARK  4 active torsions:
REMARK  status: ('A' for Active; 'I' for Inactive)
REMARK    1  A    between atoms: C_2  and  C_3
REMARK    2  A    between atoms: C_3  and  N_4
REMARK    3  A    between atoms: N_14  and  C_15
REMARK    4  A    between atoms: C_17  and  C_18
REMARK                            x       y       z     vdW  Elec       q    Type
REMARK                         _______ _______ _______ _____ _____    ______ ____
ROOT
ATOM      1  O   UNL     1       1.886   7.896  19.751  0.00  0.00    +0.000 OA
ATOM      2  C   UNL     1       2.280   8.184  18.620  0.00  0.00    +0.000 C 
ATOM      3  N   UNL     1       2.685   7.295  17.636  0.00  0.00    +0.000 N 
ATOM      4  H   UNL     1       3.263   7.672  16.881  0.00  0.00    +0.000 HD
ENDROOT
BRANCH   3   5
ATOM      5  C   UNL     1       2.877   5.898  17.813  0.00  0.00    +0.000 A 
ATOM      6  C   UNL     1       1.887   5.080  18.358  0.00  0.00    +0.000 A 
ATOM      7  C   UNL     1       2.160   3.760  18.743  0.00  0.00    +0.000 A 
ATOM      8  C   UNL     1       3.424   3.221  18.473  0.00  0.00    +0.000 A 
ATOM      9  C   UNL     1       4.394   3.994  17.829  0.00  0.00    +0.000 A 
ATOM     10  C   UNL     1       4.124   5.325  17.504  0.00  0.00    +0.000 A 
ATOM     11 CL   UNL     1       5.359   6.237  16.706  0.00  0.00    +0.000 Cl
BRANCH   7  12
ATOM     12  C   UNL     1       1.120   2.971  19.500  0.00  0.00    +0.000 C 
ATOM     13  F   UNL     1       0.260   2.285  18.696  0.00  0.00    +0.000 F 
ATOM     14  F   UNL     1       1.671   2.042  20.327  0.00  0.00    +0.000 F 
ATOM     15  F   UNL     1       0.340   3.762  20.286  0.00  0.00    +0.000 F 
ENDBRANCH   7  12
ENDBRANCH   3   5
BRANCH   2  16
ATOM     16  C   UNL     1       2.217   9.627  18.167  0.00  0.00    +0.000 C 
BRANCH  16  17
ATOM     17  N   UNL     1       0.878  10.217  18.429  0.00  0.00    +0.000 N 
ATOM     18  C   UNL     1       0.758  11.210  19.331  0.00  0.00    +0.000 A 
ATOM     19  C   UNL     1      -0.473  11.783  19.608  0.00  0.00    +0.000 A 
ATOM     20  C   UNL     1      -1.609  11.343  18.927  0.00  0.00    +0.000 A 
ATOM     21  C   UNL     1      -2.860  11.926  19.150  0.00  0.00    +0.000 A 
ATOM     22  C   UNL     1      -3.979  11.500  18.435  0.00  0.00    +0.000 A 
ATOM     23  C   UNL     1      -3.857  10.479  17.492  0.00  0.00    +0.000 A 
ATOM     24  C   UNL     1      -2.612   9.877  17.276  0.00  0.00    +0.000 A 
ATOM     25  C   UNL     1      -1.477  10.306  17.979  0.00  0.00    +0.000 A 
ATOM     26  C   UNL     1      -0.208   9.744  17.778  0.00  0.00    +0.000 A 
ENDBRANCH  16  17
ENDBRANCH   2  16
TORSDOF 4
ENDMDL
MODEL 5
REMARK VINA RESULT:      -7.9      3.536      7.735
REMARK  Name = 
REMARK  4 active torsions:
REMARK  status: ('A' for Active; 'I' for Inactive)
REMARK    1  A    between atoms: C_2  and  C_3
REMARK    2  A    between atoms: C_3  and  N_4
REMARK    3  A    between atoms: N_14  and  C_15
REMARK    4  A    between atoms: C_17  and  C_18
REMARK                            x       y       z     vdW  Elec       q    Type
REMARK                         _______ _______ _______ _____ _____    ______ ____
ROOT
ATOM      1  O   UNL     1       1.935   7.973  19.747  0.00  0.00    +0.000 OA
ATOM      2  C   UNL     1       2.364   8.071  18.597  0.00  0.00    +0.000 C 
ATOM      3  N   UNL     1       2.900   7.051  17.826  0.00  0.00    +0.000 N 
ATOM      4  H   UNL     1       3.483   7.328  17.032  0.00  0.00    +0.000 HD
ENDROOT
BRANCH   3   5
ATOM      5  C   UNL     1       3.206   5.742  18.286  0.00  0.00    +0.000 A 
ATOM      6  C   UNL     1       2.212   4.848  18.686  0.00  0.00    +0.000 A 
ATOM      7  C   UNL     1       2.526   3.655  19.351  0.00  0.00    +0.000 A 
ATOM      8  C   UNL     1       3.872   3.305  19.519  0.00  0.00    +0.000 A 
ATOM      9  C   UNL     1       4.881   4.138  19.028  0.00  0.00    +0.000 A 
ATOM     10  C   UNL     1       4.551   5.350  18.419  0.00  0.00    +0.000 A 
ATOM     11 CL   UNL     1       5.839   6.344  17.826  0.00  0.00    +0.000 Cl
BRANCH   7  12
ATOM     12  C   UNL     1       1.421   2.810  19.933  0.00  0.00    +0.000 C 
ATOM     13  F   UNL     1       1.700   2.322  21.175  0.00  0.00    +0.000 F 
ATOM     14  F   UNL     1       0.253   3.496  20.062  0.00  0.00    +0.000 F 
ATOM     15  F   UNL     1       1.138   1.723  19.165  0.00  0.00    +0.000 F 
ENDBRANCH   7  12
ENDBRANCH   3   5
BRANCH   2  16
ATOM     16  C   UNL     1       2.196   9.385  17.862  0.00  0.00    +0.000 C 
BRANCH  16  17
ATOM     17  N   UNL     1       0.915  10.046  18.222  0.00  0.00    +0.000 N 
ATOM     18  C   UNL     1       0.919  11.053  19.117  0.00  0.00    +0.000 A 
ATOM     19  C   UNL     1      -0.256  11.691  19.484  0.00  0.00    +0.000 A 
ATOM     20  C   UNL     1      -1.464  11.304  18.902  0.00  0.00    +0.000 A 
ATOM     21  C   UNL     1      -2.661  11.953  19.218  0.00  0.00    +0.000 A 
ATOM     22  C   UNL     1      -3.855  11.577  18.601  0.00  0.00    +0.000 A 
ATOM     23  C   UNL     1      -3.862  10.542  17.667  0.00  0.00    +0.000 A 
ATOM     24  C   UNL     1      -2.671   9.875  17.359  0.00  0.00    +0.000 A 
ATOM     25  C   UNL     1      -1.461  10.251  17.963  0.00  0.00    +0.000 A 
ATOM     26  C   UNL     1      -0.243   9.622  17.668  0.00  0.00    +0.000 A 
ENDBRANCH  16  17
ENDBRANCH   2  16
TORSDOF 4
ENDMDL
MODEL 6
REMARK VINA RESULT:      -7.8      3.922      8.998
REMARK  Name = 
REMARK  4 active torsions:
REMARK  status: ('A' for Active; 'I' for Inactive)
REMARK    1  A    between atoms: C_2  and  C_3
REMARK    2  A    between atoms: C_3  and  N_4
REMARK    3  A    between atoms: N_14  and  C_15
REMARK    4  A    between atoms: C_17  and  C_18
REMARK                            x       y       z     vdW  Elec       q    Type
REMARK                         _______ _______ _______ _____ _____    ______ ____
ROOT
ATOM      1  O   UNL     1      -0.520   7.927  21.541  0.00  0.00    +0.000 OA
ATOM      2  C   UNL     1       0.592   8.448  21.639  0.00  0.00    +0.000 C 
ATOM      3  N   UNL     1       1.746   8.060  20.976  0.00  0.00    +0.000 N 
ATOM      4  H   UNL     1       2.636   8.371  21.375  0.00  0.00    +0.000 HD
ENDROOT
BRANCH   3   5
ATOM      5  C   UNL     1       1.892   6.886  20.189  0.00  0.00    +0.000 A 
ATOM      6  C   UNL     1       1.703   5.611  20.722  0.00  0.00    +0.000 A 
ATOM      7  C   UNL     1       2.071   4.460  20.012  0.00  0.00    +0.000 A 
ATOM      8  C   UNL     1       2.536   4.592  18.698  0.00  0.00    +0.000 A 
ATOM      9  C   UNL     1       2.629   5.857  18.109  0.00  0.00    +0.000 A 
ATOM     10  C   UNL     1       2.313   6.997  18.850  0.00  0.00    +0.000 A 
ATOM     11 CL   UNL     1       2.443   8.538  18.074  0.00  0.00    +0.000 Cl
BRANCH   7  12
ATOM     12  C   UNL     1       2.029   3.115  20.694  0.00  0.00    +0.000 C 
ATOM     13  F   UNL     1       2.551   3.122  21.953  0.00  0.00    +0.000 F 
ATOM     14  F   UNL     1       0.762   2.636  20.823  0.00  0.00    +0.000 F 
ATOM     15  F   UNL     1       2.724   2.165  20.011  0.00  0.00    +0.000 F 
ENDBRANCH   7  12
ENDBRANCH   3   5
BRANCH   2  16
ATOM     16  C   UNL     1       0.738   9.714  22.456  0.00  0.00    +0.000 C 
BRANCH  16  17
ATOM     17  N   UNL     1      -0.318  10.703  22.114  0.00  0.00    +0.000 N 
ATOM     18  C   UNL     1      -0.333  11.255  20.886  0.00  0.00    +0.000 A 
ATOM     19  C   UNL     1      -1.298  12.185  20.529  0.00  0.00    +0.000 A 
ATOM     20  C   UNL     1      -2.288  12.540  21.447  0.00  0.00    +0.000 A 
ATOM     21  C   UNL     1      -3.300  13.443  21.108  0.00  0.00    +0.000 A 
ATOM     22  C   UNL     1      -4.302  13.761  22.024  0.00  0.00    +0.000 A 
ATOM     23  C   UNL     1      -4.296  13.183  23.293  0.00  0.00    +0.000 A 
ATOM     24  C   UNL     1      -3.276  12.293  23.647  0.00  0.00    +0.000 A 
ATOM     25  C   UNL     1      -2.269  11.955  22.731  0.00  0.00    +0.000 A 
ATOM     26  C   UNL     1      -1.241  11.053  23.038  0.00  0.00    +0.000 A 
ENDBRANCH  16  17
ENDBRANCH   2  16
TORSDOF 4
ENDMDL
MODEL 7
REMARK VINA RESULT:      -7.7      4.762      8.337
REMARK  Name = 
REMARK  4 active torsions:
REMARK  status: ('A' for Active; 'I' for Inactive)
REMARK    1  A    between atoms: C_2  and  C_3
REMARK    2  A    between atoms: C_3  and  N_4
REMARK    3  A    between atoms: N_14  and  C_15
REMARK    4  A    between atoms: C_17  and  C_18
REMARK                            x       y       z     vdW  Elec       q    Type
REMARK                         _______ _______ _______ _____ _____    ______ ____
ROOT
ATOM      1  O   UNL     1       1.979   9.191  17.522  0.00  0.00    +0.000 OA
ATOM      2  C   UNL     1       1.775   8.898  18.701  0.00  0.00    +0.000 C 
ATOM      3  N   UNL     1       2.212   7.757  19.356  0.00  0.00    +0.000 N 
ATOM      4  H   UNL     1       1.723   7.501  20.217  0.00  0.00    +0.000 HD
ENDROOT
BRANCH   3   5
ATOM      5  C   UNL     1       2.833   6.637  18.739  0.00  0.00    +0.000 A 
ATOM      6  C   UNL     1       3.826   6.785  17.770  0.00  0.00    +0.000 A 
ATOM      7  C   UNL     1       4.267   5.697  17.004  0.00  0.00    +0.000 A 
ATOM      8  C   UNL     1       3.777   4.418  17.295  0.00  0.00    +0.000 A 
ATOM      9  C   UNL     1       2.862   4.236  18.336  0.00  0.00    +0.000 A 
ATOM     10  C   UNL     1       2.390   5.339  19.051  0.00  0.00    +0.000 A 
ATOM     11 CL   UNL     1       1.259   5.059  20.331  0.00  0.00    +0.000 Cl
BRANCH   7  12
ATOM     12  C   UNL     1       5.199   5.930  15.841  0.00  0.00    +0.000 C 
ATOM     13  F   UNL     1       5.241   4.894  14.956  0.00  0.00    +0.000 F 
ATOM     14  F   UNL     1       4.857   7.025  15.110  0.00  0.00    +0.000 F 
ATOM     15  F   UNL     1       6.486   6.128  16.239  0.00  0.00    +0.000 F 
ENDBRANCH   7  12
ENDBRANCH   3   5
BRANCH   2  16
ATOM     16  C   UNL     1       1.092   9.908  19.600  0.00  0.00    +0.000 C 
BRANCH  16  17
ATOM     17  N   UNL     1      -0.214  10.338  19.034  0.00  0.00    +0.000 N 
ATOM     18  C   UNL     1      -0.963  11.232  19.707  0.00  0.00    +0.000 A 
ATOM     19  C   UNL     1      -2.189  11.654  19.216  0.00  0.00    +0.000 A 
ATOM     20  C   UNL     1      -2.650  11.165  17.993  0.00  0.00    +0.000 A 
ATOM     21  C   UNL     1      -3.862  11.600  17.448  0.00  0.00    +0.000 A 
ATOM     22  C   UNL     1      -4.290  11.128  16.208  0.00  0.00    +0.000 A 
ATOM     23  C   UNL     1      -3.512  10.210  15.503  0.00  0.00    +0.000 A 
ATOM     24  C   UNL     1      -2.307   9.756  16.049  0.00  0.00    +0.000 A 
ATOM     25  C   UNL     1      -1.858  10.231  17.291  0.00  0.00    +0.000 A 
ATOM     26  C   UNL     1      -0.648   9.818  17.864  0.00  0.00    +0.000 A 
ENDBRANCH  16  17
ENDBRANCH   2  16
TORSDOF 4
ENDMDL
MODEL 8
REMARK VINA RESULT:      -7.6      3.312      4.632
REMARK  Name = 
REMARK  4 active torsions:
REMARK  status: ('A' for Active; 'I' for Inactive)
REMARK    1  A    between atoms: C_2  and  C_3
REMARK    2  A    between atoms: C_3  and  N_4
REMARK    3  A    between atoms: N_14  and  C_15
REMARK    4  A    between atoms: C_17  and  C_18
REMARK                            x       y       z     vdW  Elec       q    Type
REMARK                         _______ _______ _______ _____ _____    ______ ____
ROOT
ATOM      1  O   UNL     1       1.808   8.235  19.498  0.00  0.00    +0.000 OA
ATOM      2  C   UNL     1       2.085   8.646  18.370  0.00  0.00    +0.000 C 
ATOM      3  N   UNL     1       1.438   9.659  17.679  0.00  0.00    +0.000 N 
ATOM      4  H   UNL     1       1.569   9.684  16.664  0.00  0.00    +0.000 HD
ENDROOT
BRANCH   3   5
ATOM      5  C   UNL     1       0.232  10.293  18.080  0.00  0.00    +0.000 A 
ATOM      6  C   UNL     1      -1.020   9.775  17.749  0.00  0.00    +0.000 A 
ATOM      7  C   UNL     1      -2.193  10.518  17.944  0.00  0.00    +0.000 A 
ATOM      8  C   UNL     1      -2.112  11.761  18.582  0.00  0.00    +0.000 A 
ATOM      9  C   UNL     1      -0.876  12.248  19.018  0.00  0.00    +0.000 A 
ATOM     10  C   UNL     1       0.289  11.521  18.765  0.00  0.00    +0.000 A 
ATOM     11 CL   UNL     1       1.793  12.168  19.326  0.00  0.00    +0.000 Cl
BRANCH   7  12
ATOM     12  C   UNL     1      -3.503  10.002  17.401  0.00  0.00    +0.000 C 
ATOM     13  F   UNL     1      -3.455   9.665  16.081  0.00  0.00    +0.000 F 
ATOM     14  F   UNL     1      -3.933   8.886  18.050  0.00  0.00    +0.000 F 
ATOM     15  F   UNL     1      -4.507  10.915  17.514  0.00  0.00    +0.000 F 
ENDBRANCH   7  12
ENDBRANCH   3   5
BRANCH   2  16
ATOM     16  C   UNL     1       3.322   8.111  17.679  0.00  0.00    +0.000 C 
BRANCH  16  17
ATOM     17  N   UNL     1       3.440   6.639  17.847  0.00  0.00    +0.000 N 
ATOM     18  C   UNL     1       4.661   6.070  17.850  0.00  0.00    +0.000 A 
ATOM     19  C   UNL     1       4.813   4.700  17.998  0.00  0.00    +0.000 A 
ATOM     20  C   UNL     1       3.688   3.894  18.171  0.00  0.00    +0.000 A 
ATOM     21  C   UNL     1       3.807   2.514  18.365  0.00  0.00    +0.000 A 
ATOM     22  C   UNL     1       2.674   1.728  18.572  0.00  0.00    +0.000 A 
ATOM     23  C   UNL     1       1.409   2.314  18.581  0.00  0.00    +0.000 A 
ATOM     24  C   UNL     1       1.279   3.691  18.369  0.00  0.00    +0.000 A 
ATOM     25  C   UNL     1       2.412   4.496  18.172  0.00  0.00    +0.000 A 
ATOM     26  C   UNL     1       2.328   5.882  17.976  0.00  0.00    +0.000 A 
ENDBRANCH  16  17
ENDBRANCH   2  16
TORSDOF 4
ENDMDL
MODEL 9
REMARK VINA RESULT:      -7.5      3.145      7.943
REMARK  Name = 
REMARK  4 active torsions:
REMARK  status: ('A' for Active; 'I' for Inactive)
REMARK    1  A    between atoms: C_2  and  C_3
REMARK    2  A    between atoms: C_3  and  N_4
REMARK    3  A    between atoms: N_14  and  C_15
REMARK    4  A    between atoms: C_17  and  C_18
REMARK                            x       y       z     vdW  Elec       q    Type
REMARK                         _______ _______ _______ _____ _____    ______ ____
ROOT
ATOM      1  O   UNL     1       0.891   8.344  17.278  0.00  0.00    +0.000 OA
ATOM      2  C   UNL     1       1.951   8.659  17.822  0.00  0.00    +0.000 C 
ATOM      3  N   UNL     1       3.011   7.815  18.114  0.00  0.00    +0.000 N 
ATOM      4  H   UNL     1       3.676   8.135  18.823  0.00  0.00    +0.000 HD
ENDROOT
BRANCH   3   5
ATOM      5  C   UNL     1       3.000   6.400  17.988  0.00  0.00    +0.000 A 
ATOM      6  C   UNL     1       2.059   5.608  18.647  0.00  0.00    +0.000 A 
ATOM      7  C   UNL     1       2.192   4.213  18.707  0.00  0.00    +0.000 A 
ATOM      8  C   UNL     1       3.232   3.599  17.999  0.00  0.00    +0.000 A 
ATOM      9  C   UNL     1       4.121   4.370  17.245  0.00  0.00    +0.000 A 
ATOM     10  C   UNL     1       4.008   5.762  17.242  0.00  0.00    +0.000 A 
ATOM     11 CL   UNL     1       5.133   6.670  16.290  0.00  0.00    +0.000 Cl
BRANCH   7  12
ATOM     12  C   UNL     1       1.264   3.411  19.585  0.00  0.00    +0.000 C 
ATOM     13  F   UNL     1       0.471   4.176  20.388  0.00  0.00    +0.000 F 
ATOM     14  F   UNL     1       0.413   2.629  18.866  0.00  0.00    +0.000 F 
ATOM     15  F   UNL     1       1.935   2.572  20.419  0.00  0.00    +0.000 F 
ENDBRANCH   7  12
ENDBRANCH   3   5
BRANCH   2  16
ATOM     16  C   UNL     1       2.221  10.121  18.107  0.00  0.00    +0.000 C 
BRANCH  16  17
ATOM     17  N   UNL     1       1.233  10.676  19.069  0.00  0.00    +0.000 N 
ATOM     18  C   UNL     1       0.524  11.769  18.731  0.00  0.00    +0.000 A 
ATOM     19  C   UNL     1      -0.403  12.320  19.603  0.00  0.00    +0.000 A 
ATOM     20  C   UNL     1      -0.627  11.722  20.844  0.00  0.00    +0.000 A 
ATOM     21  C   UNL     1      -1.583  12.226  21.730  0.00  0.00    +0.000 A 
ATOM     22  C   UNL     1      -1.819  11.596  22.952  0.00  0.00    +0.000 A 
ATOM     23  C   UNL     1      -1.094  10.457  23.301  0.00  0.00    +0.000 A 
ATOM     24  C   UNL     1      -0.122   9.957  22.427  0.00  0.00    +0.000 A 
ATOM     25  C   UNL     1       0.117  10.574  21.190  0.00  0.00    +0.000 A 
ATOM     26  C   UNL     1       1.067  10.093  20.278  0.00  0.00    +0.000 A 
ENDBRANCH  16  17
ENDBRANCH   2  16
TORSDOF 4
ENDMDL
