MODEL 1
REMARK VINA RESULT:      -7.3      0.000      0.000
REMARK  Name = 
REMARK  5 active torsions:
REMARK  status: ('A' for Active; 'I' for Inactive)
REMARK    1  A    between atoms: C_1  and  C_2
REMARK    2  A    between atoms: C_2  and  C_3
REMARK    3  A    between atoms: C_2  and  C_4
REMARK    4  A    between atoms: C_2  and  C_5
REMARK    5  A    between atoms: C_10  and  C_12
REMARK                            x       y       z     vdW  Elec       q    Type
REMARK                         _______ _______ _______ _____ _____    ______ ____
ROOT
ATOM      1  C   UNL     1       4.750   4.855  17.671  0.00  0.00    +0.000 A 
ATOM      2  C   UNL     1       4.461   3.799  18.522  0.00  0.00    +0.000 A 
ATOM      3  S   UNL     1       3.418   4.320  19.788  0.00  0.00    +0.000 S 
ATOM      4  C   UNL     1       3.384   5.873  19.091  0.00  0.00    +0.000 A 
ATOM      5  N   UNL     1       2.611   6.799  19.736  0.00  0.00    +0.000 N 
ATOM      6  C   UNL     1       2.218   7.960  19.104  0.00  0.00    +0.000 C 
ATOM      7  O   UNL     1       2.506   8.245  17.940  0.00  0.00    +0.000 OA
ATOM      8  N   UNL     1       4.096   6.031  18.005  0.00  0.00    +0.000 NA
ATOM      9  H   UNL     1       2.255   6.574  20.651  0.00  0.00    +0.000 HD
ENDROOT
BRANCH   6  10
ATOM     10  C   UNL     1       1.369   8.859  19.881  0.00  0.00    +0.000 A 
ATOM     11  C   UNL     1       0.966   8.643  21.190  0.00  0.00    +0.000 A 
ATOM     12  C   UNL     1       0.136   9.679  21.700  0.00  0.00    +0.000 A 
ATOM     13  C   UNL     1      -0.102  10.634  20.731  0.00  0.00    +0.000 A 
ATOM     14  S   UNL     1       0.731  10.332  19.279  0.00  0.00    +0.000 S 
ATOM     15  C   UNL     1      -0.978  11.825  20.959  0.00  0.00    +0.000 C 
ATOM     16  C   UNL     1      -1.810  11.598  22.244  0.00  0.00    +0.000 C 
ATOM     17  N   UNL     1      -0.971  11.102  23.349  0.00  0.00    +0.000 NA
ATOM     18  C   UNL     1      -0.474   9.743  23.072  0.00  0.00    +0.000 C 
ATOM     19  H   UNL     1      -1.514  11.079  24.211  0.00  0.00    +0.000 HD
ENDBRANCH   6  10
BRANCH   1  21
ATOM     20  C   UNL     1       7.148   4.887  16.915  0.00  0.00    +0.000 C 
ATOM     21  C   UNL     1       5.676   4.852  16.461  0.00  0.00    +0.000 C 
ATOM     22  C   UNL     1       5.402   6.082  15.572  0.00  0.00    +0.000 C 
ATOM     23  C   UNL     1       5.462   3.591  15.593  0.00  0.00    +0.000 C 
ENDBRANCH   1  21
TORSDOF 2
ENDMDL
MODEL 2
REMARK VINA RESULT:      -7.2      0.928      1.409
REMARK  Name = 
REMARK  5 active torsions:
REMARK  status: ('A' for Active; 'I' for Inactive)
REMARK    1  A    between atoms: C_1  and  C_2
REMARK    2  A    between atoms: C_2  and  C_3
REMARK    3  A    between atoms: C_2  and  C_4
REMARK    4  A    between atoms: C_2  and  C_5
REMARK    5  A    between atoms: C_10  and  C_12
REMARK                            x       y       z     vdW  Elec       q    Type
REMARK                         _______ _______ _______ _____ _____    ______ ____
ROOT
ATOM      1  C   UNL     1       4.735   4.876  17.761  0.00  0.00    +0.000 A 
ATOM      2  C   UNL     1       4.425   3.788  18.563  0.00  0.00    +0.000 A 
ATOM      3  S   UNL     1       3.343   4.259  19.816  0.00  0.00    +0.000 S 
ATOM      4  C   UNL     1       3.324   5.836  19.177  0.00  0.00    +0.000 A 
ATOM      5  N   UNL     1       2.530   6.736  19.833  0.00  0.00    +0.000 N 
ATOM      6  C   UNL     1       2.151   7.919  19.234  0.00  0.00    +0.000 C 
ATOM      7  O   UNL     1       2.472   8.249  18.091  0.00  0.00    +0.000 OA
ATOM      8  N   UNL     1       4.068   6.037  18.119  0.00  0.00    +0.000 NA
ATOM      9  H   UNL     1       2.148   6.476  20.728  0.00  0.00    +0.000 HD
ENDROOT
BRANCH   6  10
ATOM     10  C   UNL     1       1.277   8.786  20.019  0.00  0.00    +0.000 A 
ATOM     11  C   UNL     1       0.640   9.920  19.540  0.00  0.00    +0.000 A 
ATOM     12  C   UNL     1      -0.147  10.580  20.524  0.00  0.00    +0.000 A 
ATOM     13  C   UNL     1      -0.039   9.940  21.742  0.00  0.00    +0.000 A 
ATOM     14  S   UNL     1       0.909   8.529  21.673  0.00  0.00    +0.000 S 
ATOM     15  C   UNL     1      -0.721  10.428  22.982  0.00  0.00    +0.000 C 
ATOM     16  C   UNL     1      -1.206  11.879  22.750  0.00  0.00    +0.000 C 
ATOM     17  N   UNL     1      -1.890  12.018  21.453  0.00  0.00    +0.000 NA
ATOM     18  C   UNL     1      -0.950  11.836  20.332  0.00  0.00    +0.000 C 
ATOM     19  H   UNL     1      -2.305  12.946  21.379  0.00  0.00    +0.000 HD
ENDBRANCH   6  10
BRANCH   1  21
ATOM     20  C   UNL     1       7.151   5.016  17.077  0.00  0.00    +0.000 C 
ATOM     21  C   UNL     1       5.696   4.921  16.579  0.00  0.00    +0.000 C 
ATOM     22  C   UNL     1       5.395   6.143  15.688  0.00  0.00    +0.000 C 
ATOM     23  C   UNL     1       5.562   3.657  15.699  0.00  0.00    +0.000 C 
ENDBRANCH   1  21
TORSDOF 2
ENDMDL
MODEL 3
REMARK VINA RESULT:      -7.1      0.465      1.027
REMARK  Name = 
REMARK  5 active torsions:
REMARK  status: ('A' for Active; 'I' for Inactive)
REMARK    1  A    between atoms: C_1  and  C_2
REMARK    2  A    between atoms: C_2  and  C_3
REMARK    3  A    between atoms: C_2  and  C_4
REMARK    4  A    between atoms: C_2  and  C_5
REMARK    5  A    between atoms: C_10  and  C_12
REMARK                            x       y       z     vdW  Elec       q    Type
REMARK                         _______ _______ _______ _____ _____    ______ ____
ROOT
ATOM      1  C   UNL     1       4.532   4.880  18.154  0.00  0.00    +0.000 A 
ATOM      2  C   UNL     1       4.148   3.856  19.007  0.00  0.00    +0.000 A 
ATOM      3  S   UNL     1       3.048   4.447  20.192  0.00  0.00    +0.000 S 
ATOM      4  C   UNL     1       3.120   5.982  19.460  0.00  0.00    +0.000 A 
ATOM      5  N   UNL     1       2.345   6.952  20.034  0.00  0.00    +0.000 N 
ATOM      6  C   UNL     1       2.038   8.112  19.353  0.00  0.00    +0.000 C 
ATOM      7  O   UNL     1       2.411   8.358  18.204  0.00  0.00    +0.000 OA
ATOM      8  N   UNL     1       3.905   6.087  18.420  0.00  0.00    +0.000 NA
ATOM      9  H   UNL     1       1.923   6.764  20.929  0.00  0.00    +0.000 HD
ENDROOT
BRANCH   6  10
ATOM     10  C   UNL     1       1.178   9.061  20.054  0.00  0.00    +0.000 A 
ATOM     11  C   UNL     1       0.743   8.927  21.363  0.00  0.00    +0.000 A 
ATOM     12  C   UNL     1      -0.091   9.997  21.791  0.00  0.00    +0.000 A 
ATOM     13  C   UNL     1      -0.299  10.893  20.761  0.00  0.00    +0.000 A 
ATOM     14  S   UNL     1       0.567  10.499  19.350  0.00  0.00    +0.000 S 
ATOM     15  C   UNL     1      -1.171  12.101  20.896  0.00  0.00    +0.000 C 
ATOM     16  C   UNL     1      -2.034  11.957  22.171  0.00  0.00    +0.000 C 
ATOM     17  N   UNL     1      -1.225  11.523  23.324  0.00  0.00    +0.000 NA
ATOM     18  C   UNL     1      -0.733  10.146  23.142  0.00  0.00    +0.000 C 
ATOM     19  H   UNL     1      -1.789  11.555  24.172  0.00  0.00    +0.000 HD
ENDBRANCH   6  10
BRANCH   1  21
ATOM     20  C   UNL     1       5.443   6.086  16.145  0.00  0.00    +0.000 C 
ATOM     21  C   UNL     1       5.532   4.812  17.006  0.00  0.00    +0.000 C 
ATOM     22  C   UNL     1       5.243   3.589  16.113  0.00  0.00    +0.000 C 
ATOM     23  C   UNL     1       6.980   4.676  17.531  0.00  0.00    +0.000 C 
ENDBRANCH   1  21
TORSDOF 2
ENDMDL
MODEL 4
REMARK VINA RESULT:      -7.0      1.815      2.298
REMARK  Name = 
REMARK  5 active torsions:
REMARK  status: ('A' for Active; 'I' for Inactive)
REMARK    1  A    between atoms: C_1  and  C_2
REMARK    2  A    between atoms: C_2  and  C_3
REMARK    3  A    between atoms: C_2  and  C_4
REMARK    4  A    between atoms: C_2  and  C_5
REMARK    5  A    between atoms: C_10  and  C_12
REMARK                            x       y       z     vdW  Elec       q    Type
REMARK                         _______ _______ _______ _____ _____    ______ ____
ROOT
ATOM      1  C   UNL     1       4.854   5.751  17.850  0.00  0.00    +0.000 A 
ATOM      2  C   UNL     1       4.454   4.763  18.737  0.00  0.00    +0.000 A 
ATOM      3  S   UNL     1       3.115   5.308  19.672  0.00  0.00    +0.000 S 
ATOM      4  C   UNL     1       3.132   6.772  18.803  0.00  0.00    +0.000 A 
ATOM      5  N   UNL     1       2.170   7.680  19.147  0.00  0.00    +0.000 N 
ATOM      6  C   UNL     1       1.850   8.729  18.310  0.00  0.00    +0.000 C 
ATOM      7  O   UNL     1       2.376   8.921  17.212  0.00  0.00    +0.000 OA
ATOM      8  N   UNL     1       4.061   6.887  17.889  0.00  0.00    +0.000 NA
ATOM      9  H   UNL     1       1.631   7.517  19.982  0.00  0.00    +0.000 HD
ENDROOT
BRANCH   6  10
ATOM     10  C   UNL     1       0.786   9.616  18.768  0.00  0.00    +0.000 A 
ATOM     11  C   UNL     1      -0.212  10.147  17.964  0.00  0.00    +0.000 A 
ATOM     12  C   UNL     1      -1.116  10.987  18.672  0.00  0.00    +0.000 A 
ATOM     13  C   UNL     1      -0.739  11.101  19.996  0.00  0.00    +0.000 A 
ATOM     14  S   UNL     1       0.612  10.146  20.389  0.00  0.00    +0.000 S 
ATOM     15  C   UNL     1      -1.474  11.955  20.980  0.00  0.00    +0.000 C 
ATOM     16  C   UNL     1      -2.417  12.911  20.212  0.00  0.00    +0.000 C 
ATOM     17  N   UNL     1      -3.179  12.196  19.173  0.00  0.00    +0.000 NA
ATOM     18  C   UNL     1      -2.294  11.720  18.095  0.00  0.00    +0.000 C 
ATOM     19  H   UNL     1      -3.877  12.818  18.768  0.00  0.00    +0.000 HD
ENDBRANCH   6  10
BRANCH   1  21
ATOM     20  C   UNL     1       7.008   6.866  17.184  0.00  0.00    +0.000 C 
ATOM     21  C   UNL     1       6.031   5.715  16.881  0.00  0.00    +0.000 C 
ATOM     22  C   UNL     1       5.534   5.854  15.428  0.00  0.00    +0.000 C 
ATOM     23  C   UNL     1       6.802   4.379  16.985  0.00  0.00    +0.000 C 
ENDBRANCH   1  21
TORSDOF 2
ENDMDL
MODEL 5
REMARK VINA RESULT:      -6.9      2.176      8.217
REMARK  Name = 
REMARK  5 active torsions:
REMARK  status: ('A' for Active; 'I' for Inactive)
REMARK    1  A    between atoms: C_1  and  C_2
REMARK    2  A    between atoms: C_2  and  C_3
REMARK    3  A    between atoms: C_2  and  C_4
REMARK    4  A    between atoms: C_2  and  C_5
REMARK    5  A    between atoms: C_10  and  C_12
REMARK                            x       y       z     vdW  Elec       q    Type
REMARK                         _______ _______ _______ _____ _____    ______ ____
ROOT
ATOM      1  C   UNL     1      -0.617  11.269  21.083  0.00  0.00    +0.000 A 
ATOM      2  C   UNL     1      -0.765  11.149  22.457  0.00  0.00    +0.000 A 
ATOM      3  S   UNL     1      -0.155   9.630  22.991  0.00  0.00    +0.000 S 
ATOM      4  C   UNL     1       0.302   9.276  21.390  0.00  0.00    +0.000 A 
ATOM      5  N   UNL     1       0.919   8.070  21.200  0.00  0.00    +0.000 N 
ATOM      6  C   UNL     1       1.641   7.814  20.054  0.00  0.00    +0.000 C 
ATOM      7  O   UNL     1       1.800   8.627  19.141  0.00  0.00    +0.000 OA
ATOM      8  N   UNL     1       0.023  10.190  20.497  0.00  0.00    +0.000 NA
ATOM      9  H   UNL     1       0.915   7.403  21.955  0.00  0.00    +0.000 HD
ENDROOT
BRANCH   6  10
ATOM     10  C   UNL     1       2.281   6.504  19.975  0.00  0.00    +0.000 A 
ATOM     11  C   UNL     1       3.438   6.222  19.264  0.00  0.00    +0.000 A 
ATOM     12  C   UNL     1       3.836   4.860  19.357  0.00  0.00    +0.000 A 
ATOM     13  C   UNL     1       2.928   4.137  20.106  0.00  0.00    +0.000 A 
ATOM     14  S   UNL     1       1.685   5.099  20.757  0.00  0.00    +0.000 S 
ATOM     15  C   UNL     1       3.056   2.666  20.343  0.00  0.00    +0.000 C 
ATOM     16  C   UNL     1       4.090   2.085  19.350  0.00  0.00    +0.000 C 
ATOM     17  N   UNL     1       5.308   2.912  19.294  0.00  0.00    +0.000 NA
ATOM     18  C   UNL     1       5.031   4.230  18.698  0.00  0.00    +0.000 C 
ATOM     19  H   UNL     1       6.017   2.444  18.730  0.00  0.00    +0.000 HD
ENDBRANCH   6  10
BRANCH   1  21
ATOM     20  C   UNL     1      -2.510  12.840  20.558  0.00  0.00    +0.000 C 
ATOM     21  C   UNL     1      -1.073  12.420  20.194  0.00  0.00    +0.000 C 
ATOM     22  C   UNL     1      -1.042  11.997  18.711  0.00  0.00    +0.000 C 
ATOM     23  C   UNL     1      -0.149  13.649  20.348  0.00  0.00    +0.000 C 
ENDBRANCH   1  21
TORSDOF 2
ENDMDL
MODEL 6
REMARK VINA RESULT:      -6.8      1.520      2.236
REMARK  Name = 
REMARK  5 active torsions:
REMARK  status: ('A' for Active; 'I' for Inactive)
REMARK    1  A    between atoms: C_1  and  C_2
REMARK    2  A    between atoms: C_2  and  C_3
REMARK    3  A    between atoms: C_2  and  C_4
REMARK    4  A    between atoms: C_2  and  C_5
REMARK    5  A    between atoms: C_10  and  C_12
REMARK                            x       y       z     vdW  Elec       q    Type
REMARK                         _______ _______ _______ _____ _____    ______ ____
ROOT
ATOM      1  C   UNL     1       4.661   5.186  17.959  0.00  0.00    +0.000 A 
ATOM      2  C   UNL     1       4.250   4.276  18.921  0.00  0.00    +0.000 A 
ATOM      3  S   UNL     1       3.032   4.972  19.919  0.00  0.00    +0.000 S 
ATOM      4  C   UNL     1       3.102   6.389  18.978  0.00  0.00    +0.000 A 
ATOM      5  N   UNL     1       2.244   7.389  19.343  0.00  0.00    +0.000 N 
ATOM      6  C   UNL     1       1.948   8.422  18.478  0.00  0.00    +0.000 C 
ATOM      7  O   UNL     1       2.405   8.521  17.338  0.00  0.00    +0.000 OA
ATOM      8  N   UNL     1       3.967   6.385  17.997  0.00  0.00    +0.000 NA
ATOM      9  H   UNL     1       1.757   7.308  20.221  0.00  0.00    +0.000 HD
ENDROOT
BRANCH   6  10
ATOM     10  C   UNL     1       0.995   9.415  18.965  0.00  0.00    +0.000 A 
ATOM     11  C   UNL     1       0.173  10.193  18.163  0.00  0.00    +0.000 A 
ATOM     12  C   UNL     1      -0.653  11.083  18.903  0.00  0.00    +0.000 A 
ATOM     13  C   UNL     1      -0.391  10.982  20.255  0.00  0.00    +0.000 A 
ATOM     14  S   UNL     1       0.752   9.777  20.623  0.00  0.00    +0.000 S 
ATOM     15  C   UNL     1      -1.075  11.827  21.282  0.00  0.00    +0.000 C 
ATOM     16  C   UNL     1      -1.781  13.007  20.574  0.00  0.00    +0.000 C 
ATOM     17  N   UNL     1      -2.542  12.552  19.397  0.00  0.00    +0.000 NA
ATOM     18  C   UNL     1      -1.643  12.063  18.337  0.00  0.00    +0.000 C 
ATOM     19  H   UNL     1      -3.093  13.323  19.024  0.00  0.00    +0.000 HD
ENDBRANCH   6  10
BRANCH   1  21
ATOM     20  C   UNL     1       5.482   3.753  16.063  0.00  0.00    +0.000 C 
ATOM     21  C   UNL     1       5.755   5.008  16.914  0.00  0.00    +0.000 C 
ATOM     22  C   UNL     1       7.130   4.856  17.595  0.00  0.00    +0.000 C 
ATOM     23  C   UNL     1       5.835   6.230  15.970  0.00  0.00    +0.000 C 
ENDBRANCH   1  21
TORSDOF 2
ENDMDL
MODEL 7
REMARK VINA RESULT:      -6.8      2.157      8.144
REMARK  Name = 
REMARK  5 active torsions:
REMARK  status: ('A' for Active; 'I' for Inactive)
REMARK    1  A    between atoms: C_1  and  C_2
REMARK    2  A    between atoms: C_2  and  C_3
REMARK    3  A    between atoms: C_2  and  C_4
REMARK    4  A    between atoms: C_2  and  C_5
REMARK    5  A    between atoms: C_10  and  C_12
REMARK                            x       y       z     vdW  Elec       q    Type
REMARK                         _______ _______ _______ _____ _____    ______ ____
ROOT
ATOM      1  C   UNL     1      -0.690  11.328  20.803  0.00  0.00    +0.000 A 
ATOM      2  C   UNL     1      -0.880  11.239  22.174  0.00  0.00    +0.000 A 
ATOM      3  S   UNL     1      -0.273   9.739  22.764  0.00  0.00    +0.000 S 
ATOM      4  C   UNL     1       0.238   9.351  21.187  0.00  0.00    +0.000 A 
ATOM      5  N   UNL     1       0.871   8.147  21.046  0.00  0.00    +0.000 N 
ATOM      6  C   UNL     1       1.632   7.871  19.929  0.00  0.00    +0.000 C 
ATOM      7  O   UNL     1       1.812   8.663  19.003  0.00  0.00    +0.000 OA
ATOM      8  N   UNL     1      -0.021  10.240  20.264  0.00  0.00    +0.000 NA
ATOM      9  H   UNL     1       0.849   7.499  21.816  0.00  0.00    +0.000 HD
ENDROOT
BRANCH   6  10
ATOM     10  C   UNL     1       2.285   6.566  19.902  0.00  0.00    +0.000 A 
ATOM     11  C   UNL     1       3.416   6.254  19.162  0.00  0.00    +0.000 A 
ATOM     12  C   UNL     1       3.835   4.904  19.319  0.00  0.00    +0.000 A 
ATOM     13  C   UNL     1       2.969   4.219  20.148  0.00  0.00    +0.000 A 
ATOM     14  S   UNL     1       1.741   5.204  20.791  0.00  0.00    +0.000 S 
ATOM     15  C   UNL     1       3.127   2.765  20.466  0.00  0.00    +0.000 C 
ATOM     16  C   UNL     1       4.127   2.137  19.467  0.00  0.00    +0.000 C 
ATOM     17  N   UNL     1       5.331   2.973  19.311  0.00  0.00    +0.000 NA
ATOM     18  C   UNL     1       5.011   4.250  18.650  0.00  0.00    +0.000 C 
ATOM     19  H   UNL     1       6.021   2.480  18.747  0.00  0.00    +0.000 HD
ENDBRANCH   6  10
BRANCH   1  21
ATOM     20  C   UNL     1       0.102  13.132  19.241  0.00  0.00    +0.000 C 
ATOM     21  C   UNL     1      -1.128  12.452  19.872  0.00  0.00    +0.000 C 
ATOM     22  C   UNL     1      -1.936  13.509  20.650  0.00  0.00    +0.000 C 
ATOM     23  C   UNL     1      -2.029  11.919  18.735  0.00  0.00    +0.000 C 
ENDBRANCH   1  21
TORSDOF 2
ENDMDL
MODEL 8
REMARK VINA RESULT:      -6.6      1.995      8.364
REMARK  Name = 
REMARK  5 active torsions:
REMARK  status: ('A' for Active; 'I' for Inactive)
REMARK    1  A    between atoms: C_1  and  C_2
REMARK    2  A    between atoms: C_2  and  C_3
REMARK    3  A    between atoms: C_2  and  C_4
REMARK    4  A    between atoms: C_2  and  C_5
REMARK    5  A    between atoms: C_10  and  C_12
REMARK                            x       y       z     vdW  Elec       q    Type
REMARK                         _______ _______ _______ _____ _____    ______ ____
ROOT
ATOM      1  C   UNL     1      -0.485  11.155  20.160  0.00  0.00    +0.000 A 
ATOM      2  C   UNL     1      -0.257  10.920  21.508  0.00  0.00    +0.000 A 
ATOM      3  S   UNL     1       0.777   9.558  21.709  0.00  0.00    +0.000 S 
ATOM      4  C   UNL     1       0.886   9.419  20.016  0.00  0.00    +0.000 A 
ATOM      5  N   UNL     1       1.679   8.405  19.552  0.00  0.00    +0.000 N 
ATOM      6  C   UNL     1       2.131   8.398  18.249  0.00  0.00    +0.000 C 
ATOM      7  O   UNL     1       1.880   9.278  17.425  0.00  0.00    +0.000 OA
ATOM      8  N   UNL     1       0.205  10.294  19.322  0.00  0.00    +0.000 NA
ATOM      9  H   UNL     1       2.005   7.712  20.205  0.00  0.00    +0.000 HD
ENDROOT
BRANCH   6  10
ATOM     10  C   UNL     1       2.995   7.282  17.875  0.00  0.00    +0.000 A 
ATOM     11  C   UNL     1       4.235   7.403  17.265  0.00  0.00    +0.000 A 
ATOM     12  C   UNL     1       4.859   6.150  17.008  0.00  0.00    +0.000 A 
ATOM     13  C   UNL     1       4.038   5.110  17.394  0.00  0.00    +0.000 A 
ATOM     14  S   UNL     1       2.598   5.634  18.133  0.00  0.00    +0.000 S 
ATOM     15  C   UNL     1       4.405   3.671  17.207  0.00  0.00    +0.000 C 
ATOM     16  C   UNL     1       5.598   3.580  16.228  0.00  0.00    +0.000 C 
ATOM     17  N   UNL     1       6.652   4.551  16.570  0.00  0.00    +0.000 NA
ATOM     18  C   UNL     1       6.194   5.934  16.352  0.00  0.00    +0.000 C 
ATOM     19  H   UNL     1       7.473   4.387  15.989  0.00  0.00    +0.000 HD
ENDBRANCH   6  10
BRANCH   1  21
ATOM     20  C   UNL     1      -2.235  11.603  18.410  0.00  0.00    +0.000 C 
ATOM     21  C   UNL     1      -1.384  12.217  19.538  0.00  0.00    +0.000 C 
ATOM     22  C   UNL     1      -0.534  13.361  18.950  0.00  0.00    +0.000 C 
ATOM     23  C   UNL     1      -2.335  12.833  20.589  0.00  0.00    +0.000 C 
ENDBRANCH   1  21
TORSDOF 2
ENDMDL
MODEL 9
REMARK VINA RESULT:      -6.6      1.487      1.618
REMARK  Name = 
REMARK  5 active torsions:
REMARK  status: ('A' for Active; 'I' for Inactive)
REMARK    1  A    between atoms: C_1  and  C_2
REMARK    2  A    between atoms: C_2  and  C_3
REMARK    3  A    between atoms: C_2  and  C_4
REMARK    4  A    between atoms: C_2  and  C_5
REMARK    5  A    between atoms: C_10  and  C_12
REMARK                            x       y       z     vdW  Elec       q    Type
REMARK                         _______ _______ _______ _____ _____    ______ ____
ROOT
ATOM      1  C   UNL     1       4.398   5.802  17.771  0.00  0.00    +0.000 A 
ATOM      2  C   UNL     1       4.003   4.827  18.675  0.00  0.00    +0.000 A 
ATOM      3  S   UNL     1       2.787   5.445  19.726  0.00  0.00    +0.000 S 
ATOM      4  C   UNL     1       2.837   6.921  18.879  0.00  0.00    +0.000 A 
ATOM      5  N   UNL     1       1.972   7.887  19.316  0.00  0.00    +0.000 N 
ATOM      6  C   UNL     1       1.660   8.971  18.523  0.00  0.00    +0.000 C 
ATOM      7  O   UNL     1       2.106   9.149  17.388  0.00  0.00    +0.000 OA
ATOM      8  N   UNL     1       3.693   6.989  17.893  0.00  0.00    +0.000 NA
ATOM      9  H   UNL     1       1.494   7.744  20.190  0.00  0.00    +0.000 HD
ENDROOT
BRANCH   6  10
ATOM     10  C   UNL     1       0.702   9.921  19.081  0.00  0.00    +0.000 A 
ATOM     11  C   UNL     1       0.822  10.543  20.315  0.00  0.00    +0.000 A 
ATOM     12  C   UNL     1      -0.260  11.418  20.610  0.00  0.00    +0.000 A 
ATOM     13  C   UNL     1      -1.197  11.392  19.597  0.00  0.00    +0.000 A 
ATOM     14  S   UNL     1      -0.734  10.412  18.285  0.00  0.00    +0.000 S 
ATOM     15  C   UNL     1      -2.470  12.177  19.644  0.00  0.00    +0.000 C 
ATOM     16  C   UNL     1      -2.701  12.673  21.091  0.00  0.00    +0.000 C 
ATOM     17  N   UNL     1      -1.475  13.256  21.664  0.00  0.00    +0.000 NA
ATOM     18  C   UNL     1      -0.438  12.229  21.863  0.00  0.00    +0.000 C 
ATOM     19  H   UNL     1      -1.685  13.683  22.565  0.00  0.00    +0.000 HD
ENDBRANCH   6  10
BRANCH   1  21
ATOM     20  C   UNL     1       6.837   6.166  17.281  0.00  0.00    +0.000 C 
ATOM     21  C   UNL     1       5.485   5.703  16.708  0.00  0.00    +0.000 C 
ATOM     22  C   UNL     1       5.132   6.588  15.495  0.00  0.00    +0.000 C 
ATOM     23  C   UNL     1       5.640   4.252  16.197  0.00  0.00    +0.000 C 
ENDBRANCH   1  21
TORSDOF 2
ENDMDL
