MODEL 1
REMARK VINA RESULT:      -7.8      0.000      0.000
REMARK  Name = 
REMARK  7 active torsions:
REMARK  status: ('A' for Active; 'I' for Inactive)
REMARK    1  A    between atoms: C_1  and  C_2
REMARK    2  A    between atoms: C_2  and  C_3
REMARK    3  A    between atoms: C_2  and  C_4
REMARK    4  A    between atoms: C_4  and  N_5
REMARK    5  A    between atoms: C_4  and  C_14
REMARK    6  A    between atoms: C_6  and  C_8
REMARK    7  A    between atoms: N_17  and  C_18
REMARK                            x       y       z     vdW  Elec       q    Type
REMARK                         _______ _______ _______ _____ _____    ______ ____
ROOT
ATOM      1  C   UNL     1       6.075   6.149  16.840  0.00  0.00    +0.000 C 
ENDROOT
BRANCH   1   2
ATOM      2  C   UNL     1       6.351   5.427  15.549  0.00  0.00    +0.000 A 
ATOM      3  N   UNL     1       7.518   5.576  14.845  0.00  0.00    +0.000 NA
ATOM      4  N   UNL     1       7.381   4.870  13.731  0.00  0.00    +0.000 NA
ATOM      5  N   UNL     1       6.148   4.348  13.801  0.00  0.00    +0.000 N 
ATOM      6  C   UNL     1       5.639   3.450  12.798  0.00  0.00    +0.000 C 
ATOM      7  N   UNL     1       5.441   4.662  14.906  0.00  0.00    +0.000 NA
ENDBRANCH   1   2
BRANCH   1   8
ATOM      8  N   UNL     1       4.942   5.474  17.475  0.00  0.00    +0.000 N 
ATOM      9  C   UNL     1       3.779   6.104  17.837  0.00  0.00    +0.000 C 
ATOM     10  O   UNL     1       3.540   7.285  17.610  0.00  0.00    +0.000 OA
ATOM     11  H   UNL     1       5.015   4.466  17.534  0.00  0.00    +0.000 HD
BRANCH   9  12
ATOM     12  C   UNL     1       2.782   5.232  18.510  0.00  0.00    +0.000 A 
ATOM     13  C   UNL     1       2.415   5.457  19.843  0.00  0.00    +0.000 A 
ATOM     14  C   UNL     1       1.498   4.609  20.469  0.00  0.00    +0.000 A 
ATOM     15  C   UNL     1       0.944   3.542  19.764  0.00  0.00    +0.000 A 
ATOM     16  C   UNL     1       1.288   3.331  18.428  0.00  0.00    +0.000 A 
ATOM     17  C   UNL     1       2.200   4.180  17.796  0.00  0.00    +0.000 A 
ENDBRANCH   9  12
ENDBRANCH   1   8
BRANCH   1  19
ATOM     18  C   UNL     1       6.990   5.637  19.187  0.00  0.00    +0.000 C 
ATOM     19  C   UNL     1       7.286   6.239  17.809  0.00  0.00    +0.000 C 
ATOM     20  C   UNL     1       7.851   7.656  17.969  0.00  0.00    +0.000 C 
ENDBRANCH   1  19
TORSDOF 4
ENDMDL
MODEL 2
REMARK VINA RESULT:      -7.8      0.085      1.113
REMARK  Name = 
REMARK  7 active torsions:
REMARK  status: ('A' for Active; 'I' for Inactive)
REMARK    1  A    between atoms: C_1  and  C_2
REMARK    2  A    between atoms: C_2  and  C_3
REMARK    3  A    between atoms: C_2  and  C_4
REMARK    4  A    between atoms: C_4  and  N_5
REMARK    5  A    between atoms: C_4  and  C_14
REMARK    6  A    between atoms: C_6  and  C_8
REMARK    7  A    between atoms: N_17  and  C_18
REMARK                            x       y       z     vdW  Elec       q    Type
REMARK                         _______ _______ _______ _____ _____    ______ ____
ROOT
ATOM      1  C   UNL     1       6.065   6.121  16.747  0.00  0.00    +0.000 C 
ENDROOT
BRANCH   1   2
ATOM      2  C   UNL     1       6.347   5.380  15.468  0.00  0.00    +0.000 A 
ATOM      3  N   UNL     1       7.524   5.507  14.775  0.00  0.00    +0.000 NA
ATOM      4  N   UNL     1       7.392   4.788  13.668  0.00  0.00    +0.000 NA
ATOM      5  N   UNL     1       6.152   4.281  13.732  0.00  0.00    +0.000 N 
ATOM      6  C   UNL     1       5.644   3.377  12.734  0.00  0.00    +0.000 C 
ATOM      7  N   UNL     1       5.436   4.617  14.823  0.00  0.00    +0.000 NA
ENDBRANCH   1   2
BRANCH   1   8
ATOM      8  N   UNL     1       4.947   5.440  17.399  0.00  0.00    +0.000 N 
ATOM      9  C   UNL     1       3.794   6.066  17.798  0.00  0.00    +0.000 C 
ATOM     10  O   UNL     1       3.551   7.250  17.594  0.00  0.00    +0.000 OA
ATOM     11  H   UNL     1       5.020   4.430  17.443  0.00  0.00    +0.000 HD
BRANCH   9  12
ATOM     12  C   UNL     1       2.812   5.186  18.483  0.00  0.00    +0.000 A 
ATOM     13  C   UNL     1       2.233   4.099  17.816  0.00  0.00    +0.000 A 
ATOM     14  C   UNL     1       1.289   3.301  18.466  0.00  0.00    +0.000 A 
ATOM     15  C   UNL     1       0.927   3.584  19.783  0.00  0.00    +0.000 A 
ATOM     16  C   UNL     1       1.521   4.651  20.459  0.00  0.00    +0.000 A 
ATOM     17  C   UNL     1       2.470   5.449  19.814  0.00  0.00    +0.000 A 
ENDBRANCH   9  12
ENDBRANCH   1   8
BRANCH   1  19
ATOM     18  C   UNL     1       7.015   5.631  19.084  0.00  0.00    +0.000 C 
ATOM     19  C   UNL     1       7.278   6.250  17.708  0.00  0.00    +0.000 C 
ATOM     20  C   UNL     1       7.793   7.686  17.872  0.00  0.00    +0.000 C 
ENDBRANCH   1  19
TORSDOF 4
ENDMDL
MODEL 3
REMARK VINA RESULT:      -7.6      1.016      1.481
REMARK  Name = 
REMARK  7 active torsions:
REMARK  status: ('A' for Active; 'I' for Inactive)
REMARK    1  A    between atoms: C_1  and  C_2
REMARK    2  A    between atoms: C_2  and  C_3
REMARK    3  A    between atoms: C_2  and  C_4
REMARK    4  A    between atoms: C_4  and  N_5
REMARK    5  A    between atoms: C_4  and  C_14
REMARK    6  A    between atoms: C_6  and  C_8
REMARK    7  A    between atoms: N_17  and  C_18
REMARK                            x       y       z     vdW  Elec       q    Type
REMARK                         _______ _______ _______ _____ _____    ______ ____
ROOT
ATOM      1  C   UNL     1       6.152   5.675  16.037  0.00  0.00    +0.000 C 
ENDROOT
BRANCH   1   2
ATOM      2  C   UNL     1       6.489   5.027  14.721  0.00  0.00    +0.000 A 
ATOM      3  N   UNL     1       7.565   5.402  13.958  0.00  0.00    +0.000 NA
ATOM      4  N   UNL     1       7.505   4.688  12.842  0.00  0.00    +0.000 NA
ATOM      5  N   UNL     1       6.401   3.938  12.971  0.00  0.00    +0.000 N 
ATOM      6  C   UNL     1       6.020   2.964  11.982  0.00  0.00    +0.000 C 
ATOM      7  N   UNL     1       5.710   4.104  14.116  0.00  0.00    +0.000 NA
ENDBRANCH   1   2
BRANCH   1   8
ATOM      8  N   UNL     1       5.109   4.860  16.661  0.00  0.00    +0.000 N 
ATOM      9  C   UNL     1       4.052   5.376  17.366  0.00  0.00    +0.000 C 
ATOM     10  O   UNL     1       3.833   6.575  17.495  0.00  0.00    +0.000 OA
ATOM     11  H   UNL     1       5.144   3.871  16.447  0.00  0.00    +0.000 HD
BRANCH   9  12
ATOM     12  C   UNL     1       3.140   4.360  17.954  0.00  0.00    +0.000 A 
ATOM     13  C   UNL     1       3.328   2.994  17.702  0.00  0.00    +0.000 A 
ATOM     14  C   UNL     1       2.442   2.057  18.238  0.00  0.00    +0.000 A 
ATOM     15  C   UNL     1       1.374   2.479  19.028  0.00  0.00    +0.000 A 
ATOM     16  C   UNL     1       1.200   3.837  19.302  0.00  0.00    +0.000 A 
ATOM     17  C   UNL     1       2.086   4.779  18.772  0.00  0.00    +0.000 A 
ENDBRANCH   9  12
ENDBRANCH   1   8
BRANCH   1  19
ATOM     18  C   UNL     1       7.464   4.764  18.050  0.00  0.00    +0.000 C 
ATOM     19  C   UNL     1       7.357   5.871  16.997  0.00  0.00    +0.000 C 
ATOM     20  C   UNL     1       7.394   7.244  17.679  0.00  0.00    +0.000 C 
ENDBRANCH   1  19
TORSDOF 4
ENDMDL
MODEL 4
REMARK VINA RESULT:      -7.6      1.093      1.271
REMARK  Name = 
REMARK  7 active torsions:
REMARK  status: ('A' for Active; 'I' for Inactive)
REMARK    1  A    between atoms: C_1  and  C_2
REMARK    2  A    between atoms: C_2  and  C_3
REMARK    3  A    between atoms: C_2  and  C_4
REMARK    4  A    between atoms: C_4  and  N_5
REMARK    5  A    between atoms: C_4  and  C_14
REMARK    6  A    between atoms: C_6  and  C_8
REMARK    7  A    between atoms: N_17  and  C_18
REMARK                            x       y       z     vdW  Elec       q    Type
REMARK                         _______ _______ _______ _____ _____    ______ ____
ROOT
ATOM      1  C   UNL     1       6.119   5.663  16.156  0.00  0.00    +0.000 C 
ENDROOT
BRANCH   1   2
ATOM      2  C   UNL     1       6.493   5.055  14.831  0.00  0.00    +0.000 A 
ATOM      3  N   UNL     1       7.568   5.479  14.092  0.00  0.00    +0.000 NA
ATOM      4  N   UNL     1       7.544   4.789  12.960  0.00  0.00    +0.000 NA
ATOM      5  N   UNL     1       6.461   4.004  13.056  0.00  0.00    +0.000 N 
ATOM      6  C   UNL     1       6.123   3.042  12.041  0.00  0.00    +0.000 C 
ATOM      7  N   UNL     1       5.750   4.123  14.194  0.00  0.00    +0.000 NA
ENDBRANCH   1   2
BRANCH   1   8
ATOM      8  N   UNL     1       5.132   4.776  16.771  0.00  0.00    +0.000 N 
ATOM      9  C   UNL     1       4.003   5.213  17.416  0.00  0.00    +0.000 C 
ATOM     10  O   UNL     1       3.669   6.391  17.490  0.00  0.00    +0.000 OA
ATOM     11  H   UNL     1       5.267   3.788  16.596  0.00  0.00    +0.000 HD
BRANCH   9  12
ATOM     12  C   UNL     1       3.165   4.138  18.006  0.00  0.00    +0.000 A 
ATOM     13  C   UNL     1       1.875   4.410  18.480  0.00  0.00    +0.000 A 
ATOM     14  C   UNL     1       1.114   3.392  19.059  0.00  0.00    +0.000 A 
ATOM     15  C   UNL     1       1.637   2.104  19.162  0.00  0.00    +0.000 A 
ATOM     16  C   UNL     1       2.912   1.824  18.668  0.00  0.00    +0.000 A 
ATOM     17  C   UNL     1       3.675   2.837  18.082  0.00  0.00    +0.000 A 
ENDBRANCH   9  12
ENDBRANCH   1   8
BRANCH   1  19
ATOM     18  C   UNL     1       7.298   5.003  18.342  0.00  0.00    +0.000 C 
ATOM     19  C   UNL     1       7.312   5.922  17.117  0.00  0.00    +0.000 C 
ATOM     20  C   UNL     1       7.448   7.383  17.561  0.00  0.00    +0.000 C 
ENDBRANCH   1  19
TORSDOF 4
ENDMDL
MODEL 5
REMARK VINA RESULT:      -7.5      0.959      1.138
REMARK  Name = 
REMARK  7 active torsions:
REMARK  status: ('A' for Active; 'I' for Inactive)
REMARK    1  A    between atoms: C_1  and  C_2
REMARK    2  A    between atoms: C_2  and  C_3
REMARK    3  A    between atoms: C_2  and  C_4
REMARK    4  A    between atoms: C_4  and  N_5
REMARK    5  A    between atoms: C_4  and  C_14
REMARK    6  A    between atoms: C_6  and  C_8
REMARK    7  A    between atoms: N_17  and  C_18
REMARK                            x       y       z     vdW  Elec       q    Type
REMARK                         _______ _______ _______ _____ _____    ______ ____
ROOT
ATOM      1  C   UNL     1       6.239   6.135  17.080  0.00  0.00    +0.000 C 
ENDROOT
BRANCH   1   2
ATOM      2  C   UNL     1       6.435   5.445  15.757  0.00  0.00    +0.000 A 
ATOM      3  N   UNL     1       7.557   5.614  14.986  0.00  0.00    +0.000 NA
ATOM      4  N   UNL     1       7.351   4.936  13.865  0.00  0.00    +0.000 NA
ATOM      5  N   UNL     1       6.125   4.410  13.999  0.00  0.00    +0.000 N 
ATOM      6  C   UNL     1       5.555   3.537  13.007  0.00  0.00    +0.000 C 
ATOM      7  N   UNL     1       5.487   4.695  15.152  0.00  0.00    +0.000 NA
ENDBRANCH   1   2
BRANCH   1   8
ATOM      8  N   UNL     1       5.320   5.307  17.862  0.00  0.00    +0.000 N 
ATOM      9  C   UNL     1       4.065   5.706  18.245  0.00  0.00    +0.000 C 
ATOM     10  O   UNL     1       3.556   6.773  17.919  0.00  0.00    +0.000 OA
ATOM     11  H   UNL     1       5.620   4.353  18.017  0.00  0.00    +0.000 HD
BRANCH   9  12
ATOM     12  C   UNL     1       3.324   4.722  19.075  0.00  0.00    +0.000 A 
ATOM     13  C   UNL     1       3.948   3.554  19.534  0.00  0.00    +0.000 A 
ATOM     14  C   UNL     1       3.226   2.626  20.287  0.00  0.00    +0.000 A 
ATOM     15  C   UNL     1       1.886   2.864  20.588  0.00  0.00    +0.000 A 
ATOM     16  C   UNL     1       1.269   4.039  20.155  0.00  0.00    +0.000 A 
ATOM     17  C   UNL     1       1.988   4.973  19.405  0.00  0.00    +0.000 A 
ENDBRANCH   9  12
ENDBRANCH   1   8
BRANCH   1  19
ATOM     18  C   UNL     1       7.541   5.795  19.270  0.00  0.00    +0.000 C 
ATOM     19  C   UNL     1       7.547   6.416  17.870  0.00  0.00    +0.000 C 
ATOM     20  C   UNL     1       7.912   7.902  17.960  0.00  0.00    +0.000 C 
ENDBRANCH   1  19
TORSDOF 4
ENDMDL
MODEL 6
REMARK VINA RESULT:      -7.5      0.643      1.059
REMARK  Name = 
REMARK  7 active torsions:
REMARK  status: ('A' for Active; 'I' for Inactive)
REMARK    1  A    between atoms: C_1  and  C_2
REMARK    2  A    between atoms: C_2  and  C_3
REMARK    3  A    between atoms: C_2  and  C_4
REMARK    4  A    between atoms: C_4  and  N_5
REMARK    5  A    between atoms: C_4  and  C_14
REMARK    6  A    between atoms: C_6  and  C_8
REMARK    7  A    between atoms: N_17  and  C_18
REMARK                            x       y       z     vdW  Elec       q    Type
REMARK                         _______ _______ _______ _____ _____    ______ ____
ROOT
ATOM      1  C   UNL     1       5.887   5.981  16.936  0.00  0.00    +0.000 C 
ENDROOT
BRANCH   1   2
ATOM      2  C   UNL     1       6.099   5.322  15.600  0.00  0.00    +0.000 A 
ATOM      3  N   UNL     1       5.323   4.285  15.148  0.00  0.00    +0.000 NA
ATOM      4  N   UNL     1       5.843   3.901  13.990  0.00  0.00    +0.000 NA
ATOM      5  N   UNL     1       6.906   4.698  13.805  0.00  0.00    +0.000 N 
ATOM      6  C   UNL     1       7.707   4.640  12.612  0.00  0.00    +0.000 C 
ATOM      7  N   UNL     1       7.133   5.605  14.777  0.00  0.00    +0.000 NA
ENDBRANCH   1   2
BRANCH   1   8
ATOM      8  N   UNL     1       4.772   5.290  17.583  0.00  0.00    +0.000 N 
ATOM      9  C   UNL     1       3.605   5.903  17.962  0.00  0.00    +0.000 C 
ATOM     10  O   UNL     1       3.347   7.081  17.741  0.00  0.00    +0.000 OA
ATOM     11  H   UNL     1       4.859   4.283  17.640  0.00  0.00    +0.000 HD
BRANCH   9  12
ATOM     12  C   UNL     1       2.628   5.016  18.645  0.00  0.00    +0.000 A 
ATOM     13  C   UNL     1       2.249   5.254  19.973  0.00  0.00    +0.000 A 
ATOM     14  C   UNL     1       1.353   4.392  20.609  0.00  0.00    +0.000 A 
ATOM     15  C   UNL     1       0.830   3.298  19.920  0.00  0.00    +0.000 A 
ATOM     16  C   UNL     1       1.186   3.074  18.589  0.00  0.00    +0.000 A 
ATOM     17  C   UNL     1       2.078   3.937  17.947  0.00  0.00    +0.000 A 
ENDBRANCH   9  12
ENDBRANCH   1   8
BRANCH   1  19
ATOM     18  C   UNL     1       6.844   5.503  19.273  0.00  0.00    +0.000 C 
ATOM     19  C   UNL     1       7.138   6.008  17.857  0.00  0.00    +0.000 C 
ATOM     20  C   UNL     1       7.834   7.372  17.923  0.00  0.00    +0.000 C 
ENDBRANCH   1  19
TORSDOF 4
ENDMDL
MODEL 7
REMARK VINA RESULT:      -7.4      0.706      1.551
REMARK  Name = 
REMARK  7 active torsions:
REMARK  status: ('A' for Active; 'I' for Inactive)
REMARK    1  A    between atoms: C_1  and  C_2
REMARK    2  A    between atoms: C_2  and  C_3
REMARK    3  A    between atoms: C_2  and  C_4
REMARK    4  A    between atoms: C_4  and  N_5
REMARK    5  A    between atoms: C_4  and  C_14
REMARK    6  A    between atoms: C_6  and  C_8
REMARK    7  A    between atoms: N_17  and  C_18
REMARK                            x       y       z     vdW  Elec       q    Type
REMARK                         _______ _______ _______ _____ _____    ______ ____
ROOT
ATOM      1  C   UNL     1       5.973   6.112  16.406  0.00  0.00    +0.000 C 
ENDROOT
BRANCH   1   2
ATOM      2  C   UNL     1       6.085   5.296  15.147  0.00  0.00    +0.000 A 
ATOM      3  N   UNL     1       5.306   4.195  14.898  0.00  0.00    +0.000 NA
ATOM      4  N   UNL     1       5.732   3.681  13.753  0.00  0.00    +0.000 NA
ATOM      5  N   UNL     1       6.748   4.471  13.375  0.00  0.00    +0.000 N 
ATOM      6  C   UNL     1       7.442   4.281  12.129  0.00  0.00    +0.000 C 
ATOM      7  N   UNL     1       7.033   5.495  14.204  0.00  0.00    +0.000 NA
ENDBRANCH   1   2
BRANCH   1   8
ATOM      8  N   UNL     1       4.896   5.524  17.203  0.00  0.00    +0.000 N 
ATOM      9  C   UNL     1       3.830   6.233  17.694  0.00  0.00    +0.000 C 
ATOM     10  O   UNL     1       3.631   7.421  17.463  0.00  0.00    +0.000 OA
ATOM     11  H   UNL     1       4.918   4.515  17.284  0.00  0.00    +0.000 HD
BRANCH   9  12
ATOM     12  C   UNL     1       2.880   5.441  18.518  0.00  0.00    +0.000 A 
ATOM     13  C   UNL     1       2.188   4.352  17.970  0.00  0.00    +0.000 A 
ATOM     14  C   UNL     1       1.277   3.638  18.751  0.00  0.00    +0.000 A 
ATOM     15  C   UNL     1       1.061   4.005  20.078  0.00  0.00    +0.000 A 
ATOM     16  C   UNL     1       1.768   5.072  20.635  0.00  0.00    +0.000 A 
ATOM     17  C   UNL     1       2.685   5.786  19.859  0.00  0.00    +0.000 A 
ENDBRANCH   9  12
ENDBRANCH   1   8
BRANCH   1  19
ATOM     18  C   UNL     1       7.288   5.310  18.463  0.00  0.00    +0.000 C 
ATOM     19  C   UNL     1       7.284   6.222  17.233  0.00  0.00    +0.000 C 
ATOM     20  C   UNL     1       7.642   7.655  17.644  0.00  0.00    +0.000 C 
ENDBRANCH   1  19
TORSDOF 4
ENDMDL
MODEL 8
REMARK VINA RESULT:      -7.3      1.111      1.609
REMARK  Name = 
REMARK  7 active torsions:
REMARK  status: ('A' for Active; 'I' for Inactive)
REMARK    1  A    between atoms: C_1  and  C_2
REMARK    2  A    between atoms: C_2  and  C_3
REMARK    3  A    between atoms: C_2  and  C_4
REMARK    4  A    between atoms: C_4  and  N_5
REMARK    5  A    between atoms: C_4  and  C_14
REMARK    6  A    between atoms: C_6  and  C_8
REMARK    7  A    between atoms: N_17  and  C_18
REMARK                            x       y       z     vdW  Elec       q    Type
REMARK                         _______ _______ _______ _____ _____    ______ ____
ROOT
ATOM      1  C   UNL     1       6.102   6.153  17.121  0.00  0.00    +0.000 C 
ENDROOT
BRANCH   1   2
ATOM      2  C   UNL     1       6.169   5.446  15.794  0.00  0.00    +0.000 A 
ATOM      3  N   UNL     1       5.270   4.482  15.416  0.00  0.00    +0.000 NA
ATOM      4  N   UNL     1       5.680   4.023  14.241  0.00  0.00    +0.000 NA
ATOM      5  N   UNL     1       6.803   4.706  13.975  0.00  0.00    +0.000 N 
ATOM      6  C   UNL     1       7.523   4.542  12.740  0.00  0.00    +0.000 C 
ATOM      7  N   UNL     1       7.175   5.607  14.906  0.00  0.00    +0.000 NA
ENDBRANCH   1   2
BRANCH   1   8
ATOM      8  N   UNL     1       5.225   5.363  17.984  0.00  0.00    +0.000 N 
ATOM      9  C   UNL     1       3.996   5.785  18.422  0.00  0.00    +0.000 C 
ATOM     10  O   UNL     1       3.474   6.842  18.085  0.00  0.00    +0.000 OA
ATOM     11  H   UNL     1       5.528   4.412  18.158  0.00  0.00    +0.000 HD
BRANCH   9  12
ATOM     12  C   UNL     1       3.297   4.838  19.329  0.00  0.00    +0.000 A 
ATOM     13  C   UNL     1       3.854   3.587  19.629  0.00  0.00    +0.000 A 
ATOM     14  C   UNL     1       3.169   2.698  20.460  0.00  0.00    +0.000 A 
ATOM     15  C   UNL     1       1.933   3.057  20.995  0.00  0.00    +0.000 A 
ATOM     16  C   UNL     1       1.387   4.312  20.718  0.00  0.00    +0.000 A 
ATOM     17  C   UNL     1       2.072   5.207  19.892  0.00  0.00    +0.000 A 
ENDBRANCH   9  12
ENDBRANCH   1   8
BRANCH   1  19
ATOM     18  C   UNL     1       7.574   5.773  19.193  0.00  0.00    +0.000 C 
ATOM     19  C   UNL     1       7.478   6.400  17.799  0.00  0.00    +0.000 C 
ATOM     20  C   UNL     1       7.885   7.877  17.862  0.00  0.00    +0.000 C 
ENDBRANCH   1  19
TORSDOF 4
ENDMDL
MODEL 9
REMARK VINA RESULT:      -7.3      0.857      1.768
REMARK  Name = 
REMARK  7 active torsions:
REMARK  status: ('A' for Active; 'I' for Inactive)
REMARK    1  A    between atoms: C_1  and  C_2
REMARK    2  A    between atoms: C_2  and  C_3
REMARK    3  A    between atoms: C_2  and  C_4
REMARK    4  A    between atoms: C_4  and  N_5
REMARK    5  A    between atoms: C_4  and  C_14
REMARK    6  A    between atoms: C_6  and  C_8
REMARK    7  A    between atoms: N_17  and  C_18
REMARK                            x       y       z     vdW  Elec       q    Type
REMARK                         _______ _______ _______ _____ _____    ______ ____
ROOT
ATOM      1  C   UNL     1       5.647   5.960  16.993  0.00  0.00    +0.000 C 
ENDROOT
BRANCH   1   2
ATOM      2  C   UNL     1       6.003   5.236  15.722  0.00  0.00    +0.000 A 
ATOM      3  N   UNL     1       5.675   3.924  15.493  0.00  0.00    +0.000 NA
ATOM      4  N   UNL     1       6.217   3.597  14.328  0.00  0.00    +0.000 NA
ATOM      5  N   UNL     1       6.854   4.704  13.919  0.00  0.00    +0.000 N 
ATOM      6  C   UNL     1       7.520   4.776  12.645  0.00  0.00    +0.000 C 
ATOM      7  N   UNL     1       6.773   5.765  14.745  0.00  0.00    +0.000 NA
ENDBRANCH   1   2
BRANCH   1   8
ATOM      8  N   UNL     1       4.573   5.199  17.632  0.00  0.00    +0.000 N 
ATOM      9  C   UNL     1       3.381   5.745  18.035  0.00  0.00    +0.000 C 
ATOM     10  O   UNL     1       3.062   6.913  17.843  0.00  0.00    +0.000 OA
ATOM     11  H   UNL     1       4.711   4.197  17.664  0.00  0.00    +0.000 HD
BRANCH   9  12
ATOM     12  C   UNL     1       2.456   4.795  18.705  0.00  0.00    +0.000 A 
ATOM     13  C   UNL     1       1.875   3.735  17.996  0.00  0.00    +0.000 A 
ATOM     14  C   UNL     1       0.984   2.871  18.635  0.00  0.00    +0.000 A 
ATOM     15  C   UNL     1       0.676   3.059  19.982  0.00  0.00    +0.000 A 
ATOM     16  C   UNL     1       1.273   4.099  20.698  0.00  0.00    +0.000 A 
ATOM     17  C   UNL     1       2.169   4.963  20.064  0.00  0.00    +0.000 A 
ENDBRANCH   9  12
ENDBRANCH   1   8
BRANCH   1  19
ATOM     18  C   UNL     1       7.671   7.416  17.615  0.00  0.00    +0.000 C 
ATOM     19  C   UNL     1       6.832   6.184  17.971  0.00  0.00    +0.000 C 
ATOM     20  C   UNL     1       7.744   4.962  18.136  0.00  0.00    +0.000 C 
ENDBRANCH   1  19
TORSDOF 4
ENDMDL
