MODEL 1
REMARK VINA RESULT:      -8.4      0.000      0.000
REMARK  Name = 
REMARK  5 active torsions:
REMARK  status: ('A' for Active; 'I' for Inactive)
REMARK    1  A    between atoms: C_2  and  C_3
REMARK    2  A    between atoms: C_3  and  N_4
REMARK    3  A    between atoms: C_12  and  S_13
REMARK    4  A    between atoms: S_13  and  N_16
REMARK    5  A    between atoms: N_26  and  C_27
REMARK                            x       y       z     vdW  Elec       q    Type
REMARK                         _______ _______ _______ _____ _____    ______ ____
ROOT
ATOM      1  N   UNL     1       2.446   5.804  19.247  0.00  0.00    +0.000 N 
ATOM      2  C   UNL     1       1.585   5.228  20.182  0.00  0.00    +0.000 C 
ATOM      3  O   UNL     1       1.124   5.830  21.157  0.00  0.00    +0.000 OA
ATOM      4  C   UNL     1       1.180   3.802  19.874  0.00  0.00    +0.000 C 
ATOM      5  O   UNL     1       2.218   2.961  19.422  0.00  0.00    +0.000 OA
ATOM      6  C   UNL     1       2.997   3.564  18.466  0.00  0.00    +0.000 A 
ATOM      7  C   UNL     1       3.801   2.687  17.730  0.00  0.00    +0.000 A 
ATOM      8  C   UNL     1       4.703   3.188  16.799  0.00  0.00    +0.000 A 
ATOM      9  C   UNL     1       4.745   4.566  16.556  0.00  0.00    +0.000 A 
ATOM     10  C   UNL     1       3.871   5.440  17.230  0.00  0.00    +0.000 A 
ATOM     11  C   UNL     1       3.075   4.951  18.281  0.00  0.00    +0.000 A 
ENDROOT
BRANCH   9  12
ATOM     12  S   UNL     1       5.978   5.171  15.428  0.00  0.00    +0.000 S 
ATOM     13  O   UNL     1       6.279   4.105  14.500  0.00  0.00    +0.000 OA
ATOM     14  O   UNL     1       5.553   6.475  14.953  0.00  0.00    +0.000 OA
BRANCH  12  15
ATOM     15  N   UNL     1       7.382   5.410  16.408  0.00  0.00    +0.000 NA
ATOM     16  C   UNL     1       7.586   4.507  17.570  0.00  0.00    +0.000 C 
ATOM     17  C   UNL     1       6.948   5.233  18.735  0.00  0.00    +0.000 C 
ATOM     18  C   UNL     1       7.327   6.680  18.481  0.00  0.00    +0.000 C 
ATOM     19  C   UNL     1       7.505   6.797  16.965  0.00  0.00    +0.000 C 
ENDBRANCH  12  15
ENDBRANCH   9  12
BRANCH   1  20
ATOM     20  C   UNL     1       2.852   7.208  19.434  0.00  0.00    +0.000 C 
BRANCH  20  22
ATOM     21  O   UNL     1       1.728   8.075  17.487  0.00  0.00    +0.000 OA
ATOM     22  C   UNL     1       2.037   8.274  18.664  0.00  0.00    +0.000 C 
ATOM     23  N   UNL     1       1.648   9.431  19.330  0.00  0.00    +0.000 N 
ATOM     24  C   UNL     1       0.891  10.464  18.606  0.00  0.00    +0.000 C 
ATOM     25  C   UNL     1      -0.612  10.420  18.945  0.00  0.00    +0.000 C 
ATOM     26  N   UNL     1      -0.834  10.393  20.403  0.00  0.00    +0.000 N 
ATOM     27  C   UNL     1      -0.052   9.383  21.140  0.00  0.00    +0.000 C 
ATOM     28  C   UNL     1       1.445   9.487  20.781  0.00  0.00    +0.000 C 
BRANCH  26  29
ATOM     29  C   UNL     1      -1.384  11.461  21.090  0.00  0.00    +0.000 A 
ATOM     30  C   UNL     1      -1.145  11.624  22.465  0.00  0.00    +0.000 A 
ATOM     31  C   UNL     1      -1.708  12.677  23.194  0.00  0.00    +0.000 A 
ATOM     32  C   UNL     1      -2.527  13.602  22.557  0.00  0.00    +0.000 A 
ATOM     33  C   UNL     1      -2.782  13.467  21.197  0.00  0.00    +0.000 A 
ATOM     34  C   UNL     1      -2.220  12.404  20.479  0.00  0.00    +0.000 A 
ENDBRANCH  26  29
ENDBRANCH  20  22
ENDBRANCH   1  20
TORSDOF 5
ENDMDL
MODEL 2
REMARK VINA RESULT:      -7.9      1.526      2.200
REMARK  Name = 
REMARK  5 active torsions:
REMARK  status: ('A' for Active; 'I' for Inactive)
REMARK    1  A    between atoms: C_2  and  C_3
REMARK    2  A    between atoms: C_3  and  N_4
REMARK    3  A    between atoms: C_12  and  S_13
REMARK    4  A    between atoms: S_13  and  N_16
REMARK    5  A    between atoms: N_26  and  C_27
REMARK                            x       y       z     vdW  Elec       q    Type
REMARK                         _______ _______ _______ _____ _____    ______ ____
ROOT
ATOM      1  N   UNL     1       2.364   5.221  19.117  0.00  0.00    +0.000 N 
ATOM      2  C   UNL     1       1.331   4.473  19.686  0.00  0.00    +0.000 C 
ATOM      3  O   UNL     1       0.624   4.872  20.617  0.00  0.00    +0.000 OA
ATOM      4  C   UNL     1       1.077   3.138  19.019  0.00  0.00    +0.000 C 
ATOM      5  O   UNL     1       2.230   2.400  18.679  0.00  0.00    +0.000 OA
ATOM      6  C   UNL     1       3.186   3.179  18.076  0.00  0.00    +0.000 A 
ATOM      7  C   UNL     1       4.182   2.463  17.403  0.00  0.00    +0.000 A 
ATOM      8  C   UNL     1       5.256   3.135  16.834  0.00  0.00    +0.000 A 
ATOM      9  C   UNL     1       5.293   4.534  16.878  0.00  0.00    +0.000 A 
ATOM     10  C   UNL     1       4.244   5.260  17.475  0.00  0.00    +0.000 A 
ATOM     11  C   UNL     1       3.243   4.575  18.187  0.00  0.00    +0.000 A 
ENDROOT
BRANCH   9  12
ATOM     12  S   UNL     1       6.730   5.347  16.222  0.00  0.00    +0.000 S 
ATOM     13  O   UNL     1       6.802   6.658  16.827  0.00  0.00    +0.000 OA
ATOM     14  O   UNL     1       7.848   4.425  16.305  0.00  0.00    +0.000 OA
BRANCH  12  15
ATOM     15  N   UNL     1       6.371   5.576  14.547  0.00  0.00    +0.000 NA
ATOM     16  C   UNL     1       5.276   4.769  13.949  0.00  0.00    +0.000 C 
ATOM     17  C   UNL     1       5.965   3.545  13.385  0.00  0.00    +0.000 C 
ATOM     18  C   UNL     1       7.250   4.116  12.812  0.00  0.00    +0.000 C 
ATOM     19  C   UNL     1       7.547   5.369  13.639  0.00  0.00    +0.000 C 
ENDBRANCH  12  15
ENDBRANCH   9  12
BRANCH   1  20
ATOM     20  C   UNL     1       2.649   6.559  19.665  0.00  0.00    +0.000 C 
BRANCH  20  22
ATOM     21  O   UNL     1       1.896   7.670  17.664  0.00  0.00    +0.000 OA
ATOM     22  C   UNL     1       2.082   7.765  18.879  0.00  0.00    +0.000 C 
ATOM     23  N   UNL     1       1.771   8.929  19.571  0.00  0.00    +0.000 N 
ATOM     24  C   UNL     1       1.252  10.093  18.835  0.00  0.00    +0.000 C 
ATOM     25  C   UNL     1      -0.274  10.241  18.996  0.00  0.00    +0.000 C 
ATOM     26  N   UNL     1      -0.675  10.172  20.414  0.00  0.00    +0.000 N 
ATOM     27  C   UNL     1      -0.129   9.027  21.167  0.00  0.00    +0.000 C 
ATOM     28  C   UNL     1       1.401   8.941  20.989  0.00  0.00    +0.000 C 
BRANCH  26  29
ATOM     29  C   UNL     1      -1.159  11.271  21.103  0.00  0.00    +0.000 A 
ATOM     30  C   UNL     1      -1.927  12.245  20.443  0.00  0.00    +0.000 A 
ATOM     31  C   UNL     1      -2.408  13.380  21.104  0.00  0.00    +0.000 A 
ATOM     32  C   UNL     1      -2.134  13.566  22.454  0.00  0.00    +0.000 A 
ATOM     33  C   UNL     1      -1.375  12.619  23.134  0.00  0.00    +0.000 A 
ATOM     34  C   UNL     1      -0.892  11.490  22.460  0.00  0.00    +0.000 A 
ENDBRANCH  26  29
ENDBRANCH  20  22
ENDBRANCH   1  20
TORSDOF 5
ENDMDL
MODEL 3
REMARK VINA RESULT:      -7.7      4.574     10.760
REMARK  Name = 
REMARK  5 active torsions:
REMARK  status: ('A' for Active; 'I' for Inactive)
REMARK    1  A    between atoms: C_2  and  C_3
REMARK    2  A    between atoms: C_3  and  N_4
REMARK    3  A    between atoms: C_12  and  S_13
REMARK    4  A    between atoms: S_13  and  N_16
REMARK    5  A    between atoms: N_26  and  C_27
REMARK                            x       y       z     vdW  Elec       q    Type
REMARK                         _______ _______ _______ _____ _____    ______ ____
ROOT
ATOM      1  N   UNL     1       0.754  13.404  20.869  0.00  0.00    +0.000 N 
ATOM      2  C   UNL     1       1.916  14.131  21.132  0.00  0.00    +0.000 C 
ATOM      3  O   UNL     1       3.010  13.614  21.380  0.00  0.00    +0.000 OA
ATOM      4  C   UNL     1       1.763  15.632  21.012  0.00  0.00    +0.000 C 
ATOM      5  O   UNL     1       0.585  16.168  21.574  0.00  0.00    +0.000 OA
ATOM      6  C   UNL     1      -0.530  15.441  21.236  0.00  0.00    +0.000 A 
ATOM      7  C   UNL     1      -1.744  16.101  21.451  0.00  0.00    +0.000 A 
ATOM      8  C   UNL     1      -2.944  15.434  21.237  0.00  0.00    +0.000 A 
ATOM      9  C   UNL     1      -2.924  14.126  20.737  0.00  0.00    +0.000 A 
ATOM     10  C   UNL     1      -1.703  13.494  20.433  0.00  0.00    +0.000 A 
ATOM     11  C   UNL     1      -0.493  14.110  20.799  0.00  0.00    +0.000 A 
ENDROOT
BRANCH   9  12
ATOM     12  S   UNL     1      -4.476  13.279  20.568  0.00  0.00    +0.000 S 
ATOM     13  O   UNL     1      -5.507  14.283  20.431  0.00  0.00    +0.000 OA
ATOM     14  O   UNL     1      -4.314  12.235  19.572  0.00  0.00    +0.000 OA
BRANCH  12  15
ATOM     15  N   UNL     1      -4.715  12.504  22.095  0.00  0.00    +0.000 NA
ATOM     16  C   UNL     1      -5.777  13.033  22.989  0.00  0.00    +0.000 C 
ATOM     17  C   UNL     1      -5.068  14.030  23.880  0.00  0.00    +0.000 C 
ATOM     18  C   UNL     1      -3.739  13.350  24.156  0.00  0.00    +0.000 C 
ATOM     19  C   UNL     1      -3.482  12.446  22.947  0.00  0.00    +0.000 C 
ENDBRANCH  12  15
ENDBRANCH   9  12
BRANCH   1  20
ATOM     20  C   UNL     1       0.820  11.933  20.907  0.00  0.00    +0.000 C 
BRANCH  20  22
ATOM     21  O   UNL     1       1.884  11.825  18.747  0.00  0.00    +0.000 OA
ATOM     22  C   UNL     1       1.218  11.222  19.592  0.00  0.00    +0.000 C 
ATOM     23  N   UNL     1       0.833   9.900  19.401  0.00  0.00    +0.000 N 
ATOM     24  C   UNL     1       1.184   9.216  18.146  0.00  0.00    +0.000 C 
ATOM     25  C   UNL     1       2.385   8.267  18.326  0.00  0.00    +0.000 C 
ATOM     26  N   UNL     1       2.199   7.377  19.488  0.00  0.00    +0.000 N 
ATOM     27  C   UNL     1       1.811   8.052  20.741  0.00  0.00    +0.000 C 
ATOM     28  C   UNL     1       0.593   8.971  20.508  0.00  0.00    +0.000 C 
BRANCH  26  29
ATOM     29  C   UNL     1       1.985   6.016  19.354  0.00  0.00    +0.000 A 
ATOM     30  C   UNL     1       2.163   5.385  18.112  0.00  0.00    +0.000 A 
ATOM     31  C   UNL     1       1.929   4.016  17.937  0.00  0.00    +0.000 A 
ATOM     32  C   UNL     1       1.514   3.241  19.013  0.00  0.00    +0.000 A 
ATOM     33  C   UNL     1       1.328   3.838  20.255  0.00  0.00    +0.000 A 
ATOM     34  C   UNL     1       1.557   5.210  20.417  0.00  0.00    +0.000 A 
ENDBRANCH  26  29
ENDBRANCH  20  22
ENDBRANCH   1  20
TORSDOF 5
ENDMDL
MODEL 4
REMARK VINA RESULT:      -7.5      1.520      2.016
REMARK  Name = 
REMARK  5 active torsions:
REMARK  status: ('A' for Active; 'I' for Inactive)
REMARK    1  A    between atoms: C_2  and  C_3
REMARK    2  A    between atoms: C_3  and  N_4
REMARK    3  A    between atoms: C_12  and  S_13
REMARK    4  A    between atoms: S_13  and  N_16
REMARK    5  A    between atoms: N_26  and  C_27
REMARK                            x       y       z     vdW  Elec       q    Type
REMARK                         _______ _______ _______ _____ _____    ______ ____
ROOT
ATOM      1  N   UNL     1       2.537   6.469  19.673  0.00  0.00    +0.000 N 
ATOM      2  C   UNL     1       1.498   5.978  20.465  0.00  0.00    +0.000 C 
ATOM      3  O   UNL     1       0.737   6.693  21.124  0.00  0.00    +0.000 OA
ATOM      4  C   UNL     1       1.311   4.476  20.402  0.00  0.00    +0.000 C 
ATOM      5  O   UNL     1       2.499   3.715  20.436  0.00  0.00    +0.000 OA
ATOM      6  C   UNL     1       3.462   4.217  19.597  0.00  0.00    +0.000 A 
ATOM      7  C   UNL     1       4.507   3.332  19.314  0.00  0.00    +0.000 A 
ATOM      8  C   UNL     1       5.590   3.756  18.553  0.00  0.00    +0.000 A 
ATOM      9  C   UNL     1       5.588   5.049  18.017  0.00  0.00    +0.000 A 
ATOM     10  C   UNL     1       4.493   5.910  18.225  0.00  0.00    +0.000 A 
ATOM     11  C   UNL     1       3.477   5.536  19.122  0.00  0.00    +0.000 A 
ENDROOT
BRANCH   9  12
ATOM     12  S   UNL     1       7.033   5.582  17.131  0.00  0.00    +0.000 S 
ATOM     13  O   UNL     1       7.402   6.882  17.642  0.00  0.00    +0.000 OA
ATOM     14  O   UNL     1       7.985   4.486  17.121  0.00  0.00    +0.000 OA
BRANCH  12  15
ATOM     15  N   UNL     1       6.486   5.807  15.506  0.00  0.00    +0.000 NA
ATOM     16  C   UNL     1       5.097   5.402  15.173  0.00  0.00    +0.000 C 
ATOM     17  C   UNL     1       5.221   3.977  14.676  0.00  0.00    +0.000 C 
ATOM     18  C   UNL     1       6.502   4.014  13.863  0.00  0.00    +0.000 C 
ATOM     19  C   UNL     1       7.346   5.134  14.477  0.00  0.00    +0.000 C 
ENDBRANCH  12  15
ENDBRANCH   9  12
BRANCH   1  20
ATOM     20  C   UNL     1       2.760   7.924  19.627  0.00  0.00    +0.000 C 
BRANCH  20  22
ATOM     21  O   UNL     1       1.364   8.331  17.705  0.00  0.00    +0.000 OA
ATOM     22  C   UNL     1       1.754   8.754  18.795  0.00  0.00    +0.000 C 
ATOM     23  N   UNL     1       1.289   9.959  19.312  0.00  0.00    +0.000 N 
ATOM     24  C   UNL     1       0.349  10.771  18.524  0.00  0.00    +0.000 C 
ATOM     25  C   UNL     1      -1.100  10.625  19.031  0.00  0.00    +0.000 C 
ATOM     26  N   UNL     1      -1.182  10.819  20.490  0.00  0.00    +0.000 N 
ATOM     27  C   UNL     1      -0.218  10.035  21.284  0.00  0.00    +0.000 C 
ATOM     28  C   UNL     1       1.216  10.235  20.750  0.00  0.00    +0.000 C 
BRANCH  26  29
ATOM     29  C   UNL     1      -1.793  11.923  21.060  0.00  0.00    +0.000 A 
ATOM     30  C   UNL     1      -1.831  12.077  22.456  0.00  0.00    +0.000 A 
ATOM     31  C   UNL     1      -2.464  13.167  23.064  0.00  0.00    +0.000 A 
ATOM     32  C   UNL     1      -3.074  14.139  22.280  0.00  0.00    +0.000 A 
ATOM     33  C   UNL     1      -3.054  14.014  20.896  0.00  0.00    +0.000 A 
ATOM     34  C   UNL     1      -2.425  12.914  20.299  0.00  0.00    +0.000 A 
ENDBRANCH  26  29
ENDBRANCH  20  22
ENDBRANCH   1  20
TORSDOF 5
ENDMDL
MODEL 5
REMARK VINA RESULT:      -7.4      4.961      9.607
REMARK  Name = 
REMARK  5 active torsions:
REMARK  status: ('A' for Active; 'I' for Inactive)
REMARK    1  A    between atoms: C_2  and  C_3
REMARK    2  A    between atoms: C_3  and  N_4
REMARK    3  A    between atoms: C_12  and  S_13
REMARK    4  A    between atoms: S_13  and  N_16
REMARK    5  A    between atoms: N_26  and  C_27
REMARK                            x       y       z     vdW  Elec       q    Type
REMARK                         _______ _______ _______ _____ _____    ______ ____
ROOT
ATOM      1  N   UNL     1       0.209  12.951  20.727  0.00  0.00    +0.000 N 
ATOM      2  C   UNL     1      -1.072  12.555  21.115  0.00  0.00    +0.000 C 
ATOM      3  O   UNL     1      -1.366  11.403  21.447  0.00  0.00    +0.000 OA
ATOM      4  C   UNL     1      -2.087  13.677  21.180  0.00  0.00    +0.000 C 
ATOM      5  O   UNL     1      -2.045  14.595  20.110  0.00  0.00    +0.000 OA
ATOM      6  C   UNL     1      -0.764  14.987  19.810  0.00  0.00    +0.000 A 
ATOM      7  C   UNL     1      -0.675  16.139  19.022  0.00  0.00    +0.000 A 
ATOM      8  C   UNL     1       0.564  16.580  18.574  0.00  0.00    +0.000 A 
ATOM      9  C   UNL     1       1.721  15.904  18.979  0.00  0.00    +0.000 A 
ATOM     10  C   UNL     1       1.640  14.799  19.848  0.00  0.00    +0.000 A 
ATOM     11  C   UNL     1       0.380  14.261  20.169  0.00  0.00    +0.000 A 
ENDROOT
BRANCH   9  12
ATOM     12  S   UNL     1       3.275  16.444  18.307  0.00  0.00    +0.000 S 
ATOM     13  O   UNL     1       4.142  15.290  18.233  0.00  0.00    +0.000 OA
ATOM     14  O   UNL     1       3.002  17.249  17.130  0.00  0.00    +0.000 OA
BRANCH  12  15
ATOM     15  N   UNL     1       3.926  17.497  19.514  0.00  0.00    +0.000 NA
ATOM     16  C   UNL     1       5.104  17.030  20.288  0.00  0.00    +0.000 C 
ATOM     17  C   UNL     1       4.518  16.376  21.522  0.00  0.00    +0.000 C 
ATOM     18  C   UNL     1       3.358  17.292  21.870  0.00  0.00    +0.000 C 
ATOM     19  C   UNL     1       2.927  17.929  20.546  0.00  0.00    +0.000 C 
ENDBRANCH  12  15
ENDBRANCH   9  12
BRANCH   1  20
ATOM     20  C   UNL     1       1.277  11.937  20.688  0.00  0.00    +0.000 C 
BRANCH  20  22
ATOM     21  O   UNL     1       2.021  11.710  18.408  0.00  0.00    +0.000 OA
ATOM     22  C   UNL     1       1.455  11.167  19.358  0.00  0.00    +0.000 C 
ATOM     23  N   UNL     1       0.988   9.860  19.273  0.00  0.00    +0.000 N 
ATOM     24  C   UNL     1       1.129   9.121  18.008  0.00  0.00    +0.000 C 
ATOM     25  C   UNL     1       2.299   8.120  18.055  0.00  0.00    +0.000 C 
ATOM     26  N   UNL     1       2.238   7.277  19.264  0.00  0.00    +0.000 N 
ATOM     27  C   UNL     1       2.061   8.009  20.533  0.00  0.00    +0.000 C 
ATOM     28  C   UNL     1       0.865   8.979  20.437  0.00  0.00    +0.000 C 
BRANCH  26  29
ATOM     29  C   UNL     1       1.948   5.925  19.213  0.00  0.00    +0.000 A 
ATOM     30  C   UNL     1       2.040   5.220  18.001  0.00  0.00    +0.000 A 
ATOM     31  C   UNL     1       1.727   3.860  17.910  0.00  0.00    +0.000 A 
ATOM     32  C   UNL     1       1.316   3.166  19.042  0.00  0.00    +0.000 A 
ATOM     33  C   UNL     1       1.214   3.836  20.256  0.00  0.00    +0.000 A 
ATOM     34  C   UNL     1       1.522   5.200  20.333  0.00  0.00    +0.000 A 
ENDBRANCH  26  29
ENDBRANCH  20  22
ENDBRANCH   1  20
TORSDOF 5
ENDMDL
MODEL 6
REMARK VINA RESULT:      -7.4      4.536     11.015
REMARK  Name = 
REMARK  5 active torsions:
REMARK  status: ('A' for Active; 'I' for Inactive)
REMARK    1  A    between atoms: C_2  and  C_3
REMARK    2  A    between atoms: C_3  and  N_4
REMARK    3  A    between atoms: C_12  and  S_13
REMARK    4  A    between atoms: S_13  and  N_16
REMARK    5  A    between atoms: N_26  and  C_27
REMARK                            x       y       z     vdW  Elec       q    Type
REMARK                         _______ _______ _______ _____ _____    ______ ____
ROOT
ATOM      1  N   UNL     1       0.848  13.507  20.082  0.00  0.00    +0.000 N 
ATOM      2  C   UNL     1       1.956  14.348  19.976  0.00  0.00    +0.000 C 
ATOM      3  O   UNL     1       3.126  13.959  20.048  0.00  0.00    +0.000 OA
ATOM      4  C   UNL     1       1.624  15.796  19.680  0.00  0.00    +0.000 C 
ATOM      5  O   UNL     1       0.538  16.329  20.404  0.00  0.00    +0.000 OA
ATOM      6  C   UNL     1      -0.539  15.478  20.428  0.00  0.00    +0.000 A 
ATOM      7  C   UNL     1      -1.746  16.076  20.809  0.00  0.00    +0.000 A 
ATOM      8  C   UNL     1      -2.887  15.298  20.963  0.00  0.00    +0.000 A 
ATOM      9  C   UNL     1      -2.833  13.932  20.663  0.00  0.00    +0.000 A 
ATOM     10  C   UNL     1      -1.642  13.348  20.190  0.00  0.00    +0.000 A 
ATOM     11  C   UNL     1      -0.454  14.100  20.189  0.00  0.00    +0.000 A 
ENDROOT
BRANCH   9  12
ATOM     12  S   UNL     1      -4.289  12.959  20.963  0.00  0.00    +0.000 S 
ATOM     13  O   UNL     1      -4.550  12.186  19.770  0.00  0.00    +0.000 OA
ATOM     14  O   UNL     1      -4.140  12.310  22.254  0.00  0.00    +0.000 OA
BRANCH  12  15
ATOM     15  N   UNL     1      -5.562  14.119  21.111  0.00  0.00    +0.000 NA
ATOM     16  C   UNL     1      -6.573  13.916  22.181  0.00  0.00    +0.000 C 
ATOM     17  C   UNL     1      -7.687  13.138  21.515  0.00  0.00    +0.000 C 
ATOM     18  C   UNL     1      -7.764  13.772  20.137  0.00  0.00    +0.000 C 
ATOM     19  C   UNL     1      -6.359  14.310  19.855  0.00  0.00    +0.000 C 
ENDBRANCH  12  15
ENDBRANCH   9  12
BRANCH   1  20
ATOM     20  C   UNL     1       1.074  12.070  20.315  0.00  0.00    +0.000 C 
BRANCH  20  22
ATOM     21  O   UNL     1       2.128  11.704  18.179  0.00  0.00    +0.000 OA
ATOM     22  C   UNL     1       1.439  11.216  19.078  0.00  0.00    +0.000 C 
ATOM     23  N   UNL     1       0.998   9.899  19.018  0.00  0.00    +0.000 N 
ATOM     24  C   UNL     1       1.318   9.080  17.838  0.00  0.00    +0.000 C 
ATOM     25  C   UNL     1       2.478   8.103  18.114  0.00  0.00    +0.000 C 
ATOM     26  N   UNL     1       2.257   7.342  19.358  0.00  0.00    +0.000 N 
ATOM     27  C   UNL     1       1.900   8.154  20.537  0.00  0.00    +0.000 C 
ATOM     28  C   UNL     1       0.722   9.095  20.212  0.00  0.00    +0.000 C 
BRANCH  26  29
ATOM     29  C   UNL     1       1.986   5.985  19.360  0.00  0.00    +0.000 A 
ATOM     30  C   UNL     1       2.098   5.233  18.178  0.00  0.00    +0.000 A 
ATOM     31  C   UNL     1       1.805   3.865  18.140  0.00  0.00    +0.000 A 
ATOM     32  C   UNL     1       1.394   3.212  19.296  0.00  0.00    +0.000 A 
ATOM     33  C   UNL     1       1.273   3.929  20.481  0.00  0.00    +0.000 A 
ATOM     34  C   UNL     1       1.561   5.300  20.505  0.00  0.00    +0.000 A 
ENDBRANCH  26  29
ENDBRANCH  20  22
ENDBRANCH   1  20
TORSDOF 5
ENDMDL
MODEL 7
REMARK VINA RESULT:      -7.3      5.457      9.522
REMARK  Name = 
REMARK  5 active torsions:
REMARK  status: ('A' for Active; 'I' for Inactive)
REMARK    1  A    between atoms: C_2  and  C_3
REMARK    2  A    between atoms: C_3  and  N_4
REMARK    3  A    between atoms: C_12  and  S_13
REMARK    4  A    between atoms: S_13  and  N_16
REMARK    5  A    between atoms: N_26  and  C_27
REMARK                            x       y       z     vdW  Elec       q    Type
REMARK                         _______ _______ _______ _____ _____    ______ ____
ROOT
ATOM      1  N   UNL     1       0.960  13.482  19.797  0.00  0.00    +0.000 N 
ATOM      2  C   UNL     1      -0.057  13.940  18.958  0.00  0.00    +0.000 C 
ATOM      3  O   UNL     1      -0.895  13.205  18.426  0.00  0.00    +0.000 OA
ATOM      4  C   UNL     1      -0.115  15.445  18.800  0.00  0.00    +0.000 C 
ATOM      5  O   UNL     1       1.130  16.086  18.633  0.00  0.00    +0.000 OA
ATOM      6  C   UNL     1       2.073  15.631  19.521  0.00  0.00    +0.000 A 
ATOM      7  C   UNL     1       3.196  16.453  19.652  0.00  0.00    +0.000 A 
ATOM      8  C   UNL     1       4.261  16.052  20.449  0.00  0.00    +0.000 A 
ATOM      9  C   UNL     1       4.166  14.857  21.172  0.00  0.00    +0.000 A 
ATOM     10  C   UNL     1       2.998  14.074  21.113  0.00  0.00    +0.000 A 
ATOM     11  C   UNL     1       1.991  14.400  20.186  0.00  0.00    +0.000 A 
ENDROOT
BRANCH   9  12
ATOM     12  S   UNL     1       5.587  14.336  22.103  0.00  0.00    +0.000 S 
ATOM     13  O   UNL     1       5.195  13.189  22.890  0.00  0.00    +0.000 OA
ATOM     14  O   UNL     1       6.720  14.268  21.197  0.00  0.00    +0.000 OA
BRANCH  12  15
ATOM     15  N   UNL     1       5.884  15.636  23.204  0.00  0.00    +0.000 NA
ATOM     16  C   UNL     1       7.289  15.910  23.600  0.00  0.00    +0.000 C 
ATOM     17  C   UNL     1       7.493  15.110  24.869  0.00  0.00    +0.000 C 
ATOM     18  C   UNL     1       6.170  15.282  25.593  0.00  0.00    +0.000 C 
ATOM     19  C   UNL     1       5.130  15.521  24.496  0.00  0.00    +0.000 C 
ENDBRANCH  12  15
ENDBRANCH   9  12
BRANCH   1  20
ATOM     20  C   UNL     1       1.061  12.035  20.055  0.00  0.00    +0.000 C 
BRANCH  20  22
ATOM     21  O   UNL     1       2.444  11.629  18.123  0.00  0.00    +0.000 OA
ATOM     22  C   UNL     1       1.610  11.162  18.902  0.00  0.00    +0.000 C 
ATOM     23  N   UNL     1       1.164   9.850  18.783  0.00  0.00    +0.000 N 
ATOM     24  C   UNL     1       1.659   9.013  17.679  0.00  0.00    +0.000 C 
ATOM     25  C   UNL     1       2.742   8.023  18.150  0.00  0.00    +0.000 C 
ATOM     26  N   UNL     1       2.308   7.280  19.347  0.00  0.00    +0.000 N 
ATOM     27  C   UNL     1       1.777   8.110  20.445  0.00  0.00    +0.000 C 
ATOM     28  C   UNL     1       0.683   9.065  19.923  0.00  0.00    +0.000 C 
BRANCH  26  29
ATOM     29  C   UNL     1       2.019   5.927  19.317  0.00  0.00    +0.000 A 
ATOM     30  C   UNL     1       1.632   5.254  20.488  0.00  0.00    +0.000 A 
ATOM     31  C   UNL     1       1.359   3.881  20.497  0.00  0.00    +0.000 A 
ATOM     32  C   UNL     1       1.463   3.146  19.323  0.00  0.00    +0.000 A 
ATOM     33  C   UNL     1       1.845   3.784  18.148  0.00  0.00    +0.000 A 
ATOM     34  C   UNL     1       2.124   5.156  18.152  0.00  0.00    +0.000 A 
ENDBRANCH  26  29
ENDBRANCH  20  22
ENDBRANCH   1  20
TORSDOF 5
ENDMDL
MODEL 8
REMARK VINA RESULT:      -7.3      4.863     11.044
REMARK  Name = 
REMARK  5 active torsions:
REMARK  status: ('A' for Active; 'I' for Inactive)
REMARK    1  A    between atoms: C_2  and  C_3
REMARK    2  A    between atoms: C_3  and  N_4
REMARK    3  A    between atoms: C_12  and  S_13
REMARK    4  A    between atoms: S_13  and  N_16
REMARK    5  A    between atoms: N_26  and  C_27
REMARK                            x       y       z     vdW  Elec       q    Type
REMARK                         _______ _______ _______ _____ _____    ______ ____
ROOT
ATOM      1  N   UNL     1      -0.406  13.699  21.388  0.00  0.00    +0.000 N 
ATOM      2  C   UNL     1       0.709  14.455  21.753  0.00  0.00    +0.000 C 
ATOM      3  O   UNL     1       1.819  13.972  21.998  0.00  0.00    +0.000 OA
ATOM      4  C   UNL     1       0.485  15.952  21.752  0.00  0.00    +0.000 C 
ATOM      5  O   UNL     1      -0.736  16.383  22.312  0.00  0.00    +0.000 OA
ATOM      6  C   UNL     1      -1.801  15.635  21.874  0.00  0.00    +0.000 A 
ATOM      7  C   UNL     1      -3.053  16.216  22.098  0.00  0.00    +0.000 A 
ATOM      8  C   UNL     1      -4.211  15.514  21.785  0.00  0.00    +0.000 A 
ATOM      9  C   UNL     1      -4.109  14.256  21.181  0.00  0.00    +0.000 A 
ATOM     10  C   UNL     1      -2.848  13.709  20.870  0.00  0.00    +0.000 A 
ATOM     11  C   UNL     1      -1.683  14.348  21.330  0.00  0.00    +0.000 A 
ENDROOT
BRANCH   9  12
ATOM     12  S   UNL     1      -5.610  13.353  20.885  0.00  0.00    +0.000 S 
ATOM     13  O   UNL     1      -5.485  12.072  21.542  0.00  0.00    +0.000 OA
ATOM     14  O   UNL     1      -6.729  14.233  21.172  0.00  0.00    +0.000 OA
BRANCH  12  15
ATOM     15  N   UNL     1      -5.610  13.057  19.182  0.00  0.00    +0.000 NA
ATOM     16  C   UNL     1      -6.910  12.780  18.519  0.00  0.00    +0.000 C 
ATOM     17  C   UNL     1      -7.035  11.271  18.536  0.00  0.00    +0.000 C 
ATOM     18  C   UNL     1      -5.617  10.812  18.247  0.00  0.00    +0.000 C 
ATOM     19  C   UNL     1      -4.710  11.933  18.761  0.00  0.00    +0.000 C 
ENDBRANCH  12  15
ENDBRANCH   9  12
BRANCH   1  20
ATOM     20  C   UNL     1      -0.268  12.234  21.308  0.00  0.00    +0.000 C 
BRANCH  20  22
ATOM     21  O   UNL     1       0.686  12.406  19.101  0.00  0.00    +0.000 OA
ATOM     22  C   UNL     1       0.203  11.656  19.952  0.00  0.00    +0.000 C 
ATOM     23  N   UNL     1       0.091  10.287  19.732  0.00  0.00    +0.000 N 
ATOM     24  C   UNL     1       0.513   9.724  18.440  0.00  0.00    +0.000 C 
ATOM     25  C   UNL     1       1.892   9.042  18.534  0.00  0.00    +0.000 C 
ATOM     26  N   UNL     1       1.952   8.104  19.671  0.00  0.00    +0.000 N 
ATOM     27  C   UNL     1       1.496   8.651  20.962  0.00  0.00    +0.000 C 
ATOM     28  C   UNL     1       0.104   9.301  20.816  0.00  0.00    +0.000 C 
BRANCH  26  29
ATOM     29  C   UNL     1       2.019   6.732  19.499  0.00  0.00    +0.000 A 
ATOM     30  C   UNL     1       2.328   6.184  18.242  0.00  0.00    +0.000 A 
ATOM     31  C   UNL     1       2.376   4.802  18.029  0.00  0.00    +0.000 A 
ATOM     32  C   UNL     1       2.120   3.929  19.079  0.00  0.00    +0.000 A 
ATOM     33  C   UNL     1       1.810   4.442  20.334  0.00  0.00    +0.000 A 
ATOM     34  C   UNL     1       1.756   5.827  20.534  0.00  0.00    +0.000 A 
ENDBRANCH  26  29
ENDBRANCH  20  22
ENDBRANCH   1  20
TORSDOF 5
ENDMDL
MODEL 9
REMARK VINA RESULT:      -7.2      5.421      9.420
REMARK  Name = 
REMARK  5 active torsions:
REMARK  status: ('A' for Active; 'I' for Inactive)
REMARK    1  A    between atoms: C_2  and  C_3
REMARK    2  A    between atoms: C_3  and  N_4
REMARK    3  A    between atoms: C_12  and  S_13
REMARK    4  A    between atoms: S_13  and  N_16
REMARK    5  A    between atoms: N_26  and  C_27
REMARK                            x       y       z     vdW  Elec       q    Type
REMARK                         _______ _______ _______ _____ _____    ______ ____
ROOT
ATOM      1  N   UNL     1       0.934  13.599  19.874  0.00  0.00    +0.000 N 
ATOM      2  C   UNL     1      -0.009  13.888  18.886  0.00  0.00    +0.000 C 
ATOM      3  O   UNL     1      -0.625  13.027  18.250  0.00  0.00    +0.000 OA
ATOM      4  C   UNL     1      -0.292  15.363  18.695  0.00  0.00    +0.000 C 
ATOM      5  O   UNL     1       0.840  16.204  18.703  0.00  0.00    +0.000 OA
ATOM      6  C   UNL     1       1.703  15.906  19.728  0.00  0.00    +0.000 A 
ATOM      7  C   UNL     1       2.642  16.904  20.009  0.00  0.00    +0.000 A 
ATOM      8  C   UNL     1       3.629  16.680  20.961  0.00  0.00    +0.000 A 
ATOM      9  C   UNL     1       3.628  15.481  21.683  0.00  0.00    +0.000 A 
ATOM     10  C   UNL     1       2.627  14.514  21.466  0.00  0.00    +0.000 A 
ATOM     11  C   UNL     1       1.729  14.674  20.395  0.00  0.00    +0.000 A 
ENDROOT
BRANCH   9  12
ATOM     12  S   UNL     1       4.961  15.197  22.822  0.00  0.00    +0.000 S 
ATOM     13  O   UNL     1       5.851  16.334  22.742  0.00  0.00    +0.000 OA
ATOM     14  O   UNL     1       4.391  14.785  24.091  0.00  0.00    +0.000 OA
BRANCH  12  15
ATOM     15  N   UNL     1       5.807  13.838  22.169  0.00  0.00    +0.000 NA
ATOM     16  C   UNL     1       6.101  12.697  23.074  0.00  0.00    +0.000 C 
ATOM     17  C   UNL     1       7.483  12.986  23.620  0.00  0.00    +0.000 C 
ATOM     18  C   UNL     1       8.210  13.555  22.415  0.00  0.00    +0.000 C 
ATOM     19  C   UNL     1       7.124  14.186  21.541  0.00  0.00    +0.000 C 
ENDBRANCH  12  15
ENDBRANCH   9  12
BRANCH   1  20
ATOM     20  C   UNL     1       1.236  12.188  20.170  0.00  0.00    +0.000 C 
BRANCH  20  22
ATOM     21  O   UNL     1       2.488  11.763  18.155  0.00  0.00    +0.000 OA
ATOM     22  C   UNL     1       1.689  11.312  18.978  0.00  0.00    +0.000 C 
ATOM     23  N   UNL     1       1.199  10.015  18.875  0.00  0.00    +0.000 N 
ATOM     24  C   UNL     1       1.602   9.175  17.736  0.00  0.00    +0.000 C 
ATOM     25  C   UNL     1       2.683   8.150  18.132  0.00  0.00    +0.000 C 
ATOM     26  N   UNL     1       2.300   7.407  19.347  0.00  0.00    +0.000 N 
ATOM     27  C   UNL     1       1.860   8.241  20.482  0.00  0.00    +0.000 C 
ATOM     28  C   UNL     1       0.764   9.231  20.035  0.00  0.00    +0.000 C 
BRANCH  26  29
ATOM     29  C   UNL     1       1.970   6.063  19.323  0.00  0.00    +0.000 A 
ATOM     30  C   UNL     1       2.021   5.338  18.120  0.00  0.00    +0.000 A 
ATOM     31  C   UNL     1       1.668   3.985  18.056  0.00  0.00    +0.000 A 
ATOM     32  C   UNL     1       1.258   3.321  19.206  0.00  0.00    +0.000 A 
ATOM     33  C   UNL     1       1.197   4.012  20.410  0.00  0.00    +0.000 A 
ATOM     34  C   UNL     1       1.545   5.368  20.461  0.00  0.00    +0.000 A 
ENDBRANCH  26  29
ENDBRANCH  20  22
ENDBRANCH   1  20
TORSDOF 5
ENDMDL
