MODEL 1
REMARK VINA RESULT:      -7.6      0.000      0.000
REMARK  Name = 
REMARK  7 active torsions:
REMARK  status: ('A' for Active; 'I' for Inactive)
REMARK    1  A    between atoms: C_4  and  S_5
REMARK    2  A    between atoms: S_5  and  C_6
REMARK    3  A    between atoms: C_6  and  C_7
REMARK    4  A    between atoms: C_6  and  S_13
REMARK    5  A    between atoms: C_6  and  C_20
REMARK    6  A    between atoms: C_7  and  N_8
REMARK    7  A    between atoms: S_13  and  C_14
REMARK                            x       y       z     vdW  Elec       q    Type
REMARK                         _______ _______ _______ _____ _____    ______ ____
ROOT
ATOM      1  C   UNL     1      -0.250  12.150  19.755  0.00  0.00    +0.000 C 
ENDROOT
BRANCH   1   2
ATOM      2  C   UNL     1       0.524  10.815  19.896  0.00  0.00    +0.000 A 
ATOM      3  C   UNL     1       0.512  10.133  21.136  0.00  0.00    +0.000 A 
ATOM      4  C   UNL     1       1.034   8.845  21.278  0.00  0.00    +0.000 A 
ATOM      5  C   UNL     1       1.607   8.192  20.186  0.00  0.00    +0.000 A 
ATOM      6  C   UNL     1       2.030   6.856  20.274  0.00  0.00    +0.000 A 
ATOM      7  C   UNL     1       2.604   6.222  19.172  0.00  0.00    +0.000 A 
ATOM      8  C   UNL     1       2.802   6.929  17.990  0.00  0.00    +0.000 A 
ATOM      9  C   UNL     1       2.370   8.251  17.886  0.00  0.00    +0.000 A 
ATOM     10  C   UNL     1       1.731   8.882  18.963  0.00  0.00    +0.000 A 
ATOM     11  C   UNL     1       1.179  10.172  18.833  0.00  0.00    +0.000 A 
ENDBRANCH   1   2
BRANCH   1  12
ATOM     12  S   UNL     1      -2.133  12.057  19.751  0.00  0.00    +0.000 S 
BRANCH  12  16
ATOM     13  C   UNL     1      -3.631  10.381  15.743  0.00  0.00    +0.000 A 
ATOM     14  C   UNL     1      -4.373  11.296  16.479  0.00  0.00    +0.000 A 
ATOM     15  C   UNL     1      -3.908  11.729  17.726  0.00  0.00    +0.000 A 
ATOM     16  C   UNL     1      -2.700  11.251  18.262  0.00  0.00    +0.000 A 
ATOM     17  C   UNL     1      -1.984  10.315  17.517  0.00  0.00    +0.000 A 
ATOM     18  C   UNL     1      -2.442   9.884  16.266  0.00  0.00    +0.000 A 
ENDBRANCH  12  16
ENDBRANCH   1  12
BRANCH   1  19
ATOM     19  C   UNL     1       0.312  12.970  18.550  0.00  0.00    +0.000 C 
BRANCH  19  20
ATOM     20  N   UNL     1       1.450  13.848  18.753  0.00  0.00    +0.000 N 
ATOM     21  C   UNL     1       2.764  13.461  18.686  0.00  0.00    +0.000 A 
ATOM     22  C   UNL     1       3.488  14.627  18.747  0.00  0.00    +0.000 A 
ATOM     23  N   UNL     1       2.654  15.709  18.814  0.00  0.00    +0.000 NA
ATOM     24  C   UNL     1       1.437  15.212  18.806  0.00  0.00    +0.000 A 
ENDBRANCH  19  20
ENDBRANCH   1  19
BRANCH   1  25
ATOM     25  S   UNL     1       0.147  13.198  21.358  0.00  0.00    +0.000 S 
BRANCH  25  26
ATOM     26  C   UNL     1      -1.401  13.245  22.256  0.00  0.00    +0.000 A 
ATOM     27  C   UNL     1      -2.290  14.312  22.081  0.00  0.00    +0.000 A 
ATOM     28  C   UNL     1      -3.548  14.300  22.692  0.00  0.00    +0.000 A 
ATOM     29  C   UNL     1      -3.941  13.207  23.461  0.00  0.00    +0.000 A 
ATOM     30  C   UNL     1      -3.069  12.129  23.625  0.00  0.00    +0.000 A 
ATOM     31  C   UNL     1      -1.810  12.147  23.022  0.00  0.00    +0.000 A 
ENDBRANCH  25  26
ENDBRANCH   1  25
TORSDOF 7
ENDMDL
MODEL 2
REMARK VINA RESULT:      -7.4      0.714      1.448
REMARK  Name = 
REMARK  7 active torsions:
REMARK  status: ('A' for Active; 'I' for Inactive)
REMARK    1  A    between atoms: C_4  and  S_5
REMARK    2  A    between atoms: S_5  and  C_6
REMARK    3  A    between atoms: C_6  and  C_7
REMARK    4  A    between atoms: C_6  and  S_13
REMARK    5  A    between atoms: C_6  and  C_20
REMARK    6  A    between atoms: C_7  and  N_8
REMARK    7  A    between atoms: S_13  and  C_14
REMARK                            x       y       z     vdW  Elec       q    Type
REMARK                         _______ _______ _______ _____ _____    ______ ____
ROOT
ATOM      1  C   UNL     1      -0.047  11.206  19.582  0.00  0.00    +0.000 C 
ENDROOT
BRANCH   1   2
ATOM      2  C   UNL     1       0.840   9.936  19.645  0.00  0.00    +0.000 A 
ATOM      3  C   UNL     1       0.832   9.141  20.815  0.00  0.00    +0.000 A 
ATOM      4  C   UNL     1       1.463   7.896  20.868  0.00  0.00    +0.000 A 
ATOM      5  C   UNL     1       2.145   7.402  19.756  0.00  0.00    +0.000 A 
ATOM      6  C   UNL     1       2.685   6.106  19.745  0.00  0.00    +0.000 A 
ATOM      7  C   UNL     1       3.366   5.633  18.625  0.00  0.00    +0.000 A 
ATOM      8  C   UNL     1       3.554   6.463  17.524  0.00  0.00    +0.000 A 
ATOM      9  C   UNL     1       3.006   7.746  17.517  0.00  0.00    +0.000 A 
ATOM     10  C   UNL     1       2.262   8.214  18.609  0.00  0.00    +0.000 A 
ATOM     11  C   UNL     1       1.600   9.457  18.566  0.00  0.00    +0.000 A 
ENDBRANCH   1   2
BRANCH   1  12
ATOM     12  S   UNL     1      -1.915  10.954  19.609  0.00  0.00    +0.000 S 
BRANCH  12  16
ATOM     13  C   UNL     1      -3.588  10.365  15.369  0.00  0.00    +0.000 A 
ATOM     14  C   UNL     1      -2.463   9.683  15.816  0.00  0.00    +0.000 A 
ATOM     15  C   UNL     1      -1.950   9.943  17.092  0.00  0.00    +0.000 A 
ATOM     16  C   UNL     1      -2.546  10.893  17.939  0.00  0.00    +0.000 A 
ATOM     17  C   UNL     1      -3.659  11.583  17.461  0.00  0.00    +0.000 A 
ATOM     18  C   UNL     1      -4.180  11.320  16.188  0.00  0.00    +0.000 A 
ENDBRANCH  12  16
ENDBRANCH   1  12
BRANCH   1  19
ATOM     19  C   UNL     1       0.417  12.125  18.407  0.00  0.00    +0.000 C 
BRANCH  19  20
ATOM     20  N   UNL     1       1.308  13.238  18.681  0.00  0.00    +0.000 N 
ATOM     21  C   UNL     1       2.677  13.187  18.606  0.00  0.00    +0.000 A 
ATOM     22  C   UNL     1       3.096  14.487  18.751  0.00  0.00    +0.000 A 
ATOM     23  N   UNL     1       2.023  15.328  18.877  0.00  0.00    +0.000 NA
ATOM     24  C   UNL     1       0.964  14.552  18.821  0.00  0.00    +0.000 A 
ENDBRANCH  19  20
ENDBRANCH   1  19
BRANCH   1  25
ATOM     25  S   UNL     1       0.297  12.209  21.226  0.00  0.00    +0.000 S 
BRANCH  25  26
ATOM     26  C   UNL     1      -1.329  12.537  21.898  0.00  0.00    +0.000 A 
ATOM     27  C   UNL     1      -1.824  11.773  22.962  0.00  0.00    +0.000 A 
ATOM     28  C   UNL     1      -3.043  12.095  23.565  0.00  0.00    +0.000 A 
ATOM     29  C   UNL     1      -3.768  13.202  23.129  0.00  0.00    +0.000 A 
ATOM     30  C   UNL     1      -3.274  13.982  22.082  0.00  0.00    +0.000 A 
ATOM     31  C   UNL     1      -2.060  13.653  21.475  0.00  0.00    +0.000 A 
ENDBRANCH  25  26
ENDBRANCH   1  25
TORSDOF 7
ENDMDL
MODEL 3
REMARK VINA RESULT:      -7.4      1.629      5.354
REMARK  Name = 
REMARK  7 active torsions:
REMARK  status: ('A' for Active; 'I' for Inactive)
REMARK    1  A    between atoms: C_4  and  S_5
REMARK    2  A    between atoms: S_5  and  C_6
REMARK    3  A    between atoms: C_6  and  C_7
REMARK    4  A    between atoms: C_6  and  S_13
REMARK    5  A    between atoms: C_6  and  C_20
REMARK    6  A    between atoms: C_7  and  N_8
REMARK    7  A    between atoms: S_13  and  C_14
REMARK                            x       y       z     vdW  Elec       q    Type
REMARK                         _______ _______ _______ _____ _____    ______ ____
ROOT
ATOM      1  C   UNL     1      -0.667  12.040  19.921  0.00  0.00    +0.000 C 
ENDROOT
BRANCH   1   2
ATOM      2  C   UNL     1       0.221  10.772  19.993  0.00  0.00    +0.000 A 
ATOM      3  C   UNL     1       0.217   9.988  21.171  0.00  0.00    +0.000 A 
ATOM      4  C   UNL     1       0.851   8.744  21.235  0.00  0.00    +0.000 A 
ATOM      5  C   UNL     1       1.530   8.241  20.125  0.00  0.00    +0.000 A 
ATOM      6  C   UNL     1       2.071   6.946  20.126  0.00  0.00    +0.000 A 
ATOM      7  C   UNL     1       2.750   6.462  19.008  0.00  0.00    +0.000 A 
ATOM      8  C   UNL     1       2.933   7.282  17.899  0.00  0.00    +0.000 A 
ATOM      9  C   UNL     1       2.384   8.564  17.880  0.00  0.00    +0.000 A 
ATOM     10  C   UNL     1       1.643   9.042  18.971  0.00  0.00    +0.000 A 
ATOM     11  C   UNL     1       0.979  10.284  18.917  0.00  0.00    +0.000 A 
ENDBRANCH   1   2
BRANCH   1  12
ATOM     12  S   UNL     1      -0.459  13.153  18.414  0.00  0.00    +0.000 S 
BRANCH  12  16
ATOM     13  C   UNL     1       3.350  15.723  18.521  0.00  0.00    +0.000 A 
ATOM     14  C   UNL     1       3.386  14.369  18.210  0.00  0.00    +0.000 A 
ATOM     15  C   UNL     1       2.211  13.611  18.253  0.00  0.00    +0.000 A 
ATOM     16  C   UNL     1       0.982  14.189  18.617  0.00  0.00    +0.000 A 
ATOM     17  C   UNL     1       0.973  15.544  18.949  0.00  0.00    +0.000 A 
ATOM     18  C   UNL     1       2.146  16.307  18.899  0.00  0.00    +0.000 A 
ENDBRANCH  12  16
ENDBRANCH   1  12
BRANCH   1  19
ATOM     19  C   UNL     1      -0.584  12.830  21.266  0.00  0.00    +0.000 C 
BRANCH  19  20
ATOM     20  N   UNL     1      -1.776  12.981  22.080  0.00  0.00    +0.000 N 
ATOM     21  C   UNL     1      -2.156  12.131  23.086  0.00  0.00    +0.000 A 
ATOM     22  C   UNL     1      -3.215  12.749  23.703  0.00  0.00    +0.000 A 
ATOM     23  N   UNL     1      -3.468  13.963  23.124  0.00  0.00    +0.000 NA
ATOM     24  C   UNL     1      -2.583  14.080  22.160  0.00  0.00    +0.000 A 
ENDBRANCH  19  20
ENDBRANCH   1  19
BRANCH   1  25
ATOM     25  S   UNL     1      -2.516  11.418  19.769  0.00  0.00    +0.000 S 
BRANCH  25  26
ATOM     26  C   UNL     1      -2.709  11.006  18.038  0.00  0.00    +0.000 A 
ATOM     27  C   UNL     1      -1.943   9.985  17.463  0.00  0.00    +0.000 A 
ATOM     28  C   UNL     1      -2.167   9.582  16.143  0.00  0.00    +0.000 A 
ATOM     29  C   UNL     1      -3.179  10.177  15.393  0.00  0.00    +0.000 A 
ATOM     30  C   UNL     1      -3.962  11.182  15.964  0.00  0.00    +0.000 A 
ATOM     31  C   UNL     1      -3.731  11.588  17.280  0.00  0.00    +0.000 A 
ENDBRANCH  25  26
ENDBRANCH   1  25
TORSDOF 7
ENDMDL
MODEL 4
REMARK VINA RESULT:      -7.4      0.650      1.208
REMARK  Name = 
REMARK  7 active torsions:
REMARK  status: ('A' for Active; 'I' for Inactive)
REMARK    1  A    between atoms: C_4  and  S_5
REMARK    2  A    between atoms: S_5  and  C_6
REMARK    3  A    between atoms: C_6  and  C_7
REMARK    4  A    between atoms: C_6  and  S_13
REMARK    5  A    between atoms: C_6  and  C_20
REMARK    6  A    between atoms: C_7  and  N_8
REMARK    7  A    between atoms: S_13  and  C_14
REMARK                            x       y       z     vdW  Elec       q    Type
REMARK                         _______ _______ _______ _____ _____    ______ ____
ROOT
ATOM      1  C   UNL     1      -0.190  11.523  19.597  0.00  0.00    +0.000 C 
ENDROOT
BRANCH   1   2
ATOM      2  C   UNL     1       0.646  10.227  19.745  0.00  0.00    +0.000 A 
ATOM      3  C   UNL     1       0.571   9.486  20.949  0.00  0.00    +0.000 A 
ATOM      4  C   UNL     1       1.154   8.223  21.078  0.00  0.00    +0.000 A 
ATOM      5  C   UNL     1       1.851   7.655  20.011  0.00  0.00    +0.000 A 
ATOM      6  C   UNL     1       2.342   6.342  20.076  0.00  0.00    +0.000 A 
ATOM      7  C   UNL     1       3.040   5.793  19.000  0.00  0.00    +0.000 A 
ATOM      8  C   UNL     1       3.293   6.566  17.871  0.00  0.00    +0.000 A 
ATOM      9  C   UNL     1       2.795   7.866  17.789  0.00  0.00    +0.000 A 
ATOM     10  C   UNL     1       2.035   8.410  18.835  0.00  0.00    +0.000 A 
ATOM     11  C   UNL     1       1.422   9.673  18.714  0.00  0.00    +0.000 A 
ENDBRANCH   1   2
BRANCH   1  12
ATOM     12  S   UNL     1      -2.067  11.344  19.599  0.00  0.00    +0.000 S 
BRANCH  12  16
ATOM     13  C   UNL     1      -3.508  10.435  15.331  0.00  0.00    +0.000 A 
ATOM     14  C   UNL     1      -4.198  11.301  16.170  0.00  0.00    +0.000 A 
ATOM     15  C   UNL     1      -3.760  11.497  17.484  0.00  0.00    +0.000 A 
ATOM     16  C   UNL     1      -2.630  10.826  17.985  0.00  0.00    +0.000 A 
ATOM     17  C   UNL     1      -1.967   9.944  17.132  0.00  0.00    +0.000 A 
ATOM     18  C   UNL     1      -2.399   9.751  15.814  0.00  0.00    +0.000 A 
ENDBRANCH  12  16
ENDBRANCH   1  12
BRANCH   1  19
ATOM     19  C   UNL     1       0.331  12.361  18.385  0.00  0.00    +0.000 C 
BRANCH  19  20
ATOM     20  N   UNL     1       1.284  13.432  18.615  0.00  0.00    +0.000 N 
ATOM     21  C   UNL     1       0.956  14.750  18.805  0.00  0.00    +0.000 A 
ATOM     22  C   UNL     1       2.128  15.365  19.174  0.00  0.00    +0.000 A 
ATOM     23  N   UNL     1       3.147  14.455  19.247  0.00  0.00    +0.000 NA
ATOM     24  C   UNL     1       2.609  13.302  18.916  0.00  0.00    +0.000 A 
ENDBRANCH  19  20
ENDBRANCH   1  19
BRANCH   1  25
ATOM     25  S   UNL     1       0.161  12.600  21.193  0.00  0.00    +0.000 S 
BRANCH  25  26
ATOM     26  C   UNL     1      -1.443  12.796  21.962  0.00  0.00    +0.000 A 
ATOM     27  C   UNL     1      -1.827  11.967  23.023  0.00  0.00    +0.000 A 
ATOM     28  C   UNL     1      -3.030  12.187  23.701  0.00  0.00    +0.000 A 
ATOM     29  C   UNL     1      -3.848  13.255  23.344  0.00  0.00    +0.000 A 
ATOM     30  C   UNL     1      -3.465  14.100  22.300  0.00  0.00    +0.000 A 
ATOM     31  C   UNL     1      -2.268  13.874  21.618  0.00  0.00    +0.000 A 
ENDBRANCH  25  26
ENDBRANCH   1  25
TORSDOF 7
ENDMDL
MODEL 5
REMARK VINA RESULT:      -7.3      1.724      5.096
REMARK  Name = 
REMARK  7 active torsions:
REMARK  status: ('A' for Active; 'I' for Inactive)
REMARK    1  A    between atoms: C_4  and  S_5
REMARK    2  A    between atoms: S_5  and  C_6
REMARK    3  A    between atoms: C_6  and  C_7
REMARK    4  A    between atoms: C_6  and  S_13
REMARK    5  A    between atoms: C_6  and  C_20
REMARK    6  A    between atoms: C_7  and  N_8
REMARK    7  A    between atoms: S_13  and  C_14
REMARK                            x       y       z     vdW  Elec       q    Type
REMARK                         _______ _______ _______ _____ _____    ______ ____
ROOT
ATOM      1  C   UNL     1       0.344  11.608  19.998  0.00  0.00    +0.000 C 
ENDROOT
BRANCH   1   2
ATOM      2  C   UNL     1       0.921  10.261  19.492  0.00  0.00    +0.000 A 
ATOM      3  C   UNL     1       1.543  10.204  18.223  0.00  0.00    +0.000 A 
ATOM      4  C   UNL     1       2.238   9.073  17.789  0.00  0.00    +0.000 A 
ATOM      5  C   UNL     1       2.326   7.943  18.603  0.00  0.00    +0.000 A 
ATOM      6  C   UNL     1       3.117   6.842  18.240  0.00  0.00    +0.000 A 
ATOM      7  C   UNL     1       3.188   5.720  19.065  0.00  0.00    +0.000 A 
ATOM      8  C   UNL     1       2.435   5.670  20.235  0.00  0.00    +0.000 A 
ATOM      9  C   UNL     1       1.660   6.766  20.613  0.00  0.00    +0.000 A 
ATOM     10  C   UNL     1       1.629   7.927  19.828  0.00  0.00    +0.000 A 
ATOM     11  C   UNL     1       0.952   9.085  20.259  0.00  0.00    +0.000 A 
ENDBRANCH   1   2
BRANCH   1  12
ATOM     12  S   UNL     1       1.570  12.867  20.681  0.00  0.00    +0.000 S 
BRANCH  12  16
ATOM     13  C   UNL     1       2.922  16.078  17.684  0.00  0.00    +0.000 A 
ATOM     14  C   UNL     1       1.926  16.322  18.622  0.00  0.00    +0.000 A 
ATOM     15  C   UNL     1       1.500  15.294  19.470  0.00  0.00    +0.000 A 
ATOM     16  C   UNL     1       2.055  14.005  19.393  0.00  0.00    +0.000 A 
ATOM     17  C   UNL     1       3.037  13.777  18.429  0.00  0.00    +0.000 A 
ATOM     18  C   UNL     1       3.471  14.805  17.583  0.00  0.00    +0.000 A 
ENDBRANCH  12  16
ENDBRANCH   1  12
BRANCH   1  19
ATOM     19  C   UNL     1      -0.852  11.348  20.969  0.00  0.00    +0.000 C 
BRANCH  19  20
ATOM     20  N   UNL     1      -1.321  12.421  21.826  0.00  0.00    +0.000 N 
ATOM     21  C   UNL     1      -2.066  13.494  21.408  0.00  0.00    +0.000 A 
ATOM     22  C   UNL     1      -2.445  14.142  22.558  0.00  0.00    +0.000 A 
ATOM     23  N   UNL     1      -1.982  13.476  23.661  0.00  0.00    +0.000 NA
ATOM     24  C   UNL     1      -1.320  12.443  23.191  0.00  0.00    +0.000 A 
ENDBRANCH  19  20
ENDBRANCH   1  19
BRANCH   1  25
ATOM     25  S   UNL     1      -0.410  12.513  18.436  0.00  0.00    +0.000 S 
BRANCH  25  26
ATOM     26  C   UNL     1      -1.885  11.578  18.046  0.00  0.00    +0.000 A 
ATOM     27  C   UNL     1      -3.146  12.053  18.425  0.00  0.00    +0.000 A 
ATOM     28  C   UNL     1      -4.309  11.387  18.027  0.00  0.00    +0.000 A 
ATOM     29  C   UNL     1      -4.224  10.254  17.221  0.00  0.00    +0.000 A 
ATOM     30  C   UNL     1      -2.972   9.783  16.821  0.00  0.00    +0.000 A 
ATOM     31  C   UNL     1      -1.812  10.446  17.227  0.00  0.00    +0.000 A 
ENDBRANCH  25  26
ENDBRANCH   1  25
TORSDOF 7
ENDMDL
MODEL 6
REMARK VINA RESULT:      -7.3      0.438      1.410
REMARK  Name = 
REMARK  7 active torsions:
REMARK  status: ('A' for Active; 'I' for Inactive)
REMARK    1  A    between atoms: C_4  and  S_5
REMARK    2  A    between atoms: S_5  and  C_6
REMARK    3  A    between atoms: C_6  and  C_7
REMARK    4  A    between atoms: C_6  and  S_13
REMARK    5  A    between atoms: C_6  and  C_20
REMARK    6  A    between atoms: C_7  and  N_8
REMARK    7  A    between atoms: S_13  and  C_14
REMARK                            x       y       z     vdW  Elec       q    Type
REMARK                         _______ _______ _______ _____ _____    ______ ____
ROOT
ATOM      1  C   UNL     1      -0.322  12.078  19.760  0.00  0.00    +0.000 C 
ENDROOT
BRANCH   1   2
ATOM      2  C   UNL     1       0.482  10.760  19.890  0.00  0.00    +0.000 A 
ATOM      3  C   UNL     1       0.447  10.042  21.109  0.00  0.00    +0.000 A 
ATOM      4  C   UNL     1       0.998   8.764  21.232  0.00  0.00    +0.000 A 
ATOM      5  C   UNL     1       1.624   8.158  20.142  0.00  0.00    +0.000 A 
ATOM      6  C   UNL     1       2.079   6.831  20.207  0.00  0.00    +0.000 A 
ATOM      7  C   UNL     1       2.705   6.244  19.108  0.00  0.00    +0.000 A 
ATOM      8  C   UNL     1       2.923   6.989  17.954  0.00  0.00    +0.000 A 
ATOM      9  C   UNL     1       2.460   8.303  17.872  0.00  0.00    +0.000 A 
ATOM     10  C   UNL     1       1.770   8.886  18.944  0.00  0.00    +0.000 A 
ATOM     11  C   UNL     1       1.188  10.165  18.832  0.00  0.00    +0.000 A 
ENDBRANCH   1   2
BRANCH   1  12
ATOM     12  S   UNL     1      -2.201  11.938  19.694  0.00  0.00    +0.000 S 
BRANCH  12  16
ATOM     13  C   UNL     1      -3.496  10.092  15.690  0.00  0.00    +0.000 A 
ATOM     14  C   UNL     1      -2.295   9.753  16.300  0.00  0.00    +0.000 A 
ATOM     15  C   UNL     1      -1.910  10.389  17.485  0.00  0.00    +0.000 A 
ATOM     16  C   UNL     1      -2.714  11.379  18.077  0.00  0.00    +0.000 A 
ATOM     17  C   UNL     1      -3.904  11.720  17.435  0.00  0.00    +0.000 A 
ATOM     18  C   UNL     1      -4.296  11.080  16.252  0.00  0.00    +0.000 A 
ENDBRANCH  12  16
ENDBRANCH   1  12
BRANCH   1  19
ATOM     19  C   UNL     1       0.256  12.945  18.595  0.00  0.00    +0.000 C 
BRANCH  19  20
ATOM     20  N   UNL     1       1.385  13.821  18.850  0.00  0.00    +0.000 N 
ATOM     21  C   UNL     1       1.304  15.178  19.030  0.00  0.00    +0.000 A 
ATOM     22  C   UNL     1       2.559  15.566  19.431  0.00  0.00    +0.000 A 
ATOM     23  N   UNL     1       3.388  14.482  19.531  0.00  0.00    +0.000 NA
ATOM     24  C   UNL     1       2.654  13.448  19.187  0.00  0.00    +0.000 A 
ENDBRANCH  19  20
ENDBRANCH   1  19
BRANCH   1  25
ATOM     25  S   UNL     1      -0.002  13.091  21.402  0.00  0.00    +0.000 S 
BRANCH  25  26
ATOM     26  C   UNL     1      -1.598  13.146  22.211  0.00  0.00    +0.000 A 
ATOM     27  C   UNL     1      -2.020  12.084  23.021  0.00  0.00    +0.000 A 
ATOM     28  C   UNL     1      -3.213  12.168  23.744  0.00  0.00    +0.000 A 
ATOM     29  C   UNL     1      -3.983  13.328  23.689  0.00  0.00    +0.000 A 
ATOM     30  C   UNL     1      -3.561  14.400  22.902  0.00  0.00    +0.000 A 
ATOM     31  C   UNL     1      -2.374  14.311  22.173  0.00  0.00    +0.000 A 
ENDBRANCH  25  26
ENDBRANCH   1  25
TORSDOF 7
ENDMDL
MODEL 7
REMARK VINA RESULT:      -7.3      1.207      1.974
REMARK  Name = 
REMARK  7 active torsions:
REMARK  status: ('A' for Active; 'I' for Inactive)
REMARK    1  A    between atoms: C_4  and  S_5
REMARK    2  A    between atoms: S_5  and  C_6
REMARK    3  A    between atoms: C_6  and  C_7
REMARK    4  A    between atoms: C_6  and  S_13
REMARK    5  A    between atoms: C_6  and  C_20
REMARK    6  A    between atoms: C_7  and  N_8
REMARK    7  A    between atoms: S_13  and  C_14
REMARK                            x       y       z     vdW  Elec       q    Type
REMARK                         _______ _______ _______ _____ _____    ______ ____
ROOT
ATOM      1  C   UNL     1       0.251  11.771  20.533  0.00  0.00    +0.000 C 
ENDROOT
BRANCH   1   2
ATOM      2  C   UNL     1       0.823  10.529  19.805  0.00  0.00    +0.000 A 
ATOM      3  C   UNL     1       1.321  10.664  18.487  0.00  0.00    +0.000 A 
ATOM      4  C   UNL     1       2.010   9.632  17.846  0.00  0.00    +0.000 A 
ATOM      5  C   UNL     1       2.216   8.413  18.493  0.00  0.00    +0.000 A 
ATOM      6  C   UNL     1       3.006   7.406  17.918  0.00  0.00    +0.000 A 
ATOM      7  C   UNL     1       3.197   6.192  18.578  0.00  0.00    +0.000 A 
ATOM      8  C   UNL     1       2.563   5.957  19.795  0.00  0.00    +0.000 A 
ATOM      9  C   UNL     1       1.790   6.958  20.384  0.00  0.00    +0.000 A 
ATOM     10  C   UNL     1       1.642   8.207  19.764  0.00  0.00    +0.000 A 
ATOM     11  C   UNL     1       0.969   9.267  20.404  0.00  0.00    +0.000 A 
ENDBRANCH   1   2
BRANCH   1  12
ATOM     12  S   UNL     1      -1.048  12.785  19.618  0.00  0.00    +0.000 S 
BRANCH  12  16
ATOM     13  C   UNL     1      -4.443  10.357  17.693  0.00  0.00    +0.000 A 
ATOM     14  C   UNL     1      -4.695  11.442  18.523  0.00  0.00    +0.000 A 
ATOM     15  C   UNL     1      -3.633  12.111  19.140  0.00  0.00    +0.000 A 
ATOM     16  C   UNL     1      -2.302  11.704  18.946  0.00  0.00    +0.000 A 
ATOM     17  C   UNL     1      -2.073  10.598  18.127  0.00  0.00    +0.000 A 
ATOM     18  C   UNL     1      -3.133   9.931  17.502  0.00  0.00    +0.000 A 
ENDBRANCH  12  16
ENDBRANCH   1  12
BRANCH   1  19
ATOM     19  C   UNL     1       1.417  12.651  21.087  0.00  0.00    +0.000 C 
BRANCH  19  20
ATOM     20  N   UNL     1       1.745  13.900  20.425  0.00  0.00    +0.000 N 
ATOM     21  C   UNL     1       1.531  15.149  20.950  0.00  0.00    +0.000 A 
ATOM     22  C   UNL     1       2.156  16.016  20.088  0.00  0.00    +0.000 A 
ATOM     23  N   UNL     1       2.771  15.330  19.076  0.00  0.00    +0.000 NA
ATOM     24  C   UNL     1       2.516  14.062  19.310  0.00  0.00    +0.000 A 
ENDBRANCH  19  20
ENDBRANCH   1  19
BRANCH   1  25
ATOM     25  S   UNL     1      -0.717  11.104  22.097  0.00  0.00    +0.000 S 
BRANCH  25  26
ATOM     26  C   UNL     1      -1.686  12.503  22.653  0.00  0.00    +0.000 A 
ATOM     27  C   UNL     1      -3.078  12.405  22.756  0.00  0.00    +0.000 A 
ATOM     28  C   UNL     1      -3.829  13.454  23.295  0.00  0.00    +0.000 A 
ATOM     29  C   UNL     1      -3.193  14.600  23.764  0.00  0.00    +0.000 A 
ATOM     30  C   UNL     1      -1.803  14.700  23.685  0.00  0.00    +0.000 A 
ATOM     31  C   UNL     1      -1.055  13.655  23.138  0.00  0.00    +0.000 A 
ENDBRANCH  25  26
ENDBRANCH   1  25
TORSDOF 7
ENDMDL
MODEL 8
REMARK VINA RESULT:      -7.3      1.741      5.306
REMARK  Name = 
REMARK  7 active torsions:
REMARK  status: ('A' for Active; 'I' for Inactive)
REMARK    1  A    between atoms: C_4  and  S_5
REMARK    2  A    between atoms: S_5  and  C_6
REMARK    3  A    between atoms: C_6  and  C_7
REMARK    4  A    between atoms: C_6  and  S_13
REMARK    5  A    between atoms: C_6  and  C_20
REMARK    6  A    between atoms: C_7  and  N_8
REMARK    7  A    between atoms: S_13  and  C_14
REMARK                            x       y       z     vdW  Elec       q    Type
REMARK                         _______ _______ _______ _____ _____    ______ ____
ROOT
ATOM      1  C   UNL     1       0.268  11.013  19.541  0.00  0.00    +0.000 C 
ENDROOT
BRANCH   1   2
ATOM      2  C   UNL     1       1.029   9.739  19.095  0.00  0.00    +0.000 A 
ATOM      3  C   UNL     1       1.721   9.739  17.861  0.00  0.00    +0.000 A 
ATOM      4  C   UNL     1       2.570   8.694  17.488  0.00  0.00    +0.000 A 
ATOM      5  C   UNL     1       2.748   7.595  18.329  0.00  0.00    +0.000 A 
ATOM      6  C   UNL     1       3.685   6.593  18.032  0.00  0.00    +0.000 A 
ATOM      7  C   UNL     1       3.846   5.500  18.884  0.00  0.00    +0.000 A 
ATOM      8  C   UNL     1       3.043   5.377  20.013  0.00  0.00    +0.000 A 
ATOM      9  C   UNL     1       2.122   6.376  20.328  0.00  0.00    +0.000 A 
ATOM     10  C   UNL     1       1.994   7.513  19.517  0.00  0.00    +0.000 A 
ATOM     11  C   UNL     1       1.160   8.586  19.888  0.00  0.00    +0.000 A 
ENDBRANCH   1   2
BRANCH   1  12
ATOM     12  S   UNL     1       0.146  12.423  18.296  0.00  0.00    +0.000 S 
BRANCH  12  16
ATOM     13  C   UNL     1       3.417  15.449  19.421  0.00  0.00    +0.000 A 
ATOM     14  C   UNL     1       2.069  15.712  19.634  0.00  0.00    +0.000 A 
ATOM     15  C   UNL     1       1.104  14.790  19.215  0.00  0.00    +0.000 A 
ATOM     16  C   UNL     1       1.467  13.594  18.571  0.00  0.00    +0.000 A 
ATOM     17  C   UNL     1       2.823  13.362  18.347  0.00  0.00    +0.000 A 
ATOM     18  C   UNL     1       3.793  14.279  18.771  0.00  0.00    +0.000 A 
ENDBRANCH  12  16
ENDBRANCH   1  12
BRANCH   1  19
ATOM     19  C   UNL     1       0.790  11.488  20.936  0.00  0.00    +0.000 C 
BRANCH  19  20
ATOM     20  N   UNL     1      -0.160  11.940  21.936  0.00  0.00    +0.000 N 
ATOM     21  C   UNL     1      -0.654  13.215  22.033  0.00  0.00    +0.000 A 
ATOM     22  C   UNL     1      -1.649  13.148  22.978  0.00  0.00    +0.000 A 
ATOM     23  N   UNL     1      -1.795  11.866  23.432  0.00  0.00    +0.000 NA
ATOM     24  C   UNL     1      -0.896  11.161  22.783  0.00  0.00    +0.000 A 
ENDBRANCH  19  20
ENDBRANCH   1  19
BRANCH   1  25
ATOM     25  S   UNL     1      -1.596  10.485  19.809  0.00  0.00    +0.000 S 
BRANCH  25  26
ATOM     26  C   UNL     1      -2.345  10.651  18.192  0.00  0.00    +0.000 A 
ATOM     27  C   UNL     1      -1.935   9.833  17.133  0.00  0.00    +0.000 A 
ATOM     28  C   UNL     1      -2.591   9.880  15.900  0.00  0.00    +0.000 A 
ATOM     29  C   UNL     1      -3.684  10.725  15.721  0.00  0.00    +0.000 A 
ATOM     30  C   UNL     1      -4.113  11.531  16.777  0.00  0.00    +0.000 A 
ATOM     31  C   UNL     1      -3.451  11.489  18.005  0.00  0.00    +0.000 A 
ENDBRANCH  25  26
ENDBRANCH   1  25
TORSDOF 7
ENDMDL
MODEL 9
REMARK VINA RESULT:      -7.3      1.785      4.867
REMARK  Name = 
REMARK  7 active torsions:
REMARK  status: ('A' for Active; 'I' for Inactive)
REMARK    1  A    between atoms: C_4  and  S_5
REMARK    2  A    between atoms: S_5  and  C_6
REMARK    3  A    between atoms: C_6  and  C_7
REMARK    4  A    between atoms: C_6  and  S_13
REMARK    5  A    between atoms: C_6  and  C_20
REMARK    6  A    between atoms: C_7  and  N_8
REMARK    7  A    between atoms: S_13  and  C_14
REMARK                            x       y       z     vdW  Elec       q    Type
REMARK                         _______ _______ _______ _____ _____    ______ ____
ROOT
ATOM      1  C   UNL     1      -0.138  12.169  20.498  0.00  0.00    +0.000 C 
ENDROOT
BRANCH   1   2
ATOM      2  C   UNL     1       0.612  10.817  20.401  0.00  0.00    +0.000 A 
ATOM      3  C   UNL     1       0.674   9.974  21.536  0.00  0.00    +0.000 A 
ATOM      4  C   UNL     1       1.173   8.671  21.464  0.00  0.00    +0.000 A 
ATOM      5  C   UNL     1       1.647   8.163  20.254  0.00  0.00    +0.000 A 
ATOM      6  C   UNL     1       2.042   6.821  20.131  0.00  0.00    +0.000 A 
ATOM      7  C   UNL     1       2.517   6.333  18.914  0.00  0.00    +0.000 A 
ATOM      8  C   UNL     1       2.645   7.190  17.825  0.00  0.00    +0.000 A 
ATOM      9  C   UNL     1       2.238   8.520  17.932  0.00  0.00    +0.000 A 
ATOM     10  C   UNL     1       1.697   9.010  19.129  0.00  0.00    +0.000 A 
ATOM     11  C   UNL     1       1.169  10.313  19.214  0.00  0.00    +0.000 A 
ENDBRANCH   1   2
BRANCH   1  12
ATOM     12  S   UNL     1       0.868  13.676  21.022  0.00  0.00    +0.000 S 
BRANCH  12  16
ATOM     13  C   UNL     1       3.390  15.606  17.700  0.00  0.00    +0.000 A 
ATOM     14  C   UNL     1       2.300  16.256  18.267  0.00  0.00    +0.000 A 
ATOM     15  C   UNL     1       1.521  15.604  19.229  0.00  0.00    +0.000 A 
ATOM     16  C   UNL     1       1.811  14.290  19.635  0.00  0.00    +0.000 A 
ATOM     17  C   UNL     1       2.895  13.648  19.036  0.00  0.00    +0.000 A 
ATOM     18  C   UNL     1       3.681  14.300  18.079  0.00  0.00    +0.000 A 
ENDBRANCH  12  16
ENDBRANCH   1  12
BRANCH   1  19
ATOM     19  C   UNL     1      -1.444  11.999  21.339  0.00  0.00    +0.000 C 
BRANCH  19  20
ATOM     20  N   UNL     1      -1.941  13.117  22.119  0.00  0.00    +0.000 N 
ATOM     21  C   UNL     1      -1.599  13.384  23.420  0.00  0.00    +0.000 A 
ATOM     22  C   UNL     1      -2.136  14.619  23.690  0.00  0.00    +0.000 A 
ATOM     23  N   UNL     1      -2.764  15.123  22.584  0.00  0.00    +0.000 NA
ATOM     24  C   UNL     1      -2.622  14.206  21.654  0.00  0.00    +0.000 A 
ENDBRANCH  19  20
ENDBRANCH   1  19
BRANCH   1  25
ATOM     25  S   UNL     1      -0.714  12.620  18.684  0.00  0.00    +0.000 S 
BRANCH  25  26
ATOM     26  C   UNL     1      -2.173  11.619  18.416  0.00  0.00    +0.000 A 
ATOM     27  C   UNL     1      -3.448  12.144  18.658  0.00  0.00    +0.000 A 
ATOM     28  C   UNL     1      -4.594  11.407  18.345  0.00  0.00    +0.000 A 
ATOM     29  C   UNL     1      -4.478  10.149  17.759  0.00  0.00    +0.000 A 
ATOM     30  C   UNL     1      -3.211   9.625  17.495  0.00  0.00    +0.000 A 
ATOM     31  C   UNL     1      -2.067  10.358  17.816  0.00  0.00    +0.000 A 
ENDBRANCH  25  26
ENDBRANCH   1  25
TORSDOF 7
ENDMDL
