MODEL 1
REMARK VINA RESULT:      -7.4      0.000      0.000
REMARK  Name = 
REMARK  2 active torsions:
REMARK  status: ('A' for Active; 'I' for Inactive)
REMARK    1  A    between atoms: C_2  and  C_3
REMARK    2  A    between atoms: C_9  and  N_10
REMARK                            x       y       z     vdW  Elec       q    Type
REMARK                         _______ _______ _______ _____ _____    ______ ____
ROOT
ATOM      1  N   UNL     1       2.803   6.394  18.998  0.00  0.00    +0.000 N 
ATOM      2  N   UNL     1       3.984   6.459  18.343  0.00  0.00    +0.000 NA
ATOM      3  C   UNL     1       4.556   5.282  18.623  0.00  0.00    +0.000 A 
ATOM      4  I   UNL     1       6.402   4.818  17.881  0.00  0.00    +0.000 I 
ATOM      5  C   UNL     1       3.775   4.470  19.472  0.00  0.00    +0.000 A 
ATOM      6  C   UNL     1       3.826   3.213  20.087  0.00  0.00    +0.000 A 
ATOM      7  N   UNL     1       4.852   2.300  19.938  0.00  0.00    +0.000 N 
ATOM      8  N   UNL     1       2.799   2.843  20.882  0.00  0.00    +0.000 NA
ATOM      9  C   UNL     1       1.757   3.684  21.029  0.00  0.00    +0.000 A 
ATOM     10  N   UNL     1       1.593   4.899  20.479  0.00  0.00    +0.000 NA
ATOM     11  C   UNL     1       2.641   5.233  19.708  0.00  0.00    +0.000 A 
ATOM     12  H   UNL     1       5.749   2.628  19.610  0.00  0.00    +0.000 HD
ATOM     13  H   UNL     1       4.836   1.559  20.627  0.00  0.00    +0.000 HD
ENDROOT
BRANCH   1  20
ATOM     14  C   UNL     1      -0.145   9.715  20.939  0.00  0.00    +0.000 C 
ATOM     15  O   UNL     1      -0.979  10.571  20.661  0.00  0.00    +0.000 OA
ATOM     16  N   UNL     1       0.981   9.475  20.168  0.00  0.00    +0.000 N 
ATOM     17  C   UNL     1       1.275  10.381  19.058  0.00  0.00    +0.000 C 
ATOM     18  C   UNL     1       1.217   9.639  17.726  0.00  0.00    +0.000 C 
ATOM     19  C   UNL     1       2.150   8.428  17.729  0.00  0.00    +0.000 C 
ATOM     20  C   UNL     1       1.869   7.511  18.932  0.00  0.00    +0.000 C 
ATOM     21  C   UNL     1       1.864   8.299  20.252  0.00  0.00    +0.000 C 
BRANCH  14  23
ATOM     22  C   UNL     1      -0.018   9.410  23.374  0.00  0.00    +0.000 C 
ATOM     23  C   UNL     1      -0.304   8.896  22.172  0.00  0.00    +0.000 C 
ENDBRANCH  14  23
ENDBRANCH   1  20
TORSDOF 2
ENDMDL
MODEL 2
REMARK VINA RESULT:      -6.9      4.807      7.372
REMARK  Name = 
REMARK  2 active torsions:
REMARK  status: ('A' for Active; 'I' for Inactive)
REMARK    1  A    between atoms: C_2  and  C_3
REMARK    2  A    between atoms: C_9  and  N_10
REMARK                            x       y       z     vdW  Elec       q    Type
REMARK                         _______ _______ _______ _____ _____    ______ ____
ROOT
ATOM      1  N   UNL     1       4.151   4.502  17.328  0.00  0.00    +0.000 N 
ATOM      2  N   UNL     1       3.869   5.781  17.665  0.00  0.00    +0.000 NA
ATOM      3  C   UNL     1       2.875   5.653  18.552  0.00  0.00    +0.000 A 
ATOM      4  I   UNL     1       2.032   7.302  19.416  0.00  0.00    +0.000 I 
ATOM      5  C   UNL     1       2.491   4.315  18.771  0.00  0.00    +0.000 A 
ATOM      6  C   UNL     1       1.570   3.580  19.529  0.00  0.00    +0.000 A 
ATOM      7  N   UNL     1       0.678   4.124  20.432  0.00  0.00    +0.000 N 
ATOM      8  N   UNL     1       1.545   2.238  19.387  0.00  0.00    +0.000 NA
ATOM      9  C   UNL     1       2.422   1.657  18.545  0.00  0.00    +0.000 A 
ATOM     10  N   UNL     1       3.354   2.254  17.784  0.00  0.00    +0.000 NA
ATOM     11  C   UNL     1       3.337   3.588  17.946  0.00  0.00    +0.000 A 
ATOM     12  H   UNL     1       0.454   5.106  20.363  0.00  0.00    +0.000 HD
ATOM     13  H   UNL     1      -0.057   3.484  20.708  0.00  0.00    +0.000 HD
ENDROOT
BRANCH   1  20
ATOM     14  C   UNL     1       5.861   3.683  12.869  0.00  0.00    +0.000 C 
ATOM     15  O   UNL     1       6.863   3.341  12.248  0.00  0.00    +0.000 OA
ATOM     16  N   UNL     1       5.905   4.486  13.997  0.00  0.00    +0.000 N 
ATOM     17  C   UNL     1       7.184   5.084  14.380  0.00  0.00    +0.000 C 
ATOM     18  C   UNL     1       7.635   4.565  15.742  0.00  0.00    +0.000 C 
ATOM     19  C   UNL     1       6.561   4.800  16.804  0.00  0.00    +0.000 C 
ATOM     20  C   UNL     1       5.207   4.217  16.365  0.00  0.00    +0.000 C 
ATOM     21  C   UNL     1       4.813   4.700  14.960  0.00  0.00    +0.000 C 
BRANCH  14  23
ATOM     22  C   UNL     1       4.223   3.233  11.093  0.00  0.00    +0.000 C 
ATOM     23  C   UNL     1       4.515   3.254  12.399  0.00  0.00    +0.000 C 
ENDBRANCH  14  23
ENDBRANCH   1  20
TORSDOF 2
ENDMDL
MODEL 3
REMARK VINA RESULT:      -6.8      3.343      6.421
REMARK  Name = 
REMARK  2 active torsions:
REMARK  status: ('A' for Active; 'I' for Inactive)
REMARK    1  A    between atoms: C_2  and  C_3
REMARK    2  A    between atoms: C_9  and  N_10
REMARK                            x       y       z     vdW  Elec       q    Type
REMARK                         _______ _______ _______ _____ _____    ______ ____
ROOT
ATOM      1  N   UNL     1       1.247   8.897  19.699  0.00  0.00    +0.000 N 
ATOM      2  N   UNL     1       0.621   9.559  18.700  0.00  0.00    +0.000 NA
ATOM      3  C   UNL     1      -0.169  10.421  19.350  0.00  0.00    +0.000 A 
ATOM      4  I   UNL     1      -1.377  11.708  18.321  0.00  0.00    +0.000 I 
ATOM      5  C   UNL     1      -0.085  10.307  20.754  0.00  0.00    +0.000 A 
ATOM      6  C   UNL     1      -0.631  10.887  21.905  0.00  0.00    +0.000 A 
ATOM      7  N   UNL     1      -1.534  11.932  21.912  0.00  0.00    +0.000 N 
ATOM      8  N   UNL     1      -0.251  10.409  23.109  0.00  0.00    +0.000 NA
ATOM      9  C   UNL     1       0.657   9.415  23.156  0.00  0.00    +0.000 A 
ATOM     10  N   UNL     1       1.257   8.796  22.125  0.00  0.00    +0.000 NA
ATOM     11  C   UNL     1       0.841   9.292  20.947  0.00  0.00    +0.000 A 
ATOM     12  H   UNL     1      -2.061  12.124  21.072  0.00  0.00    +0.000 HD
ATOM     13  H   UNL     1      -1.992  12.064  22.805  0.00  0.00    +0.000 HD
ENDROOT
BRANCH   1  20
ATOM     14  C   UNL     1       3.038   4.404  19.987  0.00  0.00    +0.000 C 
ATOM     15  O   UNL     1       4.007   3.711  19.691  0.00  0.00    +0.000 OA
ATOM     16  N   UNL     1       2.540   5.402  19.165  0.00  0.00    +0.000 N 
ATOM     17  C   UNL     1       3.091   5.537  17.817  0.00  0.00    +0.000 C 
ATOM     18  C   UNL     1       3.782   6.887  17.651  0.00  0.00    +0.000 C 
ATOM     19  C   UNL     1       2.834   8.038  17.991  0.00  0.00    +0.000 C 
ATOM     20  C   UNL     1       2.217   7.854  19.389  0.00  0.00    +0.000 C 
ATOM     21  C   UNL     1       1.591   6.459  19.551  0.00  0.00    +0.000 C 
BRANCH  14  23
ATOM     22  C   UNL     1       1.945   2.935  21.626  0.00  0.00    +0.000 C 
ATOM     23  C   UNL     1       2.323   4.169  21.271  0.00  0.00    +0.000 C 
ENDBRANCH  14  23
ENDBRANCH   1  20
TORSDOF 2
ENDMDL
MODEL 4
REMARK VINA RESULT:      -6.7      4.366      6.723
REMARK  Name = 
REMARK  2 active torsions:
REMARK  status: ('A' for Active; 'I' for Inactive)
REMARK    1  A    between atoms: C_2  and  C_3
REMARK    2  A    between atoms: C_9  and  N_10
REMARK                            x       y       z     vdW  Elec       q    Type
REMARK                         _______ _______ _______ _____ _____    ______ ____
ROOT
ATOM      1  N   UNL     1       4.261   4.917  18.620  0.00  0.00    +0.000 N 
ATOM      2  N   UNL     1       3.669   5.977  19.216  0.00  0.00    +0.000 NA
ATOM      3  C   UNL     1       2.581   5.444  19.782  0.00  0.00    +0.000 A 
ATOM      4  I   UNL     1       1.279   6.610  20.841  0.00  0.00    +0.000 I 
ATOM      5  C   UNL     1       2.445   4.061  19.539  0.00  0.00    +0.000 A 
ATOM      6  C   UNL     1       1.574   3.006  19.838  0.00  0.00    +0.000 A 
ATOM      7  N   UNL     1       0.444   3.113  20.625  0.00  0.00    +0.000 N 
ATOM      8  N   UNL     1       1.849   1.783  19.338  0.00  0.00    +0.000 NA
ATOM      9  C   UNL     1       2.962   1.620  18.596  0.00  0.00    +0.000 A 
ATOM     10  N   UNL     1       3.872   2.548  18.259  0.00  0.00    +0.000 NA
ATOM     11  C   UNL     1       3.555   3.752  18.765  0.00  0.00    +0.000 A 
ATOM     12  H   UNL     1       0.040   4.027  20.773  0.00  0.00    +0.000 HD
ATOM     13  H   UNL     1      -0.182   2.322  20.542  0.00  0.00    +0.000 HD
ENDROOT
BRANCH   1  20
ATOM     14  C   UNL     1       6.945   5.067  14.589  0.00  0.00    +0.000 C 
ATOM     15  O   UNL     1       8.099   5.149  14.178  0.00  0.00    +0.000 OA
ATOM     16  N   UNL     1       6.484   5.755  15.700  0.00  0.00    +0.000 N 
ATOM     17  C   UNL     1       7.363   6.744  16.324  0.00  0.00    +0.000 C 
ATOM     18  C   UNL     1       7.712   6.331  17.750  0.00  0.00    +0.000 C 
ATOM     19  C   UNL     1       6.450   6.093  18.580  0.00  0.00    +0.000 C 
ATOM     20  C   UNL     1       5.507   5.095  17.886  0.00  0.00    +0.000 C 
ATOM     21  C   UNL     1       5.231   5.499  16.429  0.00  0.00    +0.000 C 
BRANCH  14  23
ATOM     22  C   UNL     1       6.297   3.598  12.728  0.00  0.00    +0.000 C 
ATOM     23  C   UNL     1       5.959   4.218  13.865  0.00  0.00    +0.000 C 
ENDBRANCH  14  23
ENDBRANCH   1  20
TORSDOF 2
ENDMDL
MODEL 5
REMARK VINA RESULT:      -6.4      1.626      2.428
REMARK  Name = 
REMARK  2 active torsions:
REMARK  status: ('A' for Active; 'I' for Inactive)
REMARK    1  A    between atoms: C_2  and  C_3
REMARK    2  A    between atoms: C_9  and  N_10
REMARK                            x       y       z     vdW  Elec       q    Type
REMARK                         _______ _______ _______ _____ _____    ______ ____
ROOT
ATOM      1  N   UNL     1       2.210   6.283  19.571  0.00  0.00    +0.000 N 
ATOM      2  N   UNL     1       1.635   5.387  20.404  0.00  0.00    +0.000 NA
ATOM      3  C   UNL     1       2.501   4.367  20.402  0.00  0.00    +0.000 A 
ATOM      4  I   UNL     1       2.138   2.690  21.514  0.00  0.00    +0.000 I 
ATOM      5  C   UNL     1       3.611   4.577  19.559  0.00  0.00    +0.000 A 
ATOM      6  C   UNL     1       4.781   3.922  19.153  0.00  0.00    +0.000 A 
ATOM      7  N   UNL     1       5.194   2.686  19.609  0.00  0.00    +0.000 N 
ATOM      8  N   UNL     1       5.581   4.535  18.255  0.00  0.00    +0.000 NA
ATOM      9  C   UNL     1       5.240   5.759  17.808  0.00  0.00    +0.000 A 
ATOM     10  N   UNL     1       4.159   6.485  18.137  0.00  0.00    +0.000 NA
ATOM     11  C   UNL     1       3.383   5.835  19.021  0.00  0.00    +0.000 A 
ATOM     12  H   UNL     1       4.514   2.074  20.036  0.00  0.00    +0.000 HD
ATOM     13  H   UNL     1       5.924   2.271  19.044  0.00  0.00    +0.000 HD
ENDROOT
BRANCH   1  20
ATOM     14  C   UNL     1      -0.020  10.374  20.900  0.00  0.00    +0.000 C 
ATOM     15  O   UNL     1      -0.623  11.352  20.466  0.00  0.00    +0.000 OA
ATOM     16  N   UNL     1       1.065   9.804  20.255  0.00  0.00    +0.000 N 
ATOM     17  C   UNL     1       1.620  10.484  19.085  0.00  0.00    +0.000 C 
ATOM     18  C   UNL     1       1.473   9.618  17.838  0.00  0.00    +0.000 C 
ATOM     19  C   UNL     1       2.108   8.241  18.045  0.00  0.00    +0.000 C 
ATOM     20  C   UNL     1       1.558   7.560  19.310  0.00  0.00    +0.000 C 
ATOM     21  C   UNL     1       1.653   8.484  20.536  0.00  0.00    +0.000 C 
BRANCH  14  23
ATOM     22  C   UNL     1      -1.006  10.509  23.147  0.00  0.00    +0.000 C 
ATOM     23  C   UNL     1      -0.432   9.765  22.194  0.00  0.00    +0.000 C 
ENDBRANCH  14  23
ENDBRANCH   1  20
TORSDOF 2
ENDMDL
MODEL 6
REMARK VINA RESULT:      -6.4      2.147      3.771
REMARK  Name = 
REMARK  2 active torsions:
REMARK  status: ('A' for Active; 'I' for Inactive)
REMARK    1  A    between atoms: C_2  and  C_3
REMARK    2  A    between atoms: C_9  and  N_10
REMARK                            x       y       z     vdW  Elec       q    Type
REMARK                         _______ _______ _______ _____ _____    ______ ____
ROOT
ATOM      1  N   UNL     1       1.865   7.149  20.212  0.00  0.00    +0.000 N 
ATOM      2  N   UNL     1       1.393   6.055  20.851  0.00  0.00    +0.000 NA
ATOM      3  C   UNL     1       1.933   5.041  20.167  0.00  0.00    +0.000 A 
ATOM      4  I   UNL     1       1.554   3.105  20.700  0.00  0.00    +0.000 I 
ATOM      5  C   UNL     1       2.724   5.460  19.077  0.00  0.00    +0.000 A 
ATOM      6  C   UNL     1       3.498   4.911  18.048  0.00  0.00    +0.000 A 
ATOM      7  N   UNL     1       3.723   3.561  17.861  0.00  0.00    +0.000 N 
ATOM      8  N   UNL     1       4.086   5.749  17.168  0.00  0.00    +0.000 NA
ATOM      9  C   UNL     1       3.928   7.077  17.330  0.00  0.00    +0.000 A 
ATOM     10  N   UNL     1       3.226   7.714  18.282  0.00  0.00    +0.000 NA
ATOM     11  C   UNL     1       2.648   6.845  19.128  0.00  0.00    +0.000 A 
ATOM     12  H   UNL     1       3.091   2.900  18.291  0.00  0.00    +0.000 HD
ATOM     13  H   UNL     1       4.103   3.337  16.950  0.00  0.00    +0.000 HD
ENDROOT
BRANCH   1  20
ATOM     14  C   UNL     1       1.110  11.898  19.620  0.00  0.00    +0.000 C 
ATOM     15  O   UNL     1       0.871  12.939  20.226  0.00  0.00    +0.000 OA
ATOM     16  N   UNL     1       0.565  10.674  19.972  0.00  0.00    +0.000 N 
ATOM     17  C   UNL     1      -0.460  10.638  21.014  0.00  0.00    +0.000 C 
ATOM     18  C   UNL     1       0.023   9.839  22.220  0.00  0.00    +0.000 C 
ATOM     19  C   UNL     1       0.460   8.432  21.809  0.00  0.00    +0.000 C 
ATOM     20  C   UNL     1       1.497   8.481  20.674  0.00  0.00    +0.000 C 
ATOM     21  C   UNL     1       1.012   9.352  19.503  0.00  0.00    +0.000 C 
BRANCH  14  23
ATOM     22  C   UNL     1       2.693  13.024  18.115  0.00  0.00    +0.000 C 
ATOM     23  C   UNL     1       2.001  11.922  18.428  0.00  0.00    +0.000 C 
ENDBRANCH  14  23
ENDBRANCH   1  20
TORSDOF 2
ENDMDL
MODEL 7
REMARK VINA RESULT:      -6.3      3.443      6.957
REMARK  Name = 
REMARK  2 active torsions:
REMARK  status: ('A' for Active; 'I' for Inactive)
REMARK    1  A    between atoms: C_2  and  C_3
REMARK    2  A    between atoms: C_9  and  N_10
REMARK                            x       y       z     vdW  Elec       q    Type
REMARK                         _______ _______ _______ _____ _____    ______ ____
ROOT
ATOM      1  N   UNL     1       1.591   7.459  19.985  0.00  0.00    +0.000 N 
ATOM      2  N   UNL     1       1.052   7.543  21.222  0.00  0.00    +0.000 NA
ATOM      3  C   UNL     1       0.715   8.834  21.325  0.00  0.00    +0.000 A 
ATOM      4  I   UNL     1      -0.162   9.551  23.026  0.00  0.00    +0.000 I 
ATOM      5  C   UNL     1       1.054   9.592  20.185  0.00  0.00    +0.000 A 
ATOM      6  C   UNL     1       0.970  10.909  19.716  0.00  0.00    +0.000 A 
ATOM      7  N   UNL     1       0.390  11.957  20.404  0.00  0.00    +0.000 N 
ATOM      8  N   UNL     1       1.481  11.192  18.499  0.00  0.00    +0.000 NA
ATOM      9  C   UNL     1       2.024  10.195  17.774  0.00  0.00    +0.000 A 
ATOM     10  N   UNL     1       2.144   8.901  18.112  0.00  0.00    +0.000 NA
ATOM     11  C   UNL     1       1.637   8.664  19.333  0.00  0.00    +0.000 A 
ATOM     12  H   UNL     1       0.264  11.873  21.402  0.00  0.00    +0.000 HD
ATOM     13  H   UNL     1       0.624  12.866  20.026  0.00  0.00    +0.000 HD
ENDROOT
BRANCH   1  20
ATOM     14  C   UNL     1       4.611   4.666  17.425  0.00  0.00    +0.000 C 
ATOM     15  O   UNL     1       4.798   3.515  17.041  0.00  0.00    +0.000 OA
ATOM     16  N   UNL     1       4.097   4.975  18.674  0.00  0.00    +0.000 N 
ATOM     17  C   UNL     1       3.913   3.893  19.641  0.00  0.00    +0.000 C 
ATOM     18  C   UNL     1       2.437   3.725  19.988  0.00  0.00    +0.000 C 
ATOM     19  C   UNL     1       1.836   5.039  20.489  0.00  0.00    +0.000 C 
ATOM     20  C   UNL     1       2.085   6.181  19.489  0.00  0.00    +0.000 C 
ATOM     21  C   UNL     1       3.570   6.280  19.104  0.00  0.00    +0.000 C 
BRANCH  14  23
ATOM     22  C   UNL     1       5.481   5.597  15.323  0.00  0.00    +0.000 C 
ATOM     23  C   UNL     1       4.967   5.810  16.541  0.00  0.00    +0.000 C 
ENDBRANCH  14  23
ENDBRANCH   1  20
TORSDOF 2
ENDMDL
MODEL 8
REMARK VINA RESULT:      -6.2      1.318      2.553
REMARK  Name = 
REMARK  2 active torsions:
REMARK  status: ('A' for Active; 'I' for Inactive)
REMARK    1  A    between atoms: C_2  and  C_3
REMARK    2  A    between atoms: C_9  and  N_10
REMARK                            x       y       z     vdW  Elec       q    Type
REMARK                         _______ _______ _______ _____ _____    ______ ____
ROOT
ATOM      1  N   UNL     1       2.729   6.828  19.361  0.00  0.00    +0.000 N 
ATOM      2  N   UNL     1       3.485   6.974  18.250  0.00  0.00    +0.000 NA
ATOM      3  C   UNL     1       3.912   5.731  18.002  0.00  0.00    +0.000 A 
ATOM      4  I   UNL     1       5.124   5.345  16.402  0.00  0.00    +0.000 I 
ATOM      5  C   UNL     1       3.468   4.788  18.952  0.00  0.00    +0.000 A 
ATOM      6  C   UNL     1       3.574   3.418  19.225  0.00  0.00    +0.000 A 
ATOM      7  N   UNL     1       4.254   2.507  18.442  0.00  0.00    +0.000 N 
ATOM      8  N   UNL     1       2.964   2.933  20.327  0.00  0.00    +0.000 NA
ATOM      9  C   UNL     1       2.257   3.777  21.103  0.00  0.00    +0.000 A 
ATOM     10  N   UNL     1       2.073   5.097  20.933  0.00  0.00    +0.000 NA
ATOM     11  C   UNL     1       2.706   5.541  19.834  0.00  0.00    +0.000 A 
ATOM     12  H   UNL     1       4.951   2.846  17.795  0.00  0.00    +0.000 HD
ATOM     13  H   UNL     1       4.422   1.622  18.905  0.00  0.00    +0.000 HD
ENDROOT
BRANCH   1  20
ATOM     14  C   UNL     1       1.110  11.395  19.331  0.00  0.00    +0.000 C 
ATOM     15  O   UNL     1       0.622  12.269  20.040  0.00  0.00    +0.000 OA
ATOM     16  N   UNL     1       0.788  10.053  19.452  0.00  0.00    +0.000 N 
ATOM     17  C   UNL     1      -0.295   9.672  20.357  0.00  0.00    +0.000 C 
ATOM     18  C   UNL     1       0.231   8.799  21.492  0.00  0.00    +0.000 C 
ATOM     19  C   UNL     1       0.969   7.575  20.948  0.00  0.00    +0.000 C 
ATOM     20  C   UNL     1       2.069   7.984  19.953  0.00  0.00    +0.000 C 
ATOM     21  C   UNL     1       1.524   8.921  18.863  0.00  0.00    +0.000 C 
BRANCH  14  23
ATOM     22  C   UNL     1       2.647  12.974  18.242  0.00  0.00    +0.000 C 
ATOM     23  C   UNL     1       2.078  11.762  18.261  0.00  0.00    +0.000 C 
ENDBRANCH  14  23
ENDBRANCH   1  20
TORSDOF 2
ENDMDL
MODEL 9
REMARK VINA RESULT:      -6.1      4.846      7.414
REMARK  Name = 
REMARK  2 active torsions:
REMARK  status: ('A' for Active; 'I' for Inactive)
REMARK    1  A    between atoms: C_2  and  C_3
REMARK    2  A    between atoms: C_9  and  N_10
REMARK                            x       y       z     vdW  Elec       q    Type
REMARK                         _______ _______ _______ _____ _____    ______ ____
ROOT
ATOM      1  N   UNL     1       4.549   5.272  17.104  0.00  0.00    +0.000 N 
ATOM      2  N   UNL     1       4.016   6.502  16.927  0.00  0.00    +0.000 NA
ATOM      3  C   UNL     1       3.207   6.641  17.983  0.00  0.00    +0.000 A 
ATOM      4  I   UNL     1       2.114   8.349  18.241  0.00  0.00    +0.000 I 
ATOM      5  C   UNL     1       3.186   5.509  18.825  0.00  0.00    +0.000 A 
ATOM      6  C   UNL     1       2.576   5.070  20.006  0.00  0.00    +0.000 A 
ATOM      7  N   UNL     1       1.706   5.820  20.773  0.00  0.00    +0.000 N 
ATOM      8  N   UNL     1       2.855   3.826  20.450  0.00  0.00    +0.000 NA
ATOM      9  C   UNL     1       3.728   3.069  19.756  0.00  0.00    +0.000 A 
ATOM     10  N   UNL     1       4.381   3.389  18.627  0.00  0.00    +0.000 NA
ATOM     11  C   UNL     1       4.066   4.628  18.213  0.00  0.00    +0.000 A 
ATOM     12  H   UNL     1       1.247   6.613  20.350  0.00  0.00    +0.000 HD
ATOM     13  H   UNL     1       1.189   5.272  21.449  0.00  0.00    +0.000 HD
ENDROOT
BRANCH   1  20
ATOM     14  C   UNL     1       5.867   3.632  12.739  0.00  0.00    +0.000 C 
ATOM     15  O   UNL     1       6.790   3.107  12.123  0.00  0.00    +0.000 OA
ATOM     16  N   UNL     1       6.058   4.588  13.723  0.00  0.00    +0.000 N 
ATOM     17  C   UNL     1       7.406   5.113  13.935  0.00  0.00    +0.000 C 
ATOM     18  C   UNL     1       7.906   4.765  15.334  0.00  0.00    +0.000 C 
ATOM     19  C   UNL     1       6.933   5.258  16.406  0.00  0.00    +0.000 C 
ATOM     20  C   UNL     1       5.507   4.746  16.140  0.00  0.00    +0.000 C 
ATOM     21  C   UNL     1       5.058   5.048  14.701  0.00  0.00    +0.000 C 
BRANCH  14  23
ATOM     22  C   UNL     1       4.028   3.260  11.151  0.00  0.00    +0.000 C 
ATOM     23  C   UNL     1       4.459   3.267  12.418  0.00  0.00    +0.000 C 
ENDBRANCH  14  23
ENDBRANCH   1  20
TORSDOF 2
ENDMDL
