MODEL 1
REMARK VINA RESULT:      -7.7      0.000      0.000
REMARK  Name = 
REMARK  10 active torsions:
REMARK  status: ('A' for Active; 'I' for Inactive)
REMARK    1  A    between atoms: C_1  and  O_2
REMARK    2  A    between atoms: O_2  and  C_3
REMARK    3  A    between atoms: C_5  and  C_6
REMARK    4  A    between atoms: C_6  and  O_7
REMARK    5  A    between atoms: O_7  and  C_8
REMARK    6  A    between atoms: C_12  and  C_13
REMARK    7  A    between atoms: C_21  and  O_22
REMARK    8  A    between atoms: O_22  and  C_23
REMARK    9  A    between atoms: C_24  and  O_25
REMARK   10  A    between atoms: O_25  and  C_26
REMARK                            x       y       z     vdW  Elec       q    Type
REMARK                         _______ _______ _______ _____ _____    ______ ____
ROOT
ATOM      1  C   UNL     1       3.165   7.938  17.639  0.00  0.00    +0.000 C 
ENDROOT
BRANCH   1   4
ATOM      2  C   UNL     1       2.560   4.180  18.061  0.00  0.00    +0.000 A 
ATOM      3  C   UNL     1       2.329   5.563  17.904  0.00  0.00    +0.000 A 
ATOM      4  C   UNL     1       3.368   6.484  18.001  0.00  0.00    +0.000 A 
ATOM      5  C   UNL     1       4.643   6.014  18.307  0.00  0.00    +0.000 A 
ATOM      6  C   UNL     1       4.890   4.650  18.535  0.00  0.00    +0.000 A 
ATOM      7  C   UNL     1       3.842   3.712  18.427  0.00  0.00    +0.000 A 
BRANCH   2   9
ATOM      8  C   UNL     1       0.876   2.845  19.057  0.00  0.00    +0.000 C 
ATOM      9  O   UNL     1       1.535   3.291  17.869  0.00  0.00    +0.000 OA
ENDBRANCH   2   9
BRANCH   6  10
ATOM     10  O   UNL     1       6.217   4.431  18.821  0.00  0.00    +0.000 OA
ATOM     11  C   UNL     1       7.200   4.702  17.832  0.00  0.00    +0.000 C 
ENDBRANCH   6  10
BRANCH   7  12
ATOM     12  O   UNL     1       4.181   2.412  18.680  0.00  0.00    +0.000 OA
ATOM     13  C   UNL     1       4.370   1.939  20.001  0.00  0.00    +0.000 C 
ENDBRANCH   7  12
ENDBRANCH   1   4
BRANCH   1  14
ATOM     14  O   UNL     1       1.775   8.259  17.540  0.00  0.00    +0.000 OA
BRANCH  14  15
ATOM     15  C   UNL     1       1.225   8.964  18.576  0.00  0.00    +0.000 A 
ATOM     16  C   UNL     1       0.361   9.998  18.205  0.00  0.00    +0.000 A 
ATOM     17  C   UNL     1      -0.302  10.774  19.169  0.00  0.00    +0.000 A 
ATOM     18  C   UNL     1      -0.133  10.516  20.532  0.00  0.00    +0.000 A 
ATOM     19  C   UNL     1      -0.914  11.151  21.602  0.00  0.00    +0.000 A 
ATOM     20  C   UNL     1      -1.808  12.334  21.375  0.00  0.00    +0.000 C 
ATOM     21  C   UNL     1      -0.827  10.628  22.834  0.00  0.00    +0.000 A 
ATOM     22  C   UNL     1       0.232   9.690  23.222  0.00  0.00    +0.000 A 
ATOM     23  O   UNL     1       0.439   9.447  24.410  0.00  0.00    +0.000 OA
ATOM     24  O   UNL     1       1.005   9.153  22.217  0.00  0.00    +0.000 OA
ATOM     25  C   UNL     1       0.760   9.497  20.876  0.00  0.00    +0.000 A 
ATOM     26  C   UNL     1       1.443   8.728  19.928  0.00  0.00    +0.000 A 
ENDBRANCH  14  15
ENDBRANCH   1  14
TORSDOF 6
ENDMDL
MODEL 2
REMARK VINA RESULT:      -7.4      2.473      7.750
REMARK  Name = 
REMARK  10 active torsions:
REMARK  status: ('A' for Active; 'I' for Inactive)
REMARK    1  A    between atoms: C_1  and  O_2
REMARK    2  A    between atoms: O_2  and  C_3
REMARK    3  A    between atoms: C_5  and  C_6
REMARK    4  A    between atoms: C_6  and  O_7
REMARK    5  A    between atoms: O_7  and  C_8
REMARK    6  A    between atoms: C_12  and  C_13
REMARK    7  A    between atoms: C_21  and  O_22
REMARK    8  A    between atoms: O_22  and  C_23
REMARK    9  A    between atoms: C_24  and  O_25
REMARK   10  A    between atoms: O_25  and  C_26
REMARK                            x       y       z     vdW  Elec       q    Type
REMARK                         _______ _______ _______ _____ _____    ______ ____
ROOT
ATOM      1  C   UNL     1       1.629   9.078  17.864  0.00  0.00    +0.000 C 
ENDROOT
BRANCH   1   4
ATOM      2  C   UNL     1       0.776  10.865  21.142  0.00  0.00    +0.000 A 
ATOM      3  C   UNL     1       0.878   9.868  20.149  0.00  0.00    +0.000 A 
ATOM      4  C   UNL     1       1.329  10.169  18.867  0.00  0.00    +0.000 A 
ATOM      5  C   UNL     1       1.633  11.495  18.566  0.00  0.00    +0.000 A 
ATOM      6  C   UNL     1       1.477  12.520  19.515  0.00  0.00    +0.000 A 
ATOM      7  C   UNL     1       1.031  12.217  20.819  0.00  0.00    +0.000 A 
BRANCH   2   9
ATOM      8  C   UNL     1      -0.417   9.367  22.535  0.00  0.00    +0.000 C 
ATOM      9  O   UNL     1       0.417  10.522  22.419  0.00  0.00    +0.000 OA
ENDBRANCH   2   9
BRANCH   6  10
ATOM     10  O   UNL     1       1.837  13.737  18.987  0.00  0.00    +0.000 OA
ATOM     11  C   UNL     1       3.200  14.137  19.014  0.00  0.00    +0.000 C 
ENDBRANCH   6  10
BRANCH   7  12
ATOM     12  O   UNL     1       0.899  13.284  21.663  0.00  0.00    +0.000 OA
ATOM     13  C   UNL     1      -0.372  13.804  22.007  0.00  0.00    +0.000 C 
ENDBRANCH   7  12
ENDBRANCH   1   4
BRANCH   1  14
ATOM     14  O   UNL     1       2.865   8.425  18.161  0.00  0.00    +0.000 OA
BRANCH  14  15
ATOM     15  C   UNL     1       2.810   7.084  18.432  0.00  0.00    +0.000 A 
ATOM     16  C   UNL     1       3.303   6.249  17.425  0.00  0.00    +0.000 A 
ATOM     17  C   UNL     1       3.342   4.855  17.590  0.00  0.00    +0.000 A 
ATOM     18  C   UNL     1       2.909   4.265  18.780  0.00  0.00    +0.000 A 
ATOM     19  C   UNL     1       3.075   2.844  19.113  0.00  0.00    +0.000 A 
ATOM     20  C   UNL     1       3.500   1.810  18.112  0.00  0.00    +0.000 C 
ATOM     21  C   UNL     1       2.848   2.467  20.380  0.00  0.00    +0.000 A 
ATOM     22  C   UNL     1       2.141   3.319  21.343  0.00  0.00    +0.000 A 
ATOM     23  O   UNL     1       1.717   2.844  22.395  0.00  0.00    +0.000 OA
ATOM     24  O   UNL     1       1.928   4.634  20.993  0.00  0.00    +0.000 OA
ATOM     25  C   UNL     1       2.392   5.121  19.758  0.00  0.00    +0.000 A 
ATOM     26  C   UNL     1       2.329   6.509  19.601  0.00  0.00    +0.000 A 
ENDBRANCH  14  15
ENDBRANCH   1  14
TORSDOF 6
ENDMDL
MODEL 3
REMARK VINA RESULT:      -7.4      2.312      7.924
REMARK  Name = 
REMARK  10 active torsions:
REMARK  status: ('A' for Active; 'I' for Inactive)
REMARK    1  A    between atoms: C_1  and  O_2
REMARK    2  A    between atoms: O_2  and  C_3
REMARK    3  A    between atoms: C_5  and  C_6
REMARK    4  A    between atoms: C_6  and  O_7
REMARK    5  A    between atoms: O_7  and  C_8
REMARK    6  A    between atoms: C_12  and  C_13
REMARK    7  A    between atoms: C_21  and  O_22
REMARK    8  A    between atoms: O_22  and  C_23
REMARK    9  A    between atoms: C_24  and  O_25
REMARK   10  A    between atoms: O_25  and  C_26
REMARK                            x       y       z     vdW  Elec       q    Type
REMARK                         _______ _______ _______ _____ _____    ______ ____
ROOT
ATOM      1  C   UNL     1       1.547   8.903  17.662  0.00  0.00    +0.000 C 
ENDROOT
BRANCH   1   4
ATOM      2  C   UNL     1      -1.475  11.033  18.660  0.00  0.00    +0.000 A 
ATOM      3  C   UNL     1      -0.633  10.162  17.939  0.00  0.00    +0.000 A 
ATOM      4  C   UNL     1       0.698   9.978  18.303  0.00  0.00    +0.000 A 
ATOM      5  C   UNL     1       1.199  10.714  19.374  0.00  0.00    +0.000 A 
ATOM      6  C   UNL     1       0.401  11.639  20.069  0.00  0.00    +0.000 A 
ATOM      7  C   UNL     1      -0.951  11.820  19.710  0.00  0.00    +0.000 A 
BRANCH   2   9
ATOM      8  C   UNL     1      -3.347   9.993  17.648  0.00  0.00    +0.000 C 
ATOM      9  O   UNL     1      -2.803  11.124  18.334  0.00  0.00    +0.000 OA
ENDBRANCH   2   9
BRANCH   6  10
ATOM     10  O   UNL     1       1.113  12.241  21.080  0.00  0.00    +0.000 OA
ATOM     11  C   UNL     1       1.972  13.332  20.778  0.00  0.00    +0.000 C 
ENDBRANCH   6  10
BRANCH   7  12
ATOM     12  O   UNL     1      -1.638  12.751  20.438  0.00  0.00    +0.000 OA
ATOM     13  C   UNL     1      -2.410  12.386  21.567  0.00  0.00    +0.000 C 
ENDBRANCH   7  12
ENDBRANCH   1   4
BRANCH   1  14
ATOM     14  O   UNL     1       2.587   8.468  18.542  0.00  0.00    +0.000 OA
BRANCH  14  15
ATOM     15  C   UNL     1       2.544   7.165  18.958  0.00  0.00    +0.000 A 
ATOM     16  C   UNL     1       1.888   6.946  20.173  0.00  0.00    +0.000 A 
ATOM     17  C   UNL     1       1.737   5.652  20.696  0.00  0.00    +0.000 A 
ATOM     18  C   UNL     1       2.222   4.541  20.000  0.00  0.00    +0.000 A 
ATOM     19  C   UNL     1       1.958   3.145  20.375  0.00  0.00    +0.000 A 
ATOM     20  C   UNL     1       1.351   2.747  21.688  0.00  0.00    +0.000 C 
ATOM     21  C   UNL     1       2.264   2.190  19.484  0.00  0.00    +0.000 A 
ATOM     22  C   UNL     1       3.130   2.437  18.325  0.00  0.00    +0.000 A 
ATOM     23  O   UNL     1       3.602   1.494  17.693  0.00  0.00    +0.000 OA
ATOM     24  O   UNL     1       3.429   3.747  18.024  0.00  0.00    +0.000 OA
ATOM     25  C   UNL     1       2.901   4.791  18.804  0.00  0.00    +0.000 A 
ATOM     26  C   UNL     1       3.075   6.076  18.280  0.00  0.00    +0.000 A 
ENDBRANCH  14  15
ENDBRANCH   1  14
TORSDOF 6
ENDMDL
MODEL 4
REMARK VINA RESULT:      -7.3      2.432      4.141
REMARK  Name = 
REMARK  10 active torsions:
REMARK  status: ('A' for Active; 'I' for Inactive)
REMARK    1  A    between atoms: C_1  and  O_2
REMARK    2  A    between atoms: O_2  and  C_3
REMARK    3  A    between atoms: C_5  and  C_6
REMARK    4  A    between atoms: C_6  and  O_7
REMARK    5  A    between atoms: O_7  and  C_8
REMARK    6  A    between atoms: C_12  and  C_13
REMARK    7  A    between atoms: C_21  and  O_22
REMARK    8  A    between atoms: O_22  and  C_23
REMARK    9  A    between atoms: C_24  and  O_25
REMARK   10  A    between atoms: O_25  and  C_26
REMARK                            x       y       z     vdW  Elec       q    Type
REMARK                         _______ _______ _______ _____ _____    ______ ____
ROOT
ATOM      1  C   UNL     1       2.571   8.312  17.710  0.00  0.00    +0.000 C 
ENDROOT
BRANCH   1   4
ATOM      2  C   UNL     1       4.695   5.143  18.047  0.00  0.00    +0.000 A 
ATOM      3  C   UNL     1       4.130   6.325  17.525  0.00  0.00    +0.000 A 
ATOM      4  C   UNL     1       3.051   6.947  18.149  0.00  0.00    +0.000 A 
ATOM      5  C   UNL     1       2.506   6.347  19.281  0.00  0.00    +0.000 A 
ATOM      6  C   UNL     1       3.006   5.134  19.785  0.00  0.00    +0.000 A 
ATOM      7  C   UNL     1       4.106   4.507  19.162  0.00  0.00    +0.000 A 
BRANCH   2   9
ATOM      8  C   UNL     1       5.657   4.183  16.108  0.00  0.00    +0.000 C 
ATOM      9  O   UNL     1       5.813   4.606  17.464  0.00  0.00    +0.000 OA
ENDBRANCH   2   9
BRANCH   6  10
ATOM     10  O   UNL     1       2.307   4.741  20.903  0.00  0.00    +0.000 OA
ATOM     11  C   UNL     1       1.187   3.880  20.761  0.00  0.00    +0.000 C 
ENDBRANCH   6  10
BRANCH   7  12
ATOM     12  O   UNL     1       4.508   3.326  19.721  0.00  0.00    +0.000 OA
ATOM     13  C   UNL     1       4.039   2.080  19.237  0.00  0.00    +0.000 C 
ENDBRANCH   7  12
ENDBRANCH   1   4
BRANCH   1  14
ATOM     14  O   UNL     1       2.077   9.069  18.818  0.00  0.00    +0.000 OA
BRANCH  14  15
ATOM     15  C   UNL     1       0.812   9.580  18.708  0.00  0.00    +0.000 A 
ATOM     16  C   UNL     1       0.370  10.325  19.804  0.00  0.00    +0.000 A 
ATOM     17  C   UNL     1      -0.893  10.939  19.806  0.00  0.00    +0.000 A 
ATOM     18  C   UNL     1      -1.736  10.838  18.696  0.00  0.00    +0.000 A 
ATOM     19  C   UNL     1      -2.990  11.586  18.533  0.00  0.00    +0.000 A 
ATOM     20  C   UNL     1      -3.640  12.352  19.647  0.00  0.00    +0.000 C 
ATOM     21  C   UNL     1      -3.563  11.591  17.320  0.00  0.00    +0.000 A 
ATOM     22  C   UNL     1      -3.188  10.642  16.266  0.00  0.00    +0.000 A 
ATOM     23  O   UNL     1      -3.908  10.497  15.279  0.00  0.00    +0.000 OA
ATOM     24  O   UNL     1      -2.048   9.894  16.459  0.00  0.00    +0.000 OA
ATOM     25  C   UNL     1      -1.282  10.061  17.626  0.00  0.00    +0.000 A 
ATOM     26  C   UNL     1      -0.035   9.429  17.618  0.00  0.00    +0.000 A 
ENDBRANCH  14  15
ENDBRANCH   1  14
TORSDOF 6
ENDMDL
MODEL 5
REMARK VINA RESULT:      -7.3      2.885      8.498
REMARK  Name = 
REMARK  10 active torsions:
REMARK  status: ('A' for Active; 'I' for Inactive)
REMARK    1  A    between atoms: C_1  and  O_2
REMARK    2  A    between atoms: O_2  and  C_3
REMARK    3  A    between atoms: C_5  and  C_6
REMARK    4  A    between atoms: C_6  and  O_7
REMARK    5  A    between atoms: O_7  and  C_8
REMARK    6  A    between atoms: C_12  and  C_13
REMARK    7  A    between atoms: C_21  and  O_22
REMARK    8  A    between atoms: O_22  and  C_23
REMARK    9  A    between atoms: C_24  and  O_25
REMARK   10  A    between atoms: O_25  and  C_26
REMARK                            x       y       z     vdW  Elec       q    Type
REMARK                         _______ _______ _______ _____ _____    ______ ____
ROOT
ATOM      1  C   UNL     1       0.835  10.381  19.673  0.00  0.00    +0.000 C 
ENDROOT
BRANCH   1   4
ATOM      2  C   UNL     1      -2.592  12.090  19.730  0.00  0.00    +0.000 A 
ATOM      3  C   UNL     1      -1.313  11.644  20.124  0.00  0.00    +0.000 A 
ATOM      4  C   UNL     1      -0.608  10.712  19.367  0.00  0.00    +0.000 A 
ATOM      5  C   UNL     1      -1.217  10.187  18.230  0.00  0.00    +0.000 A 
ATOM      6  C   UNL     1      -2.517  10.562  17.850  0.00  0.00    +0.000 A 
ATOM      7  C   UNL     1      -3.230  11.515  18.609  0.00  0.00    +0.000 A 
BRANCH   2   9
ATOM      8  C   UNL     1      -2.415  14.210  20.770  0.00  0.00    +0.000 C 
ATOM      9  O   UNL     1      -3.221  13.075  20.446  0.00  0.00    +0.000 OA
ENDBRANCH   2   9
BRANCH   6  10
ATOM     10  O   UNL     1      -2.901   9.912  16.701  0.00  0.00    +0.000 OA
ATOM     11  C   UNL     1      -2.646  10.512  15.439  0.00  0.00    +0.000 C 
ENDBRANCH   6  10
BRANCH   7  12
ATOM     12  O   UNL     1      -4.490  11.803  18.165  0.00  0.00    +0.000 OA
ATOM     13  C   UNL     1      -5.557  10.885  18.319  0.00  0.00    +0.000 C 
ENDBRANCH   7  12
ENDBRANCH   1   4
BRANCH   1  14
ATOM     14  O   UNL     1       0.966   9.054  20.189  0.00  0.00    +0.000 OA
BRANCH  14  15
ATOM     15  C   UNL     1       1.794   8.202  19.511  0.00  0.00    +0.000 A 
ATOM     16  C   UNL     1       2.197   8.639  18.246  0.00  0.00    +0.000 A 
ATOM     17  C   UNL     1       3.079   7.880  17.460  0.00  0.00    +0.000 A 
ATOM     18  C   UNL     1       3.596   6.671  17.934  0.00  0.00    +0.000 A 
ATOM     19  C   UNL     1       4.653   5.900  17.266  0.00  0.00    +0.000 A 
ATOM     20  C   UNL     1       5.123   6.188  15.870  0.00  0.00    +0.000 C 
ATOM     21  C   UNL     1       5.230   4.903  17.953  0.00  0.00    +0.000 A 
ATOM     22  C   UNL     1       4.646   4.348  19.180  0.00  0.00    +0.000 A 
ATOM     23  O   UNL     1       5.049   3.275  19.625  0.00  0.00    +0.000 OA
ATOM     24  O   UNL     1       3.608   5.042  19.760  0.00  0.00    +0.000 OA
ATOM     25  C   UNL     1       3.152   6.242  19.188  0.00  0.00    +0.000 A 
ATOM     26  C   UNL     1       2.260   6.978  19.974  0.00  0.00    +0.000 A 
ENDBRANCH  14  15
ENDBRANCH   1  14
TORSDOF 6
ENDMDL
MODEL 6
REMARK VINA RESULT:      -7.3      1.182      1.254
REMARK  Name = 
REMARK  10 active torsions:
REMARK  status: ('A' for Active; 'I' for Inactive)
REMARK    1  A    between atoms: C_1  and  O_2
REMARK    2  A    between atoms: O_2  and  C_3
REMARK    3  A    between atoms: C_5  and  C_6
REMARK    4  A    between atoms: C_6  and  O_7
REMARK    5  A    between atoms: O_7  and  C_8
REMARK    6  A    between atoms: C_12  and  C_13
REMARK    7  A    between atoms: C_21  and  O_22
REMARK    8  A    between atoms: O_22  and  C_23
REMARK    9  A    between atoms: C_24  and  O_25
REMARK   10  A    between atoms: O_25  and  C_26
REMARK                            x       y       z     vdW  Elec       q    Type
REMARK                         _______ _______ _______ _____ _____    ______ ____
ROOT
ATOM      1  C   UNL     1       3.376   7.791  17.543  0.00  0.00    +0.000 C 
ENDROOT
BRANCH   1   4
ATOM      2  C   UNL     1       2.637   4.191  18.619  0.00  0.00    +0.000 A 
ATOM      3  C   UNL     1       2.465   5.556  18.310  0.00  0.00    +0.000 A 
ATOM      4  C   UNL     1       3.558   6.385  18.066  0.00  0.00    +0.000 A 
ATOM      5  C   UNL     1       4.837   5.845  18.183  0.00  0.00    +0.000 A 
ATOM      6  C   UNL     1       5.039   4.505  18.554  0.00  0.00    +0.000 A 
ATOM      7  C   UNL     1       3.934   3.660  18.791  0.00  0.00    +0.000 A 
BRANCH   2   9
ATOM      8  C   UNL     1       0.885   3.452  20.032  0.00  0.00    +0.000 C 
ATOM      9  O   UNL     1       1.540   3.381  18.763  0.00  0.00    +0.000 OA
ENDBRANCH   2   9
BRANCH   6  10
ATOM     10  O   UNL     1       6.380   4.205  18.603  0.00  0.00    +0.000 OA
ATOM     11  C   UNL     1       7.300   4.984  17.852  0.00  0.00    +0.000 C 
ENDBRANCH   6  10
BRANCH   7  12
ATOM     12  O   UNL     1       4.236   2.378  19.160  0.00  0.00    +0.000 OA
ATOM     13  C   UNL     1       4.410   2.020  20.519  0.00  0.00    +0.000 C 
ENDBRANCH   7  12
ENDBRANCH   1   4
BRANCH   1  14
ATOM     14  O   UNL     1       2.001   8.182  17.572  0.00  0.00    +0.000 OA
BRANCH  14  15
ATOM     15  C   UNL     1       1.658   9.185  18.438  0.00  0.00    +0.000 A 
ATOM     16  C   UNL     1       1.911  10.482  17.983  0.00  0.00    +0.000 A 
ATOM     17  C   UNL     1       1.571  11.604  18.756  0.00  0.00    +0.000 A 
ATOM     18  C   UNL     1       0.946  11.452  19.997  0.00  0.00    +0.000 A 
ATOM     19  C   UNL     1       0.396  12.558  20.792  0.00  0.00    +0.000 A 
ATOM     20  C   UNL     1       0.663  14.003  20.485  0.00  0.00    +0.000 C 
ATOM     21  C   UNL     1      -0.396  12.250  21.829  0.00  0.00    +0.000 A 
ATOM     22  C   UNL     1      -0.468  10.897  22.394  0.00  0.00    +0.000 A 
ATOM     23  O   UNL     1      -0.985  10.713  23.494  0.00  0.00    +0.000 OA
ATOM     24  O   UNL     1       0.113   9.877  21.675  0.00  0.00    +0.000 OA
ATOM     25  C   UNL     1       0.734  10.144  20.442  0.00  0.00    +0.000 A 
ATOM     26  C   UNL     1       1.085   9.017  19.692  0.00  0.00    +0.000 A 
ENDBRANCH  14  15
ENDBRANCH   1  14
TORSDOF 6
ENDMDL
MODEL 7
REMARK VINA RESULT:      -7.3      2.978      8.590
REMARK  Name = 
REMARK  10 active torsions:
REMARK  status: ('A' for Active; 'I' for Inactive)
REMARK    1  A    between atoms: C_1  and  O_2
REMARK    2  A    between atoms: O_2  and  C_3
REMARK    3  A    between atoms: C_5  and  C_6
REMARK    4  A    between atoms: C_6  and  O_7
REMARK    5  A    between atoms: O_7  and  C_8
REMARK    6  A    between atoms: C_12  and  C_13
REMARK    7  A    between atoms: C_21  and  O_22
REMARK    8  A    between atoms: O_22  and  C_23
REMARK    9  A    between atoms: C_24  and  O_25
REMARK   10  A    between atoms: O_25  and  C_26
REMARK                            x       y       z     vdW  Elec       q    Type
REMARK                         _______ _______ _______ _____ _____    ______ ____
ROOT
ATOM      1  C   UNL     1       1.144  10.150  18.728  0.00  0.00    +0.000 C 
ENDROOT
BRANCH   1   4
ATOM      2  C   UNL     1      -2.389  10.315  17.260  0.00  0.00    +0.000 A 
ATOM      3  C   UNL     1      -1.017  10.027  17.414  0.00  0.00    +0.000 A 
ATOM      4  C   UNL     1      -0.268  10.603  18.438  0.00  0.00    +0.000 A 
ATOM      5  C   UNL     1      -0.896  11.514  19.285  0.00  0.00    +0.000 A 
ATOM      6  C   UNL     1      -2.244  11.870  19.114  0.00  0.00    +0.000 A 
ATOM      7  C   UNL     1      -3.009  11.280  18.085  0.00  0.00    +0.000 A 
BRANCH   2   9
ATOM      8  C   UNL     1      -2.973  10.164  14.970  0.00  0.00    +0.000 C 
ATOM      9  O   UNL     1      -3.119   9.663  16.301  0.00  0.00    +0.000 OA
ENDBRANCH   2   9
BRANCH   6  10
ATOM     10  O   UNL     1      -2.636  12.781  20.066  0.00  0.00    +0.000 OA
ATOM     11  C   UNL     1      -2.352  12.531  21.435  0.00  0.00    +0.000 C 
ENDBRANCH   6  10
BRANCH   7  12
ATOM     12  O   UNL     1      -4.306  11.702  17.994  0.00  0.00    +0.000 OA
ATOM     13  C   UNL     1      -5.385  10.862  18.361  0.00  0.00    +0.000 C 
ENDBRANCH   7  12
ENDBRANCH   1   4
BRANCH   1  14
ATOM     14  O   UNL     1       1.156   8.964  19.527  0.00  0.00    +0.000 OA
BRANCH  14  15
ATOM     15  C   UNL     1       2.026   7.974  19.158  0.00  0.00    +0.000 A 
ATOM     16  C   UNL     1       2.031   6.844  19.980  0.00  0.00    +0.000 A 
ATOM     17  C   UNL     1       2.847   5.738  19.693  0.00  0.00    +0.000 A 
ATOM     18  C   UNL     1       3.663   5.729  18.559  0.00  0.00    +0.000 A 
ATOM     19  C   UNL     1       4.411   4.559  18.081  0.00  0.00    +0.000 A 
ATOM     20  C   UNL     1       4.589   3.310  18.893  0.00  0.00    +0.000 C 
ATOM     21  C   UNL     1       4.943   4.615  16.851  0.00  0.00    +0.000 A 
ATOM     22  C   UNL     1       5.094   5.874  16.112  0.00  0.00    +0.000 A 
ATOM     23  O   UNL     1       5.819   5.926  15.121  0.00  0.00    +0.000 OA
ATOM     24  O   UNL     1       4.445   6.983  16.607  0.00  0.00    +0.000 OA
ATOM     25  C   UNL     1       3.662   6.884  17.771  0.00  0.00    +0.000 A 
ATOM     26  C   UNL     1       2.869   8.001  18.054  0.00  0.00    +0.000 A 
ENDBRANCH  14  15
ENDBRANCH   1  14
TORSDOF 6
ENDMDL
MODEL 8
REMARK VINA RESULT:      -7.2      2.962      4.307
REMARK  Name = 
REMARK  10 active torsions:
REMARK  status: ('A' for Active; 'I' for Inactive)
REMARK    1  A    between atoms: C_1  and  O_2
REMARK    2  A    between atoms: O_2  and  C_3
REMARK    3  A    between atoms: C_5  and  C_6
REMARK    4  A    between atoms: C_6  and  O_7
REMARK    5  A    between atoms: O_7  and  C_8
REMARK    6  A    between atoms: C_12  and  C_13
REMARK    7  A    between atoms: C_21  and  O_22
REMARK    8  A    between atoms: O_22  and  C_23
REMARK    9  A    between atoms: C_24  and  O_25
REMARK   10  A    between atoms: O_25  and  C_26
REMARK                            x       y       z     vdW  Elec       q    Type
REMARK                         _______ _______ _______ _____ _____    ______ ____
ROOT
ATOM      1  C   UNL     1       2.011   9.391  18.192  0.00  0.00    +0.000 C 
ENDROOT
BRANCH   1   4
ATOM      2  C   UNL     1       2.703   5.921  19.658  0.00  0.00    +0.000 A 
ATOM      3  C   UNL     1       2.270   7.257  19.532  0.00  0.00    +0.000 A 
ATOM      4  C   UNL     1       2.629   8.032  18.432  0.00  0.00    +0.000 A 
ATOM      5  C   UNL     1       3.473   7.472  17.475  0.00  0.00    +0.000 A 
ATOM      6  C   UNL     1       3.974   6.166  17.609  0.00  0.00    +0.000 A 
ATOM      7  C   UNL     1       3.602   5.374  18.716  0.00  0.00    +0.000 A 
BRANCH   2   9
ATOM      8  C   UNL     1       1.076   4.392  20.449  0.00  0.00    +0.000 C 
ATOM      9  O   UNL     1       2.258   5.156  20.704  0.00  0.00    +0.000 OA
ENDBRANCH   2   9
BRANCH   6  10
ATOM     10  O   UNL     1       4.782   5.838  16.546  0.00  0.00    +0.000 OA
ATOM     11  C   UNL     1       6.176   6.100  16.619  0.00  0.00    +0.000 C 
ENDBRANCH   6  10
BRANCH   7  12
ATOM     12  O   UNL     1       4.153   4.124  18.761  0.00  0.00    +0.000 OA
ATOM     13  C   UNL     1       3.542   3.022  18.115  0.00  0.00    +0.000 C 
ENDBRANCH   7  12
ENDBRANCH   1   4
BRANCH   1  14
ATOM     14  O   UNL     1       1.046   9.707  19.199  0.00  0.00    +0.000 OA
BRANCH  14  15
ATOM     15  C   UNL     1      -0.208  10.050  18.773  0.00  0.00    +0.000 A 
ATOM     16  C   UNL     1      -0.947  10.839  19.659  0.00  0.00    +0.000 A 
ATOM     17  C   UNL     1      -2.234  11.295  19.329  0.00  0.00    +0.000 A 
ATOM     18  C   UNL     1      -2.802  10.989  18.090  0.00  0.00    +0.000 A 
ATOM     19  C   UNL     1      -4.057  11.564  17.586  0.00  0.00    +0.000 A 
ATOM     20  C   UNL     1      -5.004  12.349  18.445  0.00  0.00    +0.000 C 
ATOM     21  C   UNL     1      -4.352  11.384  16.290  0.00  0.00    +0.000 A 
ATOM     22  C   UNL     1      -3.668  10.391  15.454  0.00  0.00    +0.000 A 
ATOM     23  O   UNL     1      -4.139  10.068  14.365  0.00  0.00    +0.000 OA
ATOM     24  O   UNL     1      -2.530   9.806  15.964  0.00  0.00    +0.000 OA
ATOM     25  C   UNL     1      -2.054  10.174  17.235  0.00  0.00    +0.000 A 
ATOM     26  C   UNL     1      -0.780   9.696  17.558  0.00  0.00    +0.000 A 
ENDBRANCH  14  15
ENDBRANCH   1  14
TORSDOF 6
ENDMDL
MODEL 9
REMARK VINA RESULT:      -7.2      2.375      8.016
REMARK  Name = 
REMARK  10 active torsions:
REMARK  status: ('A' for Active; 'I' for Inactive)
REMARK    1  A    between atoms: C_1  and  O_2
REMARK    2  A    between atoms: O_2  and  C_3
REMARK    3  A    between atoms: C_5  and  C_6
REMARK    4  A    between atoms: C_6  and  O_7
REMARK    5  A    between atoms: O_7  and  C_8
REMARK    6  A    between atoms: C_12  and  C_13
REMARK    7  A    between atoms: C_21  and  O_22
REMARK    8  A    between atoms: O_22  and  C_23
REMARK    9  A    between atoms: C_24  and  O_25
REMARK   10  A    between atoms: O_25  and  C_26
REMARK                            x       y       z     vdW  Elec       q    Type
REMARK                         _______ _______ _______ _____ _____    ______ ____
ROOT
ATOM      1  C   UNL     1       1.227   9.219  18.194  0.00  0.00    +0.000 C 
ENDROOT
BRANCH   1   4
ATOM      2  C   UNL     1       0.487  11.243  21.360  0.00  0.00    +0.000 A 
ATOM      3  C   UNL     1       0.508  10.194  20.418  0.00  0.00    +0.000 A 
ATOM      4  C   UNL     1       1.020  10.383  19.137  0.00  0.00    +0.000 A 
ATOM      5  C   UNL     1       1.471  11.653  18.786  0.00  0.00    +0.000 A 
ATOM      6  C   UNL     1       1.401  12.733  19.681  0.00  0.00    +0.000 A 
ATOM      7  C   UNL     1       0.892  12.543  20.983  0.00  0.00    +0.000 A 
BRANCH   2   9
ATOM      8  C   UNL     1      -0.155   9.628  22.969  0.00  0.00    +0.000 C 
ATOM      9  O   UNL     1       0.061  11.002  22.640  0.00  0.00    +0.000 OA
ENDBRANCH   2   9
BRANCH   6  10
ATOM     10  O   UNL     1       1.902  13.879  19.110  0.00  0.00    +0.000 OA
ATOM     11  C   UNL     1       3.118  13.823  18.377  0.00  0.00    +0.000 C 
ENDBRANCH   6  10
BRANCH   7  12
ATOM     12  O   UNL     1       0.854  13.658  21.774  0.00  0.00    +0.000 OA
ATOM     13  C   UNL     1      -0.328  14.423  21.918  0.00  0.00    +0.000 C 
ENDBRANCH   7  12
ENDBRANCH   1   4
BRANCH   1  14
ATOM     14  O   UNL     1       2.492   8.590  18.416  0.00  0.00    +0.000 OA
BRANCH  14  15
ATOM     15  C   UNL     1       2.473   7.289  18.841  0.00  0.00    +0.000 A 
ATOM     16  C   UNL     1       1.924   7.081  20.109  0.00  0.00    +0.000 A 
ATOM     17  C   UNL     1       1.807   5.790  20.649  0.00  0.00    +0.000 A 
ATOM     18  C   UNL     1       2.218   4.672  19.919  0.00  0.00    +0.000 A 
ATOM     19  C   UNL     1       1.974   3.280  20.322  0.00  0.00    +0.000 A 
ATOM     20  C   UNL     1       1.481   2.894  21.685  0.00  0.00    +0.000 C 
ATOM     21  C   UNL     1       2.192   2.318  19.413  0.00  0.00    +0.000 A 
ATOM     22  C   UNL     1       2.955   2.553  18.182  0.00  0.00    +0.000 A 
ATOM     23  O   UNL     1       3.361   1.602  17.515  0.00  0.00    +0.000 OA
ATOM     24  O   UNL     1       3.239   3.858  17.849  0.00  0.00    +0.000 OA
ATOM     25  C   UNL     1       2.792   4.910  18.667  0.00  0.00    +0.000 A 
ATOM     26  C   UNL     1       2.933   6.191  18.124  0.00  0.00    +0.000 A 
ENDBRANCH  14  15
ENDBRANCH   1  14
TORSDOF 6
ENDMDL
