MODEL 1
REMARK VINA RESULT:      -9.4      0.000      0.000
REMARK  Name = 
REMARK  4 active torsions:
REMARK  status: ('A' for Active; 'I' for Inactive)
REMARK    1  A    between atoms: C_5  and  C_6
REMARK    2  A    between atoms: C_9  and  C_10
REMARK    3  A    between atoms: C_13  and  C_14
REMARK    4  A    between atoms: C_17  and  C_18
REMARK                            x       y       z     vdW  Elec       q    Type
REMARK                         _______ _______ _______ _____ _____    ______ ____
ROOT
ATOM      1  C   UNL     1       1.185   9.257  19.531  0.00  0.00    +0.000 A 
ATOM      2  C   UNL     1       1.741   8.931  18.287  0.00  0.00    +0.000 A 
ATOM      3  C   UNL     1       2.382   7.704  18.102  0.00  0.00    +0.000 A 
ATOM      4  C   UNL     1       2.461   6.789  19.159  0.00  0.00    +0.000 A 
ATOM      5  C   UNL     1       1.920   7.124  20.408  0.00  0.00    +0.000 A 
ATOM      6  C   UNL     1       1.287   8.356  20.597  0.00  0.00    +0.000 A 
ENDROOT
BRANCH   1  10
ATOM      7  C   UNL     1      -0.739  12.176  19.024  0.00  0.00    +0.000 C 
ATOM      8  O   UNL     1      -0.403  12.347  20.405  0.00  0.00    +0.000 OA
ATOM      9  N   UNL     1       0.317  11.195  20.772  0.00  0.00    +0.000 NA
ATOM     10  C   UNL     1       0.491  10.543  19.671  0.00  0.00    +0.000 C 
ATOM     11  O   UNL     1      -0.007  11.065  18.536  0.00  0.00    +0.000 OA
BRANCH   7  16
ATOM     12 CL   UNL     1      -6.634  11.209  18.096  0.00  0.00    +0.000 Cl
ATOM     13  C   UNL     1      -4.957  11.463  18.382  0.00  0.00    +0.000 A 
ATOM     14  C   UNL     1      -4.550  12.219  19.477  0.00  0.00    +0.000 A 
ATOM     15  C   UNL     1      -3.190  12.445  19.696  0.00  0.00    +0.000 A 
ATOM     16  C   UNL     1      -2.223  11.924  18.820  0.00  0.00    +0.000 A 
ATOM     17  C   UNL     1      -2.654  11.143  17.734  0.00  0.00    +0.000 A 
ATOM     18  C   UNL     1      -4.015  10.917  17.514  0.00  0.00    +0.000 A 
ENDBRANCH   7  16
ENDBRANCH   1  10
BRANCH   4  19
ATOM     19  C   UNL     1       3.114   5.493  18.941  0.00  0.00    +0.000 C 
ATOM     20  N   UNL     1       2.540   4.370  18.656  0.00  0.00    +0.000 NA
ATOM     21  O   UNL     1       3.595   3.443  18.511  0.00  0.00    +0.000 OA
ATOM     22  C   UNL     1       4.806   4.201  18.631  0.00  0.00    +0.000 C 
ATOM     23  O   UNL     1       4.458   5.510  19.045  0.00  0.00    +0.000 OA
BRANCH  22  24
ATOM     24  C   UNL     1       5.545   4.314  17.311  0.00  0.00    +0.000 A 
ATOM     25  C   UNL     1       4.878   4.068  16.097  0.00  0.00    +0.000 A 
ATOM     26  C   UNL     1       5.509   4.290  14.873  0.00  0.00    +0.000 A 
ATOM     27  C   UNL     1       6.819   4.757  14.850  0.00  0.00    +0.000 A 
ATOM     28 CL   UNL     1       7.584   5.069  13.341  0.00  0.00    +0.000 Cl
ATOM     29  C   UNL     1       7.508   4.987  16.040  0.00  0.00    +0.000 A 
ATOM     30  C   UNL     1       6.873   4.772  17.269  0.00  0.00    +0.000 A 
ENDBRANCH  22  24
ENDBRANCH   4  19
TORSDOF 4
ENDMDL
MODEL 2
REMARK VINA RESULT:      -9.3      1.872      2.284
REMARK  Name = 
REMARK  4 active torsions:
REMARK  status: ('A' for Active; 'I' for Inactive)
REMARK    1  A    between atoms: C_5  and  C_6
REMARK    2  A    between atoms: C_9  and  C_10
REMARK    3  A    between atoms: C_13  and  C_14
REMARK    4  A    between atoms: C_17  and  C_18
REMARK                            x       y       z     vdW  Elec       q    Type
REMARK                         _______ _______ _______ _____ _____    ______ ____
ROOT
ATOM      1  C   UNL     1       1.188   9.563  19.305  0.00  0.00    +0.000 A 
ATOM      2  C   UNL     1       1.771   9.189  18.087  0.00  0.00    +0.000 A 
ATOM      3  C   UNL     1       2.391   7.945  17.957  0.00  0.00    +0.000 A 
ATOM      4  C   UNL     1       2.423   7.061  19.041  0.00  0.00    +0.000 A 
ATOM      5  C   UNL     1       1.856   7.444  20.265  0.00  0.00    +0.000 A 
ATOM      6  C   UNL     1       1.243   8.693  20.399  0.00  0.00    +0.000 A 
ENDROOT
BRANCH   1  10
ATOM      7  C   UNL     1      -1.165  12.187  19.539  0.00  0.00    +0.000 C 
ATOM      8  O   UNL     1       0.047  12.946  19.598  0.00  0.00    +0.000 OA
ATOM      9  N   UNL     1       1.093  12.004  19.590  0.00  0.00    +0.000 NA
ATOM     10  C   UNL     1       0.517  10.866  19.388  0.00  0.00    +0.000 C 
ATOM     11  O   UNL     1      -0.820  10.845  19.244  0.00  0.00    +0.000 OA
BRANCH   7  16
ATOM     12 CL   UNL     1      -4.248  12.474  24.731  0.00  0.00    +0.000 Cl
ATOM     13  C   UNL     1      -3.379  12.363  23.252  0.00  0.00    +0.000 A 
ATOM     14  C   UNL     1      -2.111  11.786  23.237  0.00  0.00    +0.000 A 
ATOM     15  C   UNL     1      -1.395  11.718  22.040  0.00  0.00    +0.000 A 
ATOM     16  C   UNL     1      -1.934  12.229  20.848  0.00  0.00    +0.000 A 
ATOM     17  C   UNL     1      -3.225  12.784  20.880  0.00  0.00    +0.000 A 
ATOM     18  C   UNL     1      -3.942  12.854  22.077  0.00  0.00    +0.000 A 
ENDBRANCH   7  16
ENDBRANCH   1  10
BRANCH   4  19
ATOM     19  C   UNL     1       3.055   5.746  18.880  0.00  0.00    +0.000 C 
ATOM     20  N   UNL     1       2.464   4.623  18.634  0.00  0.00    +0.000 NA
ATOM     21  O   UNL     1       3.504   3.673  18.535  0.00  0.00    +0.000 OA
ATOM     22  C   UNL     1       4.727   4.414  18.637  0.00  0.00    +0.000 C 
ATOM     23  O   UNL     1       4.399   5.743  18.996  0.00  0.00    +0.000 OA
BRANCH  22  24
ATOM     24  C   UNL     1       5.479   4.462  17.320  0.00  0.00    +0.000 A 
ATOM     25  C   UNL     1       4.859   4.045  16.129  0.00  0.00    +0.000 A 
ATOM     26  C   UNL     1       5.493   4.202  14.896  0.00  0.00    +0.000 A 
ATOM     27  C   UNL     1       6.758   4.775  14.842  0.00  0.00    +0.000 A 
ATOM     28 CL   UNL     1       7.523   5.005  13.318  0.00  0.00    +0.000 Cl
ATOM     29  C   UNL     1       7.403   5.176  16.012  0.00  0.00    +0.000 A 
ATOM     30  C   UNL     1       6.764   5.027  17.248  0.00  0.00    +0.000 A 
ENDBRANCH  22  24
ENDBRANCH   4  19
TORSDOF 4
ENDMDL
MODEL 3
REMARK VINA RESULT:      -9.2      2.118     10.480
REMARK  Name = 
REMARK  4 active torsions:
REMARK  status: ('A' for Active; 'I' for Inactive)
REMARK    1  A    between atoms: C_5  and  C_6
REMARK    2  A    between atoms: C_9  and  C_10
REMARK    3  A    between atoms: C_13  and  C_14
REMARK    4  A    between atoms: C_17  and  C_18
REMARK                            x       y       z     vdW  Elec       q    Type
REMARK                         _______ _______ _______ _____ _____    ______ ____
ROOT
ATOM      1  C   UNL     1       2.620   7.210  18.870  0.00  0.00    +0.000 A 
ATOM      2  C   UNL     1       2.476   8.020  17.736  0.00  0.00    +0.000 A 
ATOM      3  C   UNL     1       1.703   9.181  17.795  0.00  0.00    +0.000 A 
ATOM      4  C   UNL     1       1.078   9.546  18.992  0.00  0.00    +0.000 A 
ATOM      5  C   UNL     1       1.208   8.725  20.122  0.00  0.00    +0.000 A 
ATOM      6  C   UNL     1       1.973   7.557  20.061  0.00  0.00    +0.000 A 
ENDROOT
BRANCH   1  10
ATOM      7  C   UNL     1       4.274   4.266  17.830  0.00  0.00    +0.000 C 
ATOM      8  O   UNL     1       4.950   4.495  19.072  0.00  0.00    +0.000 OA
ATOM      9  N   UNL     1       4.433   5.704  19.574  0.00  0.00    +0.000 NA
ATOM     10  C   UNL     1       3.470   6.016  18.773  0.00  0.00    +0.000 C 
ATOM     11  O   UNL     1       3.206   5.193  17.742  0.00  0.00    +0.000 OA
BRANCH   7  16
ATOM     12 CL   UNL     1       7.964   5.108  13.116  0.00  0.00    +0.000 Cl
ATOM     13  C   UNL     1       6.919   4.838  14.454  0.00  0.00    +0.000 A 
ATOM     14  C   UNL     1       5.619   4.388  14.237  0.00  0.00    +0.000 A 
ATOM     15  C   UNL     1       4.763   4.193  15.323  0.00  0.00    +0.000 A 
ATOM     16  C   UNL     1       5.193   4.449  16.635  0.00  0.00    +0.000 A 
ATOM     17  C   UNL     1       6.517   4.879  16.835  0.00  0.00    +0.000 A 
ATOM     18  C   UNL     1       7.374   5.076  15.749  0.00  0.00    +0.000 A 
ENDBRANCH   7  16
ENDBRANCH   1  10
BRANCH   4  19
ATOM     19  C   UNL     1       0.291  10.784  19.045  0.00  0.00    +0.000 C 
ATOM     20  N   UNL     1      -0.586  11.186  18.185  0.00  0.00    +0.000 NA
ATOM     21  O   UNL     1      -1.082  12.402  18.704  0.00  0.00    +0.000 OA
ATOM     22  C   UNL     1      -0.471  12.560  19.991  0.00  0.00    +0.000 C 
ATOM     23  O   UNL     1       0.520  11.558  20.126  0.00  0.00    +0.000 OA
BRANCH  22  24
ATOM     24  C   UNL     1      -1.465  12.383  21.123  0.00  0.00    +0.000 A 
ATOM     25  C   UNL     1      -1.062  11.814  22.344  0.00  0.00    +0.000 A 
ATOM     26  C   UNL     1      -1.931  11.761  23.434  0.00  0.00    +0.000 A 
ATOM     27  C   UNL     1      -3.218  12.273  23.312  0.00  0.00    +0.000 A 
ATOM     28 CL   UNL     1      -4.277  12.243  24.667  0.00  0.00    +0.000 Cl
ATOM     29  C   UNL     1      -3.649  12.821  22.104  0.00  0.00    +0.000 A 
ATOM     30  C   UNL     1      -2.774  12.883  21.013  0.00  0.00    +0.000 A 
ENDBRANCH  22  24
ENDBRANCH   4  19
TORSDOF 4
ENDMDL
MODEL 4
REMARK VINA RESULT:      -9.1      0.483      1.337
REMARK  Name = 
REMARK  4 active torsions:
REMARK  status: ('A' for Active; 'I' for Inactive)
REMARK    1  A    between atoms: C_5  and  C_6
REMARK    2  A    between atoms: C_9  and  C_10
REMARK    3  A    between atoms: C_13  and  C_14
REMARK    4  A    between atoms: C_17  and  C_18
REMARK                            x       y       z     vdW  Elec       q    Type
REMARK                         _______ _______ _______ _____ _____    ______ ____
ROOT
ATOM      1  C   UNL     1       1.231   9.284  19.420  0.00  0.00    +0.000 A 
ATOM      2  C   UNL     1       1.421   8.328  20.426  0.00  0.00    +0.000 A 
ATOM      3  C   UNL     1       2.098   7.139  20.148  0.00  0.00    +0.000 A 
ATOM      4  C   UNL     1       2.600   6.903  18.863  0.00  0.00    +0.000 A 
ATOM      5  C   UNL     1       2.393   7.853  17.852  0.00  0.00    +0.000 A 
ATOM      6  C   UNL     1       1.707   9.038  18.127  0.00  0.00    +0.000 A 
ENDROOT
BRANCH   1  10
ATOM      7  C   UNL     1      -0.638  12.282  19.377  0.00  0.00    +0.000 C 
ATOM      8  O   UNL     1      -0.367  12.188  20.780  0.00  0.00    +0.000 OA
ATOM      9  N   UNL     1       0.324  10.975  20.959  0.00  0.00    +0.000 NA
ATOM     10  C   UNL     1       0.543  10.535  19.765  0.00  0.00    +0.000 C 
ATOM     11  O   UNL     1       0.104  11.267  18.725  0.00  0.00    +0.000 OA
BRANCH   7  16
ATOM     12 CL   UNL     1      -6.490  11.604  18.020  0.00  0.00    +0.000 Cl
ATOM     13  C   UNL     1      -4.828  11.773  18.425  0.00  0.00    +0.000 A 
ATOM     14  C   UNL     1      -4.467  12.378  19.626  0.00  0.00    +0.000 A 
ATOM     15  C   UNL     1      -3.117  12.538  19.944  0.00  0.00    +0.000 A 
ATOM     16  C   UNL     1      -2.113  12.100  19.065  0.00  0.00    +0.000 A 
ATOM     17  C   UNL     1      -2.498  11.468  17.869  0.00  0.00    +0.000 A 
ATOM     18  C   UNL     1      -3.850  11.310  17.549  0.00  0.00    +0.000 A 
ENDBRANCH   7  16
ENDBRANCH   1  10
BRANCH   4  19
ATOM     19  C   UNL     1       3.333   5.661  18.594  0.00  0.00    +0.000 C 
ATOM     20  N   UNL     1       2.830   4.484  18.409  0.00  0.00    +0.000 NA
ATOM     21  O   UNL     1       3.937   3.645  18.153  0.00  0.00    +0.000 OA
ATOM     22  C   UNL     1       5.081   4.507  18.100  0.00  0.00    +0.000 C 
ATOM     23  O   UNL     1       4.674   5.795  18.524  0.00  0.00    +0.000 OA
BRANCH  22  24
ATOM     24  C   UNL     1       5.636   4.637  16.694  0.00  0.00    +0.000 A 
ATOM     25  C   UNL     1       6.927   5.152  16.481  0.00  0.00    +0.000 A 
ATOM     26  C   UNL     1       7.497   5.161  15.208  0.00  0.00    +0.000 A 
ATOM     27  C   UNL     1       6.776   4.657  14.130  0.00  0.00    +0.000 A 
ATOM     28 CL   UNL     1       7.494   4.631  12.566  0.00  0.00    +0.000 Cl
ATOM     29  C   UNL     1       5.485   4.163  14.312  0.00  0.00    +0.000 A 
ATOM     30  C   UNL     1       4.917   4.146  15.591  0.00  0.00    +0.000 A 
ENDBRANCH  22  24
ENDBRANCH   4  19
TORSDOF 4
ENDMDL
MODEL 5
REMARK VINA RESULT:      -9.0      0.601      1.034
REMARK  Name = 
REMARK  4 active torsions:
REMARK  status: ('A' for Active; 'I' for Inactive)
REMARK    1  A    between atoms: C_5  and  C_6
REMARK    2  A    between atoms: C_9  and  C_10
REMARK    3  A    between atoms: C_13  and  C_14
REMARK    4  A    between atoms: C_17  and  C_18
REMARK                            x       y       z     vdW  Elec       q    Type
REMARK                         _______ _______ _______ _____ _____    ______ ____
ROOT
ATOM      1  C   UNL     1       0.838   9.490  20.061  0.00  0.00    +0.000 A 
ATOM      2  C   UNL     1       1.449   9.264  18.820  0.00  0.00    +0.000 A 
ATOM      3  C   UNL     1       2.132   8.071  18.579  0.00  0.00    +0.000 A 
ATOM      4  C   UNL     1       2.199   7.089  19.574  0.00  0.00    +0.000 A 
ATOM      5  C   UNL     1       1.603   7.323  20.822  0.00  0.00    +0.000 A 
ATOM      6  C   UNL     1       0.927   8.522  21.067  0.00  0.00    +0.000 A 
ENDROOT
BRANCH   1  10
ATOM      7  C   UNL     1      -1.098  12.418  19.659  0.00  0.00    +0.000 C 
ATOM      8  O   UNL     1      -0.906  12.450  21.078  0.00  0.00    +0.000 OA
ATOM      9  N   UNL     1      -0.198  11.276  21.397  0.00  0.00    +0.000 NA
ATOM     10  C   UNL     1       0.101  10.745  20.259  0.00  0.00    +0.000 C 
ATOM     11  O   UNL     1      -0.294  11.374  19.138  0.00  0.00    +0.000 OA
BRANCH   7  16
ATOM     12 CL   UNL     1      -6.845  11.461  18.042  0.00  0.00    +0.000 Cl
ATOM     13  C   UNL     1      -5.212  11.710  18.522  0.00  0.00    +0.000 A 
ATOM     14  C   UNL     1      -4.936  12.393  19.704  0.00  0.00    +0.000 A 
ATOM     15  C   UNL     1      -3.611  12.617  20.082  0.00  0.00    +0.000 A 
ATOM     16  C   UNL     1      -2.548  12.167  19.281  0.00  0.00    +0.000 A 
ATOM     17  C   UNL     1      -2.848  11.458  18.105  0.00  0.00    +0.000 A 
ATOM     18  C   UNL     1      -4.174  11.234  17.726  0.00  0.00    +0.000 A 
ENDBRANCH   7  16
ENDBRANCH   1  10
BRANCH   4  19
ATOM     19  C   UNL     1       2.898   5.828  19.297  0.00  0.00    +0.000 C 
ATOM     20  N   UNL     1       2.361   4.684  19.027  0.00  0.00    +0.000 NA
ATOM     21  O   UNL     1       3.448   3.810  18.804  0.00  0.00    +0.000 OA
ATOM     22  C   UNL     1       4.627   4.623  18.865  0.00  0.00    +0.000 C 
ATOM     23  O   UNL     1       4.244   5.908  19.321  0.00  0.00    +0.000 OA
BRANCH  22  24
ATOM     24  C   UNL     1       5.279   4.790  17.506  0.00  0.00    +0.000 A 
ATOM     25  C   UNL     1       6.393   5.633  17.347  0.00  0.00    +0.000 A 
ATOM     26  C   UNL     1       7.078   5.698  16.134  0.00  0.00    +0.000 A 
ATOM     27  C   UNL     1       6.652   4.922  15.061  0.00  0.00    +0.000 A 
ATOM     28 CL   UNL     1       7.520   4.973  13.577  0.00  0.00    +0.000 Cl
ATOM     29  C   UNL     1       5.536   4.096  15.187  0.00  0.00    +0.000 A 
ATOM     30  C   UNL     1       4.853   4.023  16.407  0.00  0.00    +0.000 A 
ENDBRANCH  22  24
ENDBRANCH   4  19
TORSDOF 4
ENDMDL
MODEL 6
REMARK VINA RESULT:      -9.0      1.122      1.794
REMARK  Name = 
REMARK  4 active torsions:
REMARK  status: ('A' for Active; 'I' for Inactive)
REMARK    1  A    between atoms: C_5  and  C_6
REMARK    2  A    between atoms: C_9  and  C_10
REMARK    3  A    between atoms: C_13  and  C_14
REMARK    4  A    between atoms: C_17  and  C_18
REMARK                            x       y       z     vdW  Elec       q    Type
REMARK                         _______ _______ _______ _____ _____    ______ ____
ROOT
ATOM      1  C   UNL     1       1.498   8.636  20.017  0.00  0.00    +0.000 A 
ATOM      2  C   UNL     1       1.467   7.453  20.767  0.00  0.00    +0.000 A 
ATOM      3  C   UNL     1       1.926   6.256  20.213  0.00  0.00    +0.000 A 
ATOM      4  C   UNL     1       2.431   6.237  18.908  0.00  0.00    +0.000 A 
ATOM      5  C   UNL     1       2.445   7.418  18.151  0.00  0.00    +0.000 A 
ATOM      6  C   UNL     1       1.977   8.614  18.702  0.00  0.00    +0.000 A 
ENDROOT
BRANCH   1  10
ATOM      7  C   UNL     1       0.226  11.862  20.690  0.00  0.00    +0.000 C 
ATOM      8  O   UNL     1       0.397  11.387  22.030  0.00  0.00    +0.000 OA
ATOM      9  N   UNL     1       0.839  10.056  21.914  0.00  0.00    +0.000 NA
ATOM     10  C   UNL     1       1.038   9.878  20.650  0.00  0.00    +0.000 C 
ATOM     11  O   UNL     1       0.801  10.907  19.816  0.00  0.00    +0.000 OA
BRANCH   7  16
ATOM     12 CL   UNL     1      -5.632  12.559  19.368  0.00  0.00    +0.000 Cl
ATOM     13  C   UNL     1      -3.959  12.384  19.726  0.00  0.00    +0.000 A 
ATOM     14  C   UNL     1      -3.113  11.783  18.798  0.00  0.00    +0.000 A 
ATOM     15  C   UNL     1      -1.760  11.619  19.099  0.00  0.00    +0.000 A 
ATOM     16  C   UNL     1      -1.238  12.049  20.330  0.00  0.00    +0.000 A 
ATOM     17  C   UNL     1      -2.104  12.677  21.243  0.00  0.00    +0.000 A 
ATOM     18  C   UNL     1      -3.459  12.840  20.943  0.00  0.00    +0.000 A 
ENDBRANCH   7  16
ENDBRANCH   1  10
BRANCH   4  19
ATOM     19  C   UNL     1       2.934   4.976  18.349  0.00  0.00    +0.000 C 
ATOM     20  N   UNL     1       2.266   4.105  17.668  0.00  0.00    +0.000 NA
ATOM     21  O   UNL     1       3.201   3.101  17.334  0.00  0.00    +0.000 OA
ATOM     22  C   UNL     1       4.471   3.573  17.802  0.00  0.00    +0.000 C 
ATOM     23  O   UNL     1       4.241   4.735  18.578  0.00  0.00    +0.000 OA
BRANCH  22  24
ATOM     24  C   UNL     1       5.397   3.954  16.662  0.00  0.00    +0.000 A 
ATOM     25  C   UNL     1       4.996   3.774  15.327  0.00  0.00    +0.000 A 
ATOM     26  C   UNL     1       5.783   4.234  14.271  0.00  0.00    +0.000 A 
ATOM     27  C   UNL     1       6.986   4.877  14.542  0.00  0.00    +0.000 A 
ATOM     28 CL   UNL     1       7.939   5.481  13.242  0.00  0.00    +0.000 Cl
ATOM     29  C   UNL     1       7.416   5.047  15.857  0.00  0.00    +0.000 A 
ATOM     30  C   UNL     1       6.622   4.593  16.916  0.00  0.00    +0.000 A 
ENDBRANCH  22  24
ENDBRANCH   4  19
TORSDOF 4
ENDMDL
MODEL 7
REMARK VINA RESULT:      -8.9      2.677      9.839
REMARK  Name = 
REMARK  4 active torsions:
REMARK  status: ('A' for Active; 'I' for Inactive)
REMARK    1  A    between atoms: C_5  and  C_6
REMARK    2  A    between atoms: C_9  and  C_10
REMARK    3  A    between atoms: C_13  and  C_14
REMARK    4  A    between atoms: C_17  and  C_18
REMARK                            x       y       z     vdW  Elec       q    Type
REMARK                         _______ _______ _______ _____ _____    ______ ____
ROOT
ATOM      1  C   UNL     1       2.938   6.711  19.115  0.00  0.00    +0.000 A 
ATOM      2  C   UNL     1       2.764   7.632  18.073  0.00  0.00    +0.000 A 
ATOM      3  C   UNL     1       1.922   8.732  18.241  0.00  0.00    +0.000 A 
ATOM      4  C   UNL     1       1.255   8.925  19.457  0.00  0.00    +0.000 A 
ATOM      5  C   UNL     1       1.416   7.993  20.492  0.00  0.00    +0.000 A 
ATOM      6  C   UNL     1       2.251   6.886  20.321  0.00  0.00    +0.000 A 
ENDROOT
BRANCH   1  10
ATOM      7  C   UNL     1       4.701   3.925  17.845  0.00  0.00    +0.000 C 
ATOM      8  O   UNL     1       5.466   4.173  19.030  0.00  0.00    +0.000 OA
ATOM      9  N   UNL     1       4.911   5.328  19.612  0.00  0.00    +0.000 NA
ATOM     10  C   UNL     1       3.860   5.586  18.907  0.00  0.00    +0.000 C 
ATOM     11  O   UNL     1       3.566   4.771  17.879  0.00  0.00    +0.000 OA
BRANCH   7  16
ATOM     12 CL   UNL     1       7.889   5.155  12.857  0.00  0.00    +0.000 Cl
ATOM     13  C   UNL     1       6.988   4.776  14.272  0.00  0.00    +0.000 A 
ATOM     14  C   UNL     1       5.704   4.252  14.154  0.00  0.00    +0.000 A 
ATOM     15  C   UNL     1       4.963   3.967  15.303  0.00  0.00    +0.000 A 
ATOM     16  C   UNL     1       5.495   4.206  16.580  0.00  0.00    +0.000 A 
ATOM     17  C   UNL     1       6.803   4.712  16.678  0.00  0.00    +0.000 A 
ATOM     18  C   UNL     1       7.544   4.999  15.528  0.00  0.00    +0.000 A 
ENDBRANCH   7  16
ENDBRANCH   1  10
BRANCH   4  19
ATOM     19  C   UNL     1       0.394  10.101  19.626  0.00  0.00    +0.000 C 
ATOM     20  N   UNL     1      -0.190  10.489  20.713  0.00  0.00    +0.000 NA
ATOM     21  O   UNL     1      -0.864  11.680  20.366  0.00  0.00    +0.000 OA
ATOM     22  C   UNL     1      -0.491  11.964  19.011  0.00  0.00    +0.000 C 
ATOM     23  O   UNL     1       0.222  10.845  18.515  0.00  0.00    +0.000 OA
BRANCH  22  24
ATOM     24  C   UNL     1       0.418  13.174  18.908  0.00  0.00    +0.000 A 
ATOM     25  C   UNL     1       1.749  13.032  18.477  0.00  0.00    +0.000 A 
ATOM     26  C   UNL     1       2.556  14.149  18.257  0.00  0.00    +0.000 A 
ATOM     27  C   UNL     1       2.040  15.422  18.473  0.00  0.00    +0.000 A 
ATOM     28 CL   UNL     1       3.023  16.801  18.165  0.00  0.00    +0.000 Cl
ATOM     29  C   UNL     1       0.731  15.587  18.923  0.00  0.00    +0.000 A 
ATOM     30  C   UNL     1      -0.082  14.468  19.135  0.00  0.00    +0.000 A 
ENDBRANCH  22  24
ENDBRANCH   4  19
TORSDOF 4
ENDMDL
MODEL 8
REMARK VINA RESULT:      -8.9      1.119      1.776
REMARK  Name = 
REMARK  4 active torsions:
REMARK  status: ('A' for Active; 'I' for Inactive)
REMARK    1  A    between atoms: C_5  and  C_6
REMARK    2  A    between atoms: C_9  and  C_10
REMARK    3  A    between atoms: C_13  and  C_14
REMARK    4  A    between atoms: C_17  and  C_18
REMARK                            x       y       z     vdW  Elec       q    Type
REMARK                         _______ _______ _______ _____ _____    ______ ____
ROOT
ATOM      1  C   UNL     1       1.386   8.663  20.292  0.00  0.00    +0.000 A 
ATOM      2  C   UNL     1       1.432   7.477  21.037  0.00  0.00    +0.000 A 
ATOM      3  C   UNL     1       1.964   6.314  20.477  0.00  0.00    +0.000 A 
ATOM      4  C   UNL     1       2.465   6.332  19.170  0.00  0.00    +0.000 A 
ATOM      5  C   UNL     1       2.402   7.514  18.419  0.00  0.00    +0.000 A 
ATOM      6  C   UNL     1       1.860   8.676  18.976  0.00  0.00    +0.000 A 
ENDROOT
BRANCH   1  10
ATOM      7  C   UNL     1      -0.011  11.834  20.979  0.00  0.00    +0.000 C 
ATOM      8  O   UNL     1       0.073  11.314  22.312  0.00  0.00    +0.000 OA
ATOM      9  N   UNL     1       0.554   9.998  22.182  0.00  0.00    +0.000 NA
ATOM     10  C   UNL     1       0.850   9.871  20.932  0.00  0.00    +0.000 C 
ATOM     11  O   UNL     1       0.650  10.923  20.119  0.00  0.00    +0.000 OA
BRANCH   7  16
ATOM     12 CL   UNL     1      -5.691  12.552  19.039  0.00  0.00    +0.000 Cl
ATOM     13  C   UNL     1      -4.085  12.324  19.607  0.00  0.00    +0.000 A 
ATOM     14  C   UNL     1      -3.739  12.744  20.889  0.00  0.00    +0.000 A 
ATOM     15  C   UNL     1      -2.428  12.580  21.342  0.00  0.00    +0.000 A 
ATOM     16  C   UNL     1      -1.449  12.001  20.518  0.00  0.00    +0.000 A 
ATOM     17  C   UNL     1      -1.824  11.561  19.237  0.00  0.00    +0.000 A 
ATOM     18  C   UNL     1      -3.135  11.726  18.783  0.00  0.00    +0.000 A 
ENDBRANCH   7  16
ENDBRANCH   1  10
BRANCH   4  19
ATOM     19  C   UNL     1       3.046   5.108  18.605  0.00  0.00    +0.000 C 
ATOM     20  N   UNL     1       2.410   4.132  18.043  0.00  0.00    +0.000 NA
ATOM     21  O   UNL     1       3.412   3.223  17.639  0.00  0.00    +0.000 OA
ATOM     22  C   UNL     1       4.663   3.858  17.933  0.00  0.00    +0.000 C 
ATOM     23  O   UNL     1       4.389   5.027  18.685  0.00  0.00    +0.000 OA
BRANCH  22  24
ATOM     24  C   UNL     1       5.402   4.280  16.677  0.00  0.00    +0.000 A 
ATOM     25  C   UNL     1       6.700   4.814  16.758  0.00  0.00    +0.000 A 
ATOM     26  C   UNL     1       7.438   5.087  15.606  0.00  0.00    +0.000 A 
ATOM     27  C   UNL     1       6.881   4.833  14.357  0.00  0.00    +0.000 A 
ATOM     28 CL   UNL     1       7.805   5.133  12.937  0.00  0.00    +0.000 Cl
ATOM     29  C   UNL     1       5.587   4.325  14.251  0.00  0.00    +0.000 A 
ATOM     30  C   UNL     1       4.850   4.042  15.406  0.00  0.00    +0.000 A 
ENDBRANCH  22  24
ENDBRANCH   4  19
TORSDOF 4
ENDMDL
MODEL 9
REMARK VINA RESULT:      -8.9      2.903      3.628
REMARK  Name = 
REMARK  4 active torsions:
REMARK  status: ('A' for Active; 'I' for Inactive)
REMARK    1  A    between atoms: C_5  and  C_6
REMARK    2  A    between atoms: C_9  and  C_10
REMARK    3  A    between atoms: C_13  and  C_14
REMARK    4  A    between atoms: C_17  and  C_18
REMARK                            x       y       z     vdW  Elec       q    Type
REMARK                         _______ _______ _______ _____ _____    ______ ____
ROOT
ATOM      1  C   UNL     1       1.196   9.161  19.560  0.00  0.00    +0.000 A 
ATOM      2  C   UNL     1       1.767   8.862  18.316  0.00  0.00    +0.000 A 
ATOM      3  C   UNL     1       2.444   7.656  18.125  0.00  0.00    +0.000 A 
ATOM      4  C   UNL     1       2.546   6.736  19.175  0.00  0.00    +0.000 A 
ATOM      5  C   UNL     1       1.991   7.045  20.425  0.00  0.00    +0.000 A 
ATOM      6  C   UNL     1       1.321   8.256  20.620  0.00  0.00    +0.000 A 
ENDROOT
BRANCH   1  10
ATOM      7  C   UNL     1       0.199  12.469  20.300  0.00  0.00    +0.000 C 
ATOM      8  O   UNL     1      -0.952  12.028  19.572  0.00  0.00    +0.000 OA
ATOM      9  N   UNL     1      -0.659  10.721  19.141  0.00  0.00    +0.000 NA
ATOM     10  C   UNL     1       0.463  10.425  19.707  0.00  0.00    +0.000 C 
ATOM     11  O   UNL     1       1.038  11.345  20.503  0.00  0.00    +0.000 OA
BRANCH   7  16
ATOM     12 CL   UNL     1       3.179  16.768  17.269  0.00  0.00    +0.000 Cl
ATOM     13  C   UNL     1       2.351  15.549  18.155  0.00  0.00    +0.000 A 
ATOM     14  C   UNL     1       2.899  14.273  18.253  0.00  0.00    +0.000 A 
ATOM     15  C   UNL     1       2.215  13.276  18.952  0.00  0.00    +0.000 A 
ATOM     16  C   UNL     1       0.974  13.542  19.555  0.00  0.00    +0.000 A 
ATOM     17  C   UNL     1       0.450  14.843  19.465  0.00  0.00    +0.000 A 
ATOM     18  C   UNL     1       1.134  15.841  18.765  0.00  0.00    +0.000 A 
ENDBRANCH   7  16
ENDBRANCH   1  10
BRANCH   4  19
ATOM     19  C   UNL     1       3.239   5.461  18.950  0.00  0.00    +0.000 C 
ATOM     20  N   UNL     1       2.697   4.312  18.713  0.00  0.00    +0.000 NA
ATOM     21  O   UNL     1       3.779   3.423  18.536  0.00  0.00    +0.000 OA
ATOM     22  C   UNL     1       4.964   4.228  18.584  0.00  0.00    +0.000 C 
ATOM     23  O   UNL     1       4.585   5.531  18.990  0.00  0.00    +0.000 OA
BRANCH  22  24
ATOM     24  C   UNL     1       5.635   4.343  17.229  0.00  0.00    +0.000 A 
ATOM     25  C   UNL     1       4.959   3.943  16.062  0.00  0.00    +0.000 A 
ATOM     26  C   UNL     1       5.514   4.159  14.800  0.00  0.00    +0.000 A 
ATOM     27  C   UNL     1       6.756   4.775  14.692  0.00  0.00    +0.000 A 
ATOM     28 CL   UNL     1       7.423   5.077  13.135  0.00  0.00    +0.000 Cl
ATOM     29  C   UNL     1       7.456   5.160  15.836  0.00  0.00    +0.000 A 
ATOM     30  C   UNL     1       6.896   4.951  17.101  0.00  0.00    +0.000 A 
ENDBRANCH  22  24
ENDBRANCH   4  19
TORSDOF 4
ENDMDL
