MODEL 1
REMARK VINA RESULT:      -8.0      0.000      0.000
REMARK  Name = 
REMARK  6 active torsions:
REMARK  status: ('A' for Active; 'I' for Inactive)
REMARK    1  A    between atoms: C_2  and  C_3
REMARK    2  A    between atoms: C_3  and  C_4
REMARK    3  A    between atoms: C_3  and  C_11
REMARK    4  A    between atoms: C_3  and  C_17
REMARK    5  A    between atoms: C_4  and  C_5
REMARK    6  A    between atoms: C_5  and  N_6
REMARK                            x       y       z     vdW  Elec       q    Type
REMARK                         _______ _______ _______ _____ _____    ______ ____
ROOT
ATOM      1  C   UNL     1       5.211   4.813  18.392  0.00  0.00    +0.000 C 
ENDROOT
BRANCH   1   2
ATOM      2  C   UNL     1       4.125   5.936  18.451  0.00  0.00    +0.000 A 
ATOM      3  C   UNL     1       4.002   6.920  17.439  0.00  0.00    +0.000 A 
ATOM      4  C   UNL     1       3.066   7.953  17.536  0.00  0.00    +0.000 A 
ATOM      5  C   UNL     1       2.232   8.032  18.645  0.00  0.00    +0.000 A 
ATOM      6  C   UNL     1       2.329   7.078  19.651  0.00  0.00    +0.000 A 
ATOM      7  C   UNL     1       3.259   6.038  19.556  0.00  0.00    +0.000 A 
ENDBRANCH   1   2
BRANCH   1   8
ATOM      8  C   UNL     1       5.773   4.664  16.948  0.00  0.00    +0.000 A 
ATOM      9  C   UNL     1       7.051   5.116  16.571  0.00  0.00    +0.000 A 
ATOM     10  C   UNL     1       7.462   5.089  15.234  0.00  0.00    +0.000 A 
ATOM     11  C   UNL     1       6.610   4.610  14.245  0.00  0.00    +0.000 A 
ATOM     12  C   UNL     1       5.354   4.125  14.594  0.00  0.00    +0.000 A 
ATOM     13  C   UNL     1       4.944   4.141  15.930  0.00  0.00    +0.000 A 
ENDBRANCH   1   8
BRANCH   1  15
ATOM     14  N   UNL     1       7.383   5.523  19.977  0.00  0.00    +0.000 NA
ATOM     15  C   UNL     1       6.398   5.201  19.258  0.00  0.00    +0.000 C 
ENDBRANCH   1  15
BRANCH   1  16
ATOM     16  C   UNL     1       4.604   3.486  18.952  0.00  0.00    +0.000 C 
BRANCH  16  17
ATOM     17  C   UNL     1       3.235   3.102  18.358  0.00  0.00    +0.000 C 
BRANCH  17  18
ATOM     18  N   UNL     1       2.439   2.215  19.231  0.00  0.00    +0.000 NA
ATOM     19  C   UNL     1       0.985   2.449  19.171  0.00  0.00    +0.000 C 
ATOM     20  C   UNL     1       0.729   3.596  20.126  0.00  0.00    +0.000 C 
ATOM     21  C   UNL     1       1.667   3.279  21.273  0.00  0.00    +0.000 C 
ATOM     22  C   UNL     1       2.797   2.463  20.648  0.00  0.00    +0.000 C 
ENDBRANCH  17  18
ENDBRANCH  16  17
ENDBRANCH   1  16
TORSDOF 6
ENDMDL
MODEL 2
REMARK VINA RESULT:      -8.0      0.169      1.039
REMARK  Name = 
REMARK  6 active torsions:
REMARK  status: ('A' for Active; 'I' for Inactive)
REMARK    1  A    between atoms: C_2  and  C_3
REMARK    2  A    between atoms: C_3  and  C_4
REMARK    3  A    between atoms: C_3  and  C_11
REMARK    4  A    between atoms: C_3  and  C_17
REMARK    5  A    between atoms: C_4  and  C_5
REMARK    6  A    between atoms: C_5  and  N_6
REMARK                            x       y       z     vdW  Elec       q    Type
REMARK                         _______ _______ _______ _____ _____    ______ ____
ROOT
ATOM      1  C   UNL     1       5.087   4.883  18.350  0.00  0.00    +0.000 C 
ENDROOT
BRANCH   1   2
ATOM      2  C   UNL     1       3.996   5.993  18.502  0.00  0.00    +0.000 A 
ATOM      3  C   UNL     1       3.808   7.004  17.529  0.00  0.00    +0.000 A 
ATOM      4  C   UNL     1       2.871   8.025  17.707  0.00  0.00    +0.000 A 
ATOM      5  C   UNL     1       2.100   8.064  18.863  0.00  0.00    +0.000 A 
ATOM      6  C   UNL     1       2.262   7.082  19.834  0.00  0.00    +0.000 A 
ATOM      7  C   UNL     1       3.194   6.054  19.657  0.00  0.00    +0.000 A 
ENDBRANCH   1   2
BRANCH   1   8
ATOM      8  C   UNL     1       5.607   4.818  16.885  0.00  0.00    +0.000 A 
ATOM      9  C   UNL     1       4.862   4.263  15.828  0.00  0.00    +0.000 A 
ATOM     10  C   UNL     1       5.422   4.098  14.557  0.00  0.00    +0.000 A 
ATOM     11  C   UNL     1       6.735   4.484  14.310  0.00  0.00    +0.000 A 
ATOM     12  C   UNL     1       7.484   5.066  15.328  0.00  0.00    +0.000 A 
ATOM     13  C   UNL     1       6.924   5.242  16.596  0.00  0.00    +0.000 A 
ENDBRANCH   1   8
BRANCH   1  15
ATOM     14  N   UNL     1       7.299   5.519  19.910  0.00  0.00    +0.000 NA
ATOM     15  C   UNL     1       6.296   5.230  19.202  0.00  0.00    +0.000 C 
ENDBRANCH   1  15
BRANCH   1  16
ATOM     16  C   UNL     1       4.504   3.522  18.853  0.00  0.00    +0.000 C 
BRANCH  16  17
ATOM     17  C   UNL     1       3.143   3.137  18.239  0.00  0.00    +0.000 C 
BRANCH  17  18
ATOM     18  N   UNL     1       2.349   2.225  19.087  0.00  0.00    +0.000 NA
ATOM     19  C   UNL     1       0.899   2.483  19.064  0.00  0.00    +0.000 C 
ATOM     20  C   UNL     1       0.678   3.589  20.075  0.00  0.00    +0.000 C 
ATOM     21  C   UNL     1       1.632   3.207  21.189  0.00  0.00    +0.000 C 
ATOM     22  C   UNL     1       2.736   2.403  20.506  0.00  0.00    +0.000 C 
ENDBRANCH  17  18
ENDBRANCH  16  17
ENDBRANCH   1  16
TORSDOF 6
ENDMDL
MODEL 3
REMARK VINA RESULT:      -8.0      0.150      1.459
REMARK  Name = 
REMARK  6 active torsions:
REMARK  status: ('A' for Active; 'I' for Inactive)
REMARK    1  A    between atoms: C_2  and  C_3
REMARK    2  A    between atoms: C_3  and  C_4
REMARK    3  A    between atoms: C_3  and  C_11
REMARK    4  A    between atoms: C_3  and  C_17
REMARK    5  A    between atoms: C_4  and  C_5
REMARK    6  A    between atoms: C_5  and  N_6
REMARK                            x       y       z     vdW  Elec       q    Type
REMARK                         _______ _______ _______ _____ _____    ______ ____
ROOT
ATOM      1  C   UNL     1       5.130   4.905  18.362  0.00  0.00    +0.000 C 
ENDROOT
BRANCH   1   2
ATOM      2  C   UNL     1       4.067   6.039  18.535  0.00  0.00    +0.000 A 
ATOM      3  C   UNL     1       3.217   6.108  19.666  0.00  0.00    +0.000 A 
ATOM      4  C   UNL     1       2.231   7.092  19.778  0.00  0.00    +0.000 A 
ATOM      5  C   UNL     1       2.066   8.028  18.765  0.00  0.00    +0.000 A 
ATOM      6  C   UNL     1       2.890   7.985  17.644  0.00  0.00    +0.000 A 
ATOM      7  C   UNL     1       3.882   7.006  17.531  0.00  0.00    +0.000 A 
ENDBRANCH   1   2
BRANCH   1   8
ATOM      8  C   UNL     1       5.634   4.841  16.891  0.00  0.00    +0.000 A 
ATOM      9  C   UNL     1       4.874   4.292  15.842  0.00  0.00    +0.000 A 
ATOM     10  C   UNL     1       5.418   4.127  14.564  0.00  0.00    +0.000 A 
ATOM     11  C   UNL     1       6.730   4.507  14.303  0.00  0.00    +0.000 A 
ATOM     12  C   UNL     1       7.493   5.084  15.313  0.00  0.00    +0.000 A 
ATOM     13  C   UNL     1       6.949   5.260  16.588  0.00  0.00    +0.000 A 
ENDBRANCH   1   8
BRANCH   1  15
ATOM     14  N   UNL     1       7.373   5.478  19.903  0.00  0.00    +0.000 NA
ATOM     15  C   UNL     1       6.356   5.218  19.204  0.00  0.00    +0.000 C 
ENDBRANCH   1  15
BRANCH   1  16
ATOM     16  C   UNL     1       4.522   3.554  18.860  0.00  0.00    +0.000 C 
BRANCH  16  17
ATOM     17  C   UNL     1       3.138   3.215  18.273  0.00  0.00    +0.000 C 
BRANCH  17  18
ATOM     18  N   UNL     1       2.351   2.286  19.110  0.00  0.00    +0.000 NA
ATOM     19  C   UNL     1       0.902   2.551  19.113  0.00  0.00    +0.000 C 
ATOM     20  C   UNL     1       0.700   3.635  20.151  0.00  0.00    +0.000 C 
ATOM     21  C   UNL     1       1.667   3.224  21.243  0.00  0.00    +0.000 C 
ATOM     22  C   UNL     1       2.759   2.430  20.528  0.00  0.00    +0.000 C 
ENDBRANCH  17  18
ENDBRANCH  16  17
ENDBRANCH   1  16
TORSDOF 6
ENDMDL
MODEL 4
REMARK VINA RESULT:      -8.0      0.062      1.028
REMARK  Name = 
REMARK  6 active torsions:
REMARK  status: ('A' for Active; 'I' for Inactive)
REMARK    1  A    between atoms: C_2  and  C_3
REMARK    2  A    between atoms: C_3  and  C_4
REMARK    3  A    between atoms: C_3  and  C_11
REMARK    4  A    between atoms: C_3  and  C_17
REMARK    5  A    between atoms: C_4  and  C_5
REMARK    6  A    between atoms: C_5  and  N_6
REMARK                            x       y       z     vdW  Elec       q    Type
REMARK                         _______ _______ _______ _____ _____    ______ ____
ROOT
ATOM      1  C   UNL     1       5.257   4.819  18.430  0.00  0.00    +0.000 C 
ENDROOT
BRANCH   1   2
ATOM      2  C   UNL     1       4.198   5.966  18.507  0.00  0.00    +0.000 A 
ATOM      3  C   UNL     1       3.287   6.080  19.586  0.00  0.00    +0.000 A 
ATOM      4  C   UNL     1       2.307   7.075  19.611  0.00  0.00    +0.000 A 
ATOM      5  C   UNL     1       2.208   7.980  18.560  0.00  0.00    +0.000 A 
ATOM      6  C   UNL     1       3.092   7.893  17.490  0.00  0.00    +0.000 A 
ATOM      7  C   UNL     1       4.079   6.903  17.463  0.00  0.00    +0.000 A 
ENDBRANCH   1   2
BRANCH   1   8
ATOM      8  C   UNL     1       5.794   4.660  16.978  0.00  0.00    +0.000 A 
ATOM      9  C   UNL     1       7.078   5.081  16.583  0.00  0.00    +0.000 A 
ATOM     10  C   UNL     1       7.468   5.048  15.240  0.00  0.00    +0.000 A 
ATOM     11  C   UNL     1       6.590   4.594  14.263  0.00  0.00    +0.000 A 
ATOM     12  C   UNL     1       5.327   4.140  14.629  0.00  0.00    +0.000 A 
ATOM     13  C   UNL     1       4.937   4.162  15.971  0.00  0.00    +0.000 A 
ENDBRANCH   1   8
BRANCH   1  15
ATOM     14  N   UNL     1       7.468   5.475  19.984  0.00  0.00    +0.000 NA
ATOM     15  C   UNL     1       6.465   5.178  19.280  0.00  0.00    +0.000 C 
ENDBRANCH   1  15
BRANCH   1  16
ATOM     16  C   UNL     1       4.628   3.505  18.997  0.00  0.00    +0.000 C 
BRANCH  16  17
ATOM     17  C   UNL     1       3.257   3.135  18.398  0.00  0.00    +0.000 C 
BRANCH  17  18
ATOM     18  N   UNL     1       2.453   2.248  19.264  0.00  0.00    +0.000 NA
ATOM     19  C   UNL     1       1.001   2.488  19.196  0.00  0.00    +0.000 C 
ATOM     20  C   UNL     1       0.743   3.632  20.154  0.00  0.00    +0.000 C 
ATOM     21  C   UNL     1       1.674   3.308  21.305  0.00  0.00    +0.000 C 
ATOM     22  C   UNL     1       2.804   2.490  20.683  0.00  0.00    +0.000 C 
ENDBRANCH  17  18
ENDBRANCH  16  17
ENDBRANCH   1  16
TORSDOF 6
ENDMDL
MODEL 5
REMARK VINA RESULT:      -7.8      1.642      5.469
REMARK  Name = 
REMARK  6 active torsions:
REMARK  status: ('A' for Active; 'I' for Inactive)
REMARK    1  A    between atoms: C_2  and  C_3
REMARK    2  A    between atoms: C_3  and  C_4
REMARK    3  A    between atoms: C_3  and  C_11
REMARK    4  A    between atoms: C_3  and  C_17
REMARK    5  A    between atoms: C_4  and  C_5
REMARK    6  A    between atoms: C_5  and  N_6
REMARK                            x       y       z     vdW  Elec       q    Type
REMARK                         _______ _______ _______ _____ _____    ______ ____
ROOT
ATOM      1  C   UNL     1       3.224   5.414  18.772  0.00  0.00    +0.000 C 
ENDROOT
BRANCH   1   2
ATOM      2  C   UNL     1       2.445   4.431  19.706  0.00  0.00    +0.000 A 
ATOM      3  C   UNL     1       2.879   4.137  21.021  0.00  0.00    +0.000 A 
ATOM      4  C   UNL     1       2.207   3.210  21.822  0.00  0.00    +0.000 A 
ATOM      5  C   UNL     1       1.085   2.553  21.329  0.00  0.00    +0.000 A 
ATOM      6  C   UNL     1       0.635   2.825  20.042  0.00  0.00    +0.000 A 
ATOM      7  C   UNL     1       1.301   3.757  19.240  0.00  0.00    +0.000 A 
ENDBRANCH   1   2
BRANCH   1   8
ATOM      8  C   UNL     1       2.672   6.862  18.912  0.00  0.00    +0.000 A 
ATOM      9  C   UNL     1       2.027   7.331  20.071  0.00  0.00    +0.000 A 
ATOM     10  C   UNL     1       1.423   8.592  20.103  0.00  0.00    +0.000 A 
ATOM     11  C   UNL     1       1.449   9.414  18.982  0.00  0.00    +0.000 A 
ATOM     12  C   UNL     1       2.110   8.990  17.833  0.00  0.00    +0.000 A 
ATOM     13  C   UNL     1       2.723   7.735  17.801  0.00  0.00    +0.000 A 
ENDBRANCH   1   8
BRANCH   1  15
ATOM     14  N   UNL     1       5.888   5.544  19.561  0.00  0.00    +0.000 NA
ATOM     15  C   UNL     1       4.680   5.485  19.203  0.00  0.00    +0.000 C 
ENDBRANCH   1  15
BRANCH   1  16
ATOM     16  C   UNL     1       3.170   4.877  17.306  0.00  0.00    +0.000 C 
BRANCH  16  17
ATOM     17  C   UNL     1       4.325   3.930  16.922  0.00  0.00    +0.000 C 
BRANCH  17  18
ATOM     18  N   UNL     1       5.058   4.352  15.711  0.00  0.00    +0.000 NA
ATOM     19  C   UNL     1       6.394   3.747  15.569  0.00  0.00    +0.000 C 
ATOM     20  C   UNL     1       7.311   4.611  16.408  0.00  0.00    +0.000 C 
ATOM     21  C   UNL     1       6.786   6.006  16.133  0.00  0.00    +0.000 C 
ATOM     22  C   UNL     1       5.315   5.810  15.770  0.00  0.00    +0.000 C 
ENDBRANCH  17  18
ENDBRANCH  16  17
ENDBRANCH   1  16
TORSDOF 6
ENDMDL
MODEL 6
REMARK VINA RESULT:      -7.7      1.641      5.448
REMARK  Name = 
REMARK  6 active torsions:
REMARK  status: ('A' for Active; 'I' for Inactive)
REMARK    1  A    between atoms: C_2  and  C_3
REMARK    2  A    between atoms: C_3  and  C_4
REMARK    3  A    between atoms: C_3  and  C_11
REMARK    4  A    between atoms: C_3  and  C_17
REMARK    5  A    between atoms: C_4  and  C_5
REMARK    6  A    between atoms: C_5  and  N_6
REMARK                            x       y       z     vdW  Elec       q    Type
REMARK                         _______ _______ _______ _____ _____    ______ ____
ROOT
ATOM      1  C   UNL     1       3.274   5.412  18.748  0.00  0.00    +0.000 C 
ENDROOT
BRANCH   1   2
ATOM      2  C   UNL     1       2.517   4.376  19.640  0.00  0.00    +0.000 A 
ATOM      3  C   UNL     1       1.289   3.793  19.243  0.00  0.00    +0.000 A 
ATOM      4  C   UNL     1       0.594   2.914  20.077  0.00  0.00    +0.000 A 
ATOM      5  C   UNL     1       1.106   2.596  21.330  0.00  0.00    +0.000 A 
ATOM      6  C   UNL     1       2.312   3.151  21.744  0.00  0.00    +0.000 A 
ATOM      7  C   UNL     1       3.014   4.026  20.910  0.00  0.00    +0.000 A 
ENDBRANCH   1   2
BRANCH   1   8
ATOM      8  C   UNL     1       2.689   6.841  18.944  0.00  0.00    +0.000 A 
ATOM      9  C   UNL     1       2.048   7.253  20.128  0.00  0.00    +0.000 A 
ATOM     10  C   UNL     1       1.415   8.497  20.211  0.00  0.00    +0.000 A 
ATOM     11  C   UNL     1       1.407   9.358  19.119  0.00  0.00    +0.000 A 
ATOM     12  C   UNL     1       2.061   8.991  17.948  0.00  0.00    +0.000 A 
ATOM     13  C   UNL     1       2.704   7.753  17.865  0.00  0.00    +0.000 A 
ENDBRANCH   1   8
BRANCH   1  15
ATOM     14  N   UNL     1       5.934   5.571  19.542  0.00  0.00    +0.000 NA
ATOM     15  C   UNL     1       4.728   5.499  19.182  0.00  0.00    +0.000 C 
ENDBRANCH   1  15
BRANCH   1  16
ATOM     16  C   UNL     1       3.232   4.933  17.260  0.00  0.00    +0.000 C 
BRANCH  16  17
ATOM     17  C   UNL     1       4.339   3.933  16.873  0.00  0.00    +0.000 C 
BRANCH  17  18
ATOM     18  N   UNL     1       5.101   4.329  15.671  0.00  0.00    +0.000 NA
ATOM     19  C   UNL     1       6.437   3.719  15.572  0.00  0.00    +0.000 C 
ATOM     20  C   UNL     1       7.338   4.597  16.414  0.00  0.00    +0.000 C 
ATOM     21  C   UNL     1       6.822   5.988  16.101  0.00  0.00    +0.000 C 
ATOM     22  C   UNL     1       5.360   5.788  15.707  0.00  0.00    +0.000 C 
ENDBRANCH  17  18
ENDBRANCH  16  17
ENDBRANCH   1  16
TORSDOF 6
ENDMDL
MODEL 7
REMARK VINA RESULT:      -7.4      1.658      5.472
REMARK  Name = 
REMARK  6 active torsions:
REMARK  status: ('A' for Active; 'I' for Inactive)
REMARK    1  A    between atoms: C_2  and  C_3
REMARK    2  A    between atoms: C_3  and  C_4
REMARK    3  A    between atoms: C_3  and  C_11
REMARK    4  A    between atoms: C_3  and  C_17
REMARK    5  A    between atoms: C_4  and  C_5
REMARK    6  A    between atoms: C_5  and  N_6
REMARK                            x       y       z     vdW  Elec       q    Type
REMARK                         _______ _______ _______ _____ _____    ______ ____
ROOT
ATOM      1  C   UNL     1       3.148   5.331  18.744  0.00  0.00    +0.000 C 
ENDROOT
BRANCH   1   2
ATOM      2  C   UNL     1       2.409   4.362  19.723  0.00  0.00    +0.000 A 
ATOM      3  C   UNL     1       2.867   4.131  21.043  0.00  0.00    +0.000 A 
ATOM      4  C   UNL     1       2.232   3.216  21.886  0.00  0.00    +0.000 A 
ATOM      5  C   UNL     1       1.126   2.506  21.433  0.00  0.00    +0.000 A 
ATOM      6  C   UNL     1       0.653   2.716  20.142  0.00  0.00    +0.000 A 
ATOM      7  C   UNL     1       1.282   3.636  19.297  0.00  0.00    +0.000 A 
ENDBRANCH   1   2
BRANCH   1   8
ATOM      8  C   UNL     1       2.528   6.757  18.807  0.00  0.00    +0.000 A 
ATOM      9  C   UNL     1       2.591   7.671  17.738  0.00  0.00    +0.000 A 
ATOM     10  C   UNL     1       2.145   8.988  17.886  0.00  0.00    +0.000 A 
ATOM     11  C   UNL     1       1.626   9.424  19.100  0.00  0.00    +0.000 A 
ATOM     12  C   UNL     1       1.521   8.533  20.163  0.00  0.00    +0.000 A 
ATOM     13  C   UNL     1       1.956   7.213  20.016  0.00  0.00    +0.000 A 
ENDBRANCH   1   8
BRANCH   1  15
ATOM     14  N   UNL     1       5.798   5.625  19.534  0.00  0.00    +0.000 NA
ATOM     15  C   UNL     1       4.597   5.492  19.176  0.00  0.00    +0.000 C 
ENDBRANCH   1  15
BRANCH   1  16
ATOM     16  C   UNL     1       3.127   4.718  17.306  0.00  0.00    +0.000 C 
BRANCH  16  17
ATOM     17  C   UNL     1       4.362   3.866  16.950  0.00  0.00    +0.000 C 
BRANCH  17  18
ATOM     18  N   UNL     1       5.057   4.314  15.726  0.00  0.00    +0.000 NA
ATOM     19  C   UNL     1       6.398   3.734  15.543  0.00  0.00    +0.000 C 
ATOM     20  C   UNL     1       7.323   4.604  16.369  0.00  0.00    +0.000 C 
ATOM     21  C   UNL     1       6.767   5.992  16.124  0.00  0.00    +0.000 C 
ATOM     22  C   UNL     1       5.291   5.776  15.795  0.00  0.00    +0.000 C 
ENDBRANCH  17  18
ENDBRANCH  16  17
ENDBRANCH   1  16
TORSDOF 6
ENDMDL
MODEL 8
REMARK VINA RESULT:      -7.3      1.846      4.820
REMARK  Name = 
REMARK  6 active torsions:
REMARK  status: ('A' for Active; 'I' for Inactive)
REMARK    1  A    between atoms: C_2  and  C_3
REMARK    2  A    between atoms: C_3  and  C_4
REMARK    3  A    between atoms: C_3  and  C_11
REMARK    4  A    between atoms: C_3  and  C_17
REMARK    5  A    between atoms: C_4  and  C_5
REMARK    6  A    between atoms: C_5  and  N_6
REMARK                            x       y       z     vdW  Elec       q    Type
REMARK                         _______ _______ _______ _____ _____    ______ ____
ROOT
ATOM      1  C   UNL     1       2.965   5.805  18.860  0.00  0.00    +0.000 C 
ENDROOT
BRANCH   1   2
ATOM      2  C   UNL     1       4.392   5.852  18.221  0.00  0.00    +0.000 A 
ATOM      3  C   UNL     1       4.588   5.942  16.822  0.00  0.00    +0.000 A 
ATOM      4  C   UNL     1       5.868   5.921  16.261  0.00  0.00    +0.000 A 
ATOM      5  C   UNL     1       6.983   5.808  17.083  0.00  0.00    +0.000 A 
ATOM      6  C   UNL     1       6.819   5.720  18.462  0.00  0.00    +0.000 A 
ATOM      7  C   UNL     1       5.540   5.747  19.027  0.00  0.00    +0.000 A 
ENDBRANCH   1   2
BRANCH   1   8
ATOM      8  C   UNL     1       2.377   7.239  19.002  0.00  0.00    +0.000 A 
ATOM      9  C   UNL     1       1.840   7.734  20.205  0.00  0.00    +0.000 A 
ATOM     10  C   UNL     1       1.197   8.975  20.253  0.00  0.00    +0.000 A 
ATOM     11  C   UNL     1       1.075   9.750  19.105  0.00  0.00    +0.000 A 
ATOM     12  C   UNL     1       1.626   9.300  17.910  0.00  0.00    +0.000 A 
ATOM     13  C   UNL     1       2.278   8.066  17.860  0.00  0.00    +0.000 A 
ENDBRANCH   1   8
BRANCH   1  15
ATOM     14  N   UNL     1       1.225   4.440  17.173  0.00  0.00    +0.000 NA
ATOM     15  C   UNL     1       2.014   5.059  17.938  0.00  0.00    +0.000 C 
ENDBRANCH   1  15
BRANCH   1  16
ATOM     16  C   UNL     1       3.039   5.036  20.219  0.00  0.00    +0.000 C 
BRANCH  16  17
ATOM     17  C   UNL     1       1.902   4.021  20.448  0.00  0.00    +0.000 C 
BRANCH  17  18
ATOM     18  N   UNL     1       2.374   2.631  20.613  0.00  0.00    +0.000 NA
ATOM     19  C   UNL     1       3.838   2.476  20.553  0.00  0.00    +0.000 C 
ATOM     20  C   UNL     1       4.167   2.398  19.077  0.00  0.00    +0.000 C 
ATOM     21  C   UNL     1       3.027   1.561  18.533  0.00  0.00    +0.000 C 
ATOM     22  C   UNL     1       1.865   1.800  19.496  0.00  0.00    +0.000 C 
ENDBRANCH  17  18
ENDBRANCH  16  17
ENDBRANCH   1  16
TORSDOF 6
ENDMDL
MODEL 9
REMARK VINA RESULT:      -7.3      1.626      5.658
REMARK  Name = 
REMARK  6 active torsions:
REMARK  status: ('A' for Active; 'I' for Inactive)
REMARK    1  A    between atoms: C_2  and  C_3
REMARK    2  A    between atoms: C_3  and  C_4
REMARK    3  A    between atoms: C_3  and  C_11
REMARK    4  A    between atoms: C_3  and  C_17
REMARK    5  A    between atoms: C_4  and  C_5
REMARK    6  A    between atoms: C_5  and  N_6
REMARK                            x       y       z     vdW  Elec       q    Type
REMARK                         _______ _______ _______ _____ _____    ______ ____
ROOT
ATOM      1  C   UNL     1       4.046   5.413  18.138  0.00  0.00    +0.000 C 
ENDROOT
BRANCH   1   2
ATOM      2  C   UNL     1       3.221   4.106  18.377  0.00  0.00    +0.000 A 
ATOM      3  C   UNL     1       3.841   2.859  18.634  0.00  0.00    +0.000 A 
ATOM      4  C   UNL     1       3.093   1.689  18.786  0.00  0.00    +0.000 A 
ATOM      5  C   UNL     1       1.708   1.733  18.683  0.00  0.00    +0.000 A 
ATOM      6  C   UNL     1       1.072   2.945  18.434  0.00  0.00    +0.000 A 
ATOM      7  C   UNL     1       1.817   4.120  18.288  0.00  0.00    +0.000 A 
ENDBRANCH   1   2
BRANCH   1   8
ATOM      8  C   UNL     1       3.241   6.664  18.593  0.00  0.00    +0.000 A 
ATOM      9  C   UNL     1       2.623   6.765  19.854  0.00  0.00    +0.000 A 
ATOM     10  C   UNL     1       1.794   7.847  20.168  0.00  0.00    +0.000 A 
ATOM     11  C   UNL     1       1.564   8.852  19.236  0.00  0.00    +0.000 A 
ATOM     12  C   UNL     1       2.189   8.796  17.995  0.00  0.00    +0.000 A 
ATOM     13  C   UNL     1       3.026   7.722  17.681  0.00  0.00    +0.000 A 
ENDBRANCH   1   8
BRANCH   1  15
ATOM     14  N   UNL     1       6.339   5.377  19.710  0.00  0.00    +0.000 NA
ATOM     15  C   UNL     1       5.299   5.393  18.997  0.00  0.00    +0.000 C 
ENDBRANCH   1  15
BRANCH   1  16
ATOM     16  C   UNL     1       4.478   5.475  16.637  0.00  0.00    +0.000 C 
BRANCH  16  17
ATOM     17  C   UNL     1       5.962   5.821  16.407  0.00  0.00    +0.000 C 
BRANCH  17  18
ATOM     18  N   UNL     1       6.769   4.679  15.931  0.00  0.00    +0.000 NA
ATOM     19  C   UNL     1       7.680   5.002  14.820  0.00  0.00    +0.000 C 
ATOM     20  C   UNL     1       6.831   4.903  13.570  0.00  0.00    +0.000 C 
ATOM     21  C   UNL     1       5.960   3.698  13.862  0.00  0.00    +0.000 C 
ATOM     22  C   UNL     1       5.873   3.632  15.386  0.00  0.00    +0.000 C 
ENDBRANCH  17  18
ENDBRANCH  16  17
ENDBRANCH   1  16
TORSDOF 6
ENDMDL
