MODEL 1
REMARK VINA RESULT:      -8.3      0.000      0.000
REMARK  Name = 
REMARK  10 active torsions:
REMARK  status: ('A' for Active; 'I' for Inactive)
REMARK    1  A    between atoms: C_1  and  O_2
REMARK    2  A    between atoms: O_2  and  C_3
REMARK    3  A    between atoms: C_6  and  C_7
REMARK    4  A    between atoms: C_9  and  O_10
REMARK    5  A    between atoms: C_9  and  C_11
REMARK    6  A    between atoms: C_12  and  C_13
REMARK    7  A    between atoms: C_19  and  C_20
REMARK    8  A    between atoms: C_21  and  C_22
REMARK    9  A    between atoms: C_25  and  O_26
REMARK   10  A    between atoms: O_26  and  C_27
REMARK                            x       y       z     vdW  Elec       q    Type
REMARK                         _______ _______ _______ _____ _____    ______ ____
ROOT
ATOM      1  C   UNL     1       7.042   4.487  15.839  0.00  0.00    +0.000 C 
ATOM      2  C   UNL     1       7.695   5.861  16.137  0.00  0.00    +0.000 C 
ATOM      3  C   UNL     1       6.857   6.804  17.005  0.00  0.00    +0.000 C 
ATOM      4  C   UNL     1       6.161   6.071  18.178  0.00  0.00    +0.000 C 
ATOM      5  C   UNL     1       7.149   5.668  19.297  0.00  0.00    +0.000 C 
ATOM      6  C   UNL     1       5.375   4.865  17.616  0.00  0.00    +0.000 C 
ATOM      7  N   UNL     1       6.278   3.918  16.955  0.00  0.00    +0.000 NA
ATOM      8  H   UNL     1       5.725   3.132  16.606  0.00  0.00    +0.000 HD
ENDROOT
BRANCH   1  12
ATOM      9  C   UNL     1       5.125   3.335  12.103  0.00  0.00    +0.000 A 
ATOM     10  C   UNL     1       6.492   3.590  12.162  0.00  0.00    +0.000 A 
ATOM     11  C   UNL     1       7.080   4.032  13.352  0.00  0.00    +0.000 A 
ATOM     12  C   UNL     1       6.312   4.259  14.512  0.00  0.00    +0.000 A 
ATOM     13  C   UNL     1       4.925   4.087  14.407  0.00  0.00    +0.000 A 
ATOM     14  C   UNL     1       4.340   3.618  13.220  0.00  0.00    +0.000 A 
BRANCH   9  16
ATOM     15  C   UNL     1       3.656   3.631  10.282  0.00  0.00    +0.000 C 
ATOM     16  O   UNL     1       4.665   2.845  10.914  0.00  0.00    +0.000 OA
ENDBRANCH   9  16
ENDBRANCH   1  12
BRANCH   6  17
ATOM     17  C   UNL     1       4.568   4.178  18.710  0.00  0.00    +0.000 A 
ATOM     18  C   UNL     1       3.594   4.895  19.423  0.00  0.00    +0.000 A 
ATOM     19  C   UNL     1       2.946   4.309  20.512  0.00  0.00    +0.000 A 
ATOM     20  C   UNL     1       3.255   3.004  20.904  0.00  0.00    +0.000 A 
ATOM     21  C   UNL     1       4.206   2.280  20.196  0.00  0.00    +0.000 A 
ATOM     22  C   UNL     1       4.844   2.859  19.100  0.00  0.00    +0.000 A 
BRANCH  20  23
ATOM     23  O   UNL     1       2.598   2.558  22.020  0.00  0.00    +0.000 OA
ATOM     24  C   UNL     1       1.178   2.584  21.943  0.00  0.00    +0.000 C 
ENDBRANCH  20  23
ENDBRANCH   6  17
BRANCH   3  25
ATOM     25  O   UNL     1       5.849   7.401  16.180  0.00  0.00    +0.000 OA
ATOM     26  H   UNL     1       6.275   8.136  15.706  0.00  0.00    +0.000 HD
ENDBRANCH   3  25
BRANCH   3  27
ATOM     27  C   UNL     1       7.666   7.950  17.593  0.00  0.00    +0.000 C 
ATOM     28  C   UNL     1       8.360   8.932  18.097  0.00  0.00    +0.000 C 
BRANCH  28  29
ATOM     29  C   UNL     1       9.063  10.045  18.654  0.00  0.00    +0.000 A 
ATOM     30  C   UNL     1       9.150  10.205  20.037  0.00  0.00    +0.000 A 
ATOM     31  C   UNL     1       9.837  11.299  20.571  0.00  0.00    +0.000 A 
ATOM     32  C   UNL     1      10.434  12.231  19.722  0.00  0.00    +0.000 A 
ATOM     33  C   UNL     1      10.349  12.073  18.340  0.00  0.00    +0.000 A 
ATOM     34  C   UNL     1       9.662  10.980  17.806  0.00  0.00    +0.000 A 
ENDBRANCH  28  29
ENDBRANCH   3  27
TORSDOF 7
ENDMDL
MODEL 2
REMARK VINA RESULT:      -8.2      0.290      1.240
REMARK  Name = 
REMARK  10 active torsions:
REMARK  status: ('A' for Active; 'I' for Inactive)
REMARK    1  A    between atoms: C_1  and  O_2
REMARK    2  A    between atoms: O_2  and  C_3
REMARK    3  A    between atoms: C_6  and  C_7
REMARK    4  A    between atoms: C_9  and  O_10
REMARK    5  A    between atoms: C_9  and  C_11
REMARK    6  A    between atoms: C_12  and  C_13
REMARK    7  A    between atoms: C_19  and  C_20
REMARK    8  A    between atoms: C_21  and  C_22
REMARK    9  A    between atoms: C_25  and  O_26
REMARK   10  A    between atoms: O_26  and  C_27
REMARK                            x       y       z     vdW  Elec       q    Type
REMARK                         _______ _______ _______ _____ _____    ______ ____
ROOT
ATOM      1  C   UNL     1       7.208   4.653  15.979  0.00  0.00    +0.000 C 
ATOM      2  C   UNL     1       7.825   6.046  16.258  0.00  0.00    +0.000 C 
ATOM      3  C   UNL     1       6.963   6.979  17.115  0.00  0.00    +0.000 C 
ATOM      4  C   UNL     1       6.288   6.244  18.298  0.00  0.00    +0.000 C 
ATOM      5  C   UNL     1       7.288   5.881  19.422  0.00  0.00    +0.000 C 
ATOM      6  C   UNL     1       5.533   5.010  17.753  0.00  0.00    +0.000 C 
ATOM      7  N   UNL     1       6.459   4.078  17.103  0.00  0.00    +0.000 NA
ATOM      8  H   UNL     1       5.926   3.274  16.766  0.00  0.00    +0.000 HD
ENDROOT
BRANCH   1  12
ATOM      9  C   UNL     1       5.350   3.413  12.241  0.00  0.00    +0.000 A 
ATOM     10  C   UNL     1       6.688   3.791  12.289  0.00  0.00    +0.000 A 
ATOM     11  C   UNL     1       7.250   4.258  13.482  0.00  0.00    +0.000 A 
ATOM     12  C   UNL     1       6.482   4.388  14.656  0.00  0.00    +0.000 A 
ATOM     13  C   UNL     1       5.115   4.092  14.564  0.00  0.00    +0.000 A 
ATOM     14  C   UNL     1       4.558   3.598  13.374  0.00  0.00    +0.000 A 
BRANCH   9  16
ATOM     15  C   UNL     1       3.569   3.221  10.706  0.00  0.00    +0.000 C 
ATOM     16  O   UNL     1       4.919   2.909  11.047  0.00  0.00    +0.000 OA
ENDBRANCH   9  16
ENDBRANCH   1  12
BRANCH   6  17
ATOM     17  C   UNL     1       4.745   4.316  18.857  0.00  0.00    +0.000 A 
ATOM     18  C   UNL     1       4.983   2.963  19.149  0.00  0.00    +0.000 A 
ATOM     19  C   UNL     1       4.174   2.290  20.067  0.00  0.00    +0.000 A 
ATOM     20  C   UNL     1       3.123   2.951  20.707  0.00  0.00    +0.000 A 
ATOM     21  C   UNL     1       2.889   4.294  20.436  0.00  0.00    +0.000 A 
ATOM     22  C   UNL     1       3.703   4.971  19.531  0.00  0.00    +0.000 A 
BRANCH  20  23
ATOM     23  O   UNL     1       2.364   2.173  21.540  0.00  0.00    +0.000 OA
ATOM     24  C   UNL     1       1.103   2.722  21.907  0.00  0.00    +0.000 C 
ENDBRANCH  20  23
ENDBRANCH   6  17
BRANCH   3  25
ATOM     25  O   UNL     1       5.939   7.538  16.284  0.00  0.00    +0.000 OA
ATOM     26  H   UNL     1       5.637   8.353  16.723  0.00  0.00    +0.000 HD
ENDBRANCH   3  25
BRANCH   3  27
ATOM     27  C   UNL     1       7.743   8.153  17.686  0.00  0.00    +0.000 C 
ATOM     28  C   UNL     1       8.410   9.160  18.175  0.00  0.00    +0.000 C 
BRANCH  28  29
ATOM     29  C   UNL     1       9.201  10.233  18.694  0.00  0.00    +0.000 A 
ATOM     30  C   UNL     1       9.898  11.079  17.831  0.00  0.00    +0.000 A 
ATOM     31  C   UNL     1      10.670  12.122  18.349  0.00  0.00    +0.000 A 
ATOM     32  C   UNL     1      10.746  12.317  19.729  0.00  0.00    +0.000 A 
ATOM     33  C   UNL     1      10.050  11.473  20.594  0.00  0.00    +0.000 A 
ATOM     34  C   UNL     1       9.278  10.430  20.076  0.00  0.00    +0.000 A 
ENDBRANCH  28  29
ENDBRANCH   3  27
TORSDOF 7
ENDMDL
MODEL 3
REMARK VINA RESULT:      -7.7      0.779      1.630
REMARK  Name = 
REMARK  10 active torsions:
REMARK  status: ('A' for Active; 'I' for Inactive)
REMARK    1  A    between atoms: C_1  and  O_2
REMARK    2  A    between atoms: O_2  and  C_3
REMARK    3  A    between atoms: C_6  and  C_7
REMARK    4  A    between atoms: C_9  and  O_10
REMARK    5  A    between atoms: C_9  and  C_11
REMARK    6  A    between atoms: C_12  and  C_13
REMARK    7  A    between atoms: C_19  and  C_20
REMARK    8  A    between atoms: C_21  and  C_22
REMARK    9  A    between atoms: C_25  and  O_26
REMARK   10  A    between atoms: O_26  and  C_27
REMARK                            x       y       z     vdW  Elec       q    Type
REMARK                         _______ _______ _______ _____ _____    ______ ____
ROOT
ATOM      1  C   UNL     1       6.938   4.228  15.882  0.00  0.00    +0.000 C 
ATOM      2  C   UNL     1       7.572   5.616  16.153  0.00  0.00    +0.000 C 
ATOM      3  C   UNL     1       6.631   6.650  16.780  0.00  0.00    +0.000 C 
ATOM      4  C   UNL     1       5.734   6.043  17.885  0.00  0.00    +0.000 C 
ATOM      5  C   UNL     1       6.516   5.738  19.185  0.00  0.00    +0.000 C 
ATOM      6  C   UNL     1       5.016   4.797  17.318  0.00  0.00    +0.000 C 
ATOM      7  N   UNL     1       5.987   3.779  16.906  0.00  0.00    +0.000 NA
ATOM      8  H   UNL     1       5.476   2.970  16.547  0.00  0.00    +0.000 HD
ENDROOT
BRANCH   1  12
ATOM      9  C   UNL     1       5.262   3.721  11.895  0.00  0.00    +0.000 A 
ATOM     10  C   UNL     1       4.476   3.559  13.032  0.00  0.00    +0.000 A 
ATOM     11  C   UNL     1       5.047   3.651  14.306  0.00  0.00    +0.000 A 
ATOM     12  C   UNL     1       6.426   3.881  14.481  0.00  0.00    +0.000 A 
ATOM     13  C   UNL     1       7.216   3.948  13.325  0.00  0.00    +0.000 A 
ATOM     14  C   UNL     1       6.640   3.881  12.047  0.00  0.00    +0.000 A 
BRANCH   9  16
ATOM     15  C   UNL     1       3.322   3.038  10.741  0.00  0.00    +0.000 C 
ATOM     16  O   UNL     1       4.596   3.678  10.703  0.00  0.00    +0.000 OA
ENDBRANCH   9  16
ENDBRANCH   1  12
BRANCH   6  17
ATOM     17  C   UNL     1       4.023   4.229  18.325  0.00  0.00    +0.000 A 
ATOM     18  C   UNL     1       3.987   2.848  18.577  0.00  0.00    +0.000 A 
ATOM     19  C   UNL     1       2.993   2.309  19.397  0.00  0.00    +0.000 A 
ATOM     20  C   UNL     1       2.027   3.134  19.977  0.00  0.00    +0.000 A 
ATOM     21  C   UNL     1       2.063   4.504  19.747  0.00  0.00    +0.000 A 
ATOM     22  C   UNL     1       3.062   5.045  18.940  0.00  0.00    +0.000 A 
BRANCH  20  23
ATOM     23  O   UNL     1       1.071   2.485  20.713  0.00  0.00    +0.000 OA
ATOM     24  C   UNL     1       1.284   2.480  22.120  0.00  0.00    +0.000 C 
ENDBRANCH  20  23
ENDBRANCH   6  17
BRANCH   3  25
ATOM     25  O   UNL     1       5.786   7.175  15.748  0.00  0.00    +0.000 OA
ATOM     26  H   UNL     1       5.148   7.768  16.184  0.00  0.00    +0.000 HD
ENDBRANCH   3  25
BRANCH   3  27
ATOM     27  C   UNL     1       7.365   7.837  17.381  0.00  0.00    +0.000 C 
ATOM     28  C   UNL     1       7.995   8.855  17.898  0.00  0.00    +0.000 C 
BRANCH  28  29
ATOM     29  C   UNL     1       8.653  10.012  18.421  0.00  0.00    +0.000 A 
ATOM     30  C   UNL     1       8.639  11.214  17.712  0.00  0.00    +0.000 A 
ATOM     31  C   UNL     1       9.287  12.337  18.230  0.00  0.00    +0.000 A 
ATOM     32  C   UNL     1       9.951  12.258  19.455  0.00  0.00    +0.000 A 
ATOM     33  C   UNL     1       9.967  11.059  20.165  0.00  0.00    +0.000 A 
ATOM     34  C   UNL     1       9.318   9.935  19.647  0.00  0.00    +0.000 A 
ENDBRANCH  28  29
ENDBRANCH   3  27
TORSDOF 7
ENDMDL
MODEL 4
REMARK VINA RESULT:      -7.6      0.422      1.241
REMARK  Name = 
REMARK  10 active torsions:
REMARK  status: ('A' for Active; 'I' for Inactive)
REMARK    1  A    between atoms: C_1  and  O_2
REMARK    2  A    between atoms: O_2  and  C_3
REMARK    3  A    between atoms: C_6  and  C_7
REMARK    4  A    between atoms: C_9  and  O_10
REMARK    5  A    between atoms: C_9  and  C_11
REMARK    6  A    between atoms: C_12  and  C_13
REMARK    7  A    between atoms: C_19  and  C_20
REMARK    8  A    between atoms: C_21  and  C_22
REMARK    9  A    between atoms: C_25  and  O_26
REMARK   10  A    between atoms: O_26  and  C_27
REMARK                            x       y       z     vdW  Elec       q    Type
REMARK                         _______ _______ _______ _____ _____    ______ ____
ROOT
ATOM      1  C   UNL     1       7.227   4.375  15.994  0.00  0.00    +0.000 C 
ATOM      2  C   UNL     1       7.781   5.804  16.221  0.00  0.00    +0.000 C 
ATOM      3  C   UNL     1       6.832   6.761  16.950  0.00  0.00    +0.000 C 
ATOM      4  C   UNL     1       6.094   6.082  18.129  0.00  0.00    +0.000 C 
ATOM      5  C   UNL     1       7.020   5.827  19.342  0.00  0.00    +0.000 C 
ATOM      6  C   UNL     1       5.417   4.789  17.617  0.00  0.00    +0.000 C 
ATOM      7  N   UNL     1       6.416   3.849  17.098  0.00  0.00    +0.000 NA
ATOM      8  H   UNL     1       5.933   3.007  16.780  0.00  0.00    +0.000 HD
ENDROOT
BRANCH   1  12
ATOM      9  C   UNL     1       5.248   3.789  12.159  0.00  0.00    +0.000 A 
ATOM     10  C   UNL     1       4.551   3.655  13.357  0.00  0.00    +0.000 A 
ATOM     11  C   UNL     1       5.218   3.772  14.581  0.00  0.00    +0.000 A 
ATOM     12  C   UNL     1       6.607   3.999  14.644  0.00  0.00    +0.000 A 
ATOM     13  C   UNL     1       7.306   4.038  13.430  0.00  0.00    +0.000 A 
ATOM     14  C   UNL     1       6.633   3.947  12.202  0.00  0.00    +0.000 A 
BRANCH   9  16
ATOM     15  C   UNL     1       3.311   2.928  11.124  0.00  0.00    +0.000 C 
ATOM     16  O   UNL     1       4.491   3.723  11.024  0.00  0.00    +0.000 OA
ENDBRANCH   9  16
ENDBRANCH   1  12
BRANCH   6  17
ATOM     17  C   UNL     1       4.572   4.143  18.707  0.00  0.00    +0.000 A 
ATOM     18  C   UNL     1       3.625   4.906  19.410  0.00  0.00    +0.000 A 
ATOM     19  C   UNL     1       2.943   4.353  20.496  0.00  0.00    +0.000 A 
ATOM     20  C   UNL     1       3.192   3.038  20.895  0.00  0.00    +0.000 A 
ATOM     21  C   UNL     1       4.115   2.269  20.197  0.00  0.00    +0.000 A 
ATOM     22  C   UNL     1       4.787   2.815  19.104  0.00  0.00    +0.000 A 
BRANCH  20  23
ATOM     23  O   UNL     1       2.507   2.625  22.007  0.00  0.00    +0.000 OA
ATOM     24  C   UNL     1       1.092   2.574  21.869  0.00  0.00    +0.000 C 
ENDBRANCH  20  23
ENDBRANCH   6  17
BRANCH   3  25
ATOM     25  O   UNL     1       5.855   7.229  16.012  0.00  0.00    +0.000 OA
ATOM     26  H   UNL     1       4.988   7.157  16.452  0.00  0.00    +0.000 HD
ENDBRANCH   3  25
BRANCH   3  27
ATOM     27  C   UNL     1       7.532   7.996  17.494  0.00  0.00    +0.000 C 
ATOM     28  C   UNL     1       8.134   9.054  17.960  0.00  0.00    +0.000 C 
BRANCH  28  29
ATOM     29  C   UNL     1       8.771  10.198  18.534  0.00  0.00    +0.000 A 
ATOM     30  C   UNL     1       8.848  11.396  17.821  0.00  0.00    +0.000 A 
ATOM     31  C   UNL     1       9.475  12.507  18.389  0.00  0.00    +0.000 A 
ATOM     32  C   UNL     1      10.027  12.420  19.668  0.00  0.00    +0.000 A 
ATOM     33  C   UNL     1       9.951  11.225  20.383  0.00  0.00    +0.000 A 
ATOM     34  C   UNL     1       9.324  10.114  19.814  0.00  0.00    +0.000 A 
ENDBRANCH  28  29
ENDBRANCH   3  27
TORSDOF 7
ENDMDL
MODEL 5
REMARK VINA RESULT:      -7.6      1.029      1.326
REMARK  Name = 
REMARK  10 active torsions:
REMARK  status: ('A' for Active; 'I' for Inactive)
REMARK    1  A    between atoms: C_1  and  O_2
REMARK    2  A    between atoms: O_2  and  C_3
REMARK    3  A    between atoms: C_6  and  C_7
REMARK    4  A    between atoms: C_9  and  O_10
REMARK    5  A    between atoms: C_9  and  C_11
REMARK    6  A    between atoms: C_12  and  C_13
REMARK    7  A    between atoms: C_19  and  C_20
REMARK    8  A    between atoms: C_21  and  C_22
REMARK    9  A    between atoms: C_25  and  O_26
REMARK   10  A    between atoms: O_26  and  C_27
REMARK                            x       y       z     vdW  Elec       q    Type
REMARK                         _______ _______ _______ _____ _____    ______ ____
ROOT
ATOM      1  C   UNL     1       6.725   4.081  15.616  0.00  0.00    +0.000 C 
ATOM      2  C   UNL     1       7.391   5.441  15.943  0.00  0.00    +0.000 C 
ATOM      3  C   UNL     1       6.449   6.505  16.517  0.00  0.00    +0.000 C 
ATOM      4  C   UNL     1       5.457   5.923  17.554  0.00  0.00    +0.000 C 
ATOM      5  C   UNL     1       6.138   5.578  18.899  0.00  0.00    +0.000 C 
ATOM      6  C   UNL     1       4.733   4.710  16.926  0.00  0.00    +0.000 C 
ATOM      7  N   UNL     1       5.691   3.660  16.568  0.00  0.00    +0.000 NA
ATOM      8  H   UNL     1       5.175   2.874  16.167  0.00  0.00    +0.000 HD
ENDROOT
BRANCH   1  12
ATOM      9  C   UNL     1       5.240   3.641  11.545  0.00  0.00    +0.000 A 
ATOM     10  C   UNL     1       4.436   3.344  12.641  0.00  0.00    +0.000 A 
ATOM     11  C   UNL     1       4.951   3.418  13.940  0.00  0.00    +0.000 A 
ATOM     12  C   UNL     1       6.296   3.766  14.179  0.00  0.00    +0.000 A 
ATOM     13  C   UNL     1       7.114   3.970  13.060  0.00  0.00    +0.000 A 
ATOM     14  C   UNL     1       6.590   3.920  11.759  0.00  0.00    +0.000 A 
BRANCH   9  16
ATOM     15  C   UNL     1       3.199   3.692  10.365  0.00  0.00    +0.000 C 
ATOM     16  O   UNL     1       4.622   3.602  10.328  0.00  0.00    +0.000 OA
ENDBRANCH   9  16
ENDBRANCH   1  12
BRANCH   6  17
ATOM     17  C   UNL     1       3.654   4.172  17.857  0.00  0.00    +0.000 A 
ATOM     18  C   UNL     1       2.789   5.059  18.520  0.00  0.00    +0.000 A 
ATOM     19  C   UNL     1       1.888   4.580  19.474  0.00  0.00    +0.000 A 
ATOM     20  C   UNL     1       1.834   3.218  19.778  0.00  0.00    +0.000 A 
ATOM     21  C   UNL     1       2.674   2.331  19.117  0.00  0.00    +0.000 A 
ATOM     22  C   UNL     1       3.564   2.805  18.155  0.00  0.00    +0.000 A 
BRANCH  20  23
ATOM     23  O   UNL     1       0.953   2.876  20.770  0.00  0.00    +0.000 OA
ATOM     24  C   UNL     1       1.528   2.685  22.057  0.00  0.00    +0.000 C 
ENDBRANCH  20  23
ENDBRANCH   6  17
BRANCH   3  25
ATOM     25  O   UNL     1       5.696   7.071  15.437  0.00  0.00    +0.000 OA
ATOM     26  H   UNL     1       5.044   7.674  15.837  0.00  0.00    +0.000 HD
ENDBRANCH   3  25
BRANCH   3  27
ATOM     27  C   UNL     1       7.185   7.658  17.180  0.00  0.00    +0.000 C 
ATOM     28  C   UNL     1       7.816   8.647  17.749  0.00  0.00    +0.000 C 
BRANCH  28  29
ATOM     29  C   UNL     1       8.461   9.773  18.348  0.00  0.00    +0.000 A 
ATOM     30  C   UNL     1       9.070   9.657  19.599  0.00  0.00    +0.000 A 
ATOM     31  C   UNL     1       9.694  10.765  20.177  0.00  0.00    +0.000 A 
ATOM     32  C   UNL     1       9.708  11.988  19.506  0.00  0.00    +0.000 A 
ATOM     33  C   UNL     1       9.101  12.108  18.257  0.00  0.00    +0.000 A 
ATOM     34  C   UNL     1       8.477  11.000  17.679  0.00  0.00    +0.000 A 
ENDBRANCH  28  29
ENDBRANCH   3  27
TORSDOF 7
ENDMDL
MODEL 6
REMARK VINA RESULT:      -7.5      8.192     11.451
REMARK  Name = 
REMARK  10 active torsions:
REMARK  status: ('A' for Active; 'I' for Inactive)
REMARK    1  A    between atoms: C_1  and  O_2
REMARK    2  A    between atoms: O_2  and  C_3
REMARK    3  A    between atoms: C_6  and  C_7
REMARK    4  A    between atoms: C_9  and  O_10
REMARK    5  A    between atoms: C_9  and  C_11
REMARK    6  A    between atoms: C_12  and  C_13
REMARK    7  A    between atoms: C_19  and  C_20
REMARK    8  A    between atoms: C_21  and  C_22
REMARK    9  A    between atoms: C_25  and  O_26
REMARK   10  A    between atoms: O_26  and  C_27
REMARK                            x       y       z     vdW  Elec       q    Type
REMARK                         _______ _______ _______ _____ _____    ______ ____
ROOT
ATOM      1  C   UNL     1       0.704  10.339  18.662  0.00  0.00    +0.000 C 
ATOM      2  C   UNL     1      -0.469  10.497  19.662  0.00  0.00    +0.000 C 
ATOM      3  C   UNL     1      -0.196  11.438  20.840  0.00  0.00    +0.000 C 
ATOM      4  C   UNL     1       0.562  12.718  20.415  0.00  0.00    +0.000 C 
ATOM      5  C   UNL     1      -0.334  13.707  19.632  0.00  0.00    +0.000 C 
ATOM      6  C   UNL     1       1.827  12.310  19.625  0.00  0.00    +0.000 C 
ATOM      7  N   UNL     1       1.468  11.567  18.414  0.00  0.00    +0.000 NA
ATOM      8  H   UNL     1       2.327  11.324  17.916  0.00  0.00    +0.000 HD
ENDROOT
BRANCH   1  12
ATOM      9  C   UNL     1       2.940   6.608  18.881  0.00  0.00    +0.000 A 
ATOM     10  C   UNL     1       2.204   7.072  19.968  0.00  0.00    +0.000 A 
ATOM     11  C   UNL     1       1.553   8.308  19.907  0.00  0.00    +0.000 A 
ATOM     12  C   UNL     1       1.642   9.131  18.767  0.00  0.00    +0.000 A 
ATOM     13  C   UNL     1       2.463   8.691  17.720  0.00  0.00    +0.000 A 
ATOM     14  C   UNL     1       3.095   7.439  17.771  0.00  0.00    +0.000 A 
BRANCH   9  16
ATOM     15  C   UNL     1       4.892   5.329  19.222  0.00  0.00    +0.000 C 
ATOM     16  O   UNL     1       3.481   5.362  19.020  0.00  0.00    +0.000 OA
ENDBRANCH   9  16
ENDBRANCH   1  12
BRANCH   6  17
ATOM     17  C   UNL     1       2.679  13.527  19.287  0.00  0.00    +0.000 A 
ATOM     18  C   UNL     1       3.313  14.251  20.310  0.00  0.00    +0.000 A 
ATOM     19  C   UNL     1       3.984  15.440  20.019  0.00  0.00    +0.000 A 
ATOM     20  C   UNL     1       4.037  15.923  18.709  0.00  0.00    +0.000 A 
ATOM     21  C   UNL     1       3.426  15.207  17.687  0.00  0.00    +0.000 A 
ATOM     22  C   UNL     1       2.767  14.013  17.974  0.00  0.00    +0.000 A 
BRANCH  20  23
ATOM     23  O   UNL     1       4.672  17.127  18.555  0.00  0.00    +0.000 OA
ATOM     24  C   UNL     1       5.838  17.307  19.350  0.00  0.00    +0.000 C 
ENDBRANCH  20  23
ENDBRANCH   6  17
BRANCH   3  25
ATOM     25  O   UNL     1       0.602  10.737  21.802  0.00  0.00    +0.000 OA
ATOM     26  H   UNL     1       1.217  11.389  22.183  0.00  0.00    +0.000 HD
ENDBRANCH   3  25
BRANCH   3  27
ATOM     27  C   UNL     1      -1.461  11.870  21.564  0.00  0.00    +0.000 C 
ATOM     28  C   UNL     1      -2.546  12.239  22.185  0.00  0.00    +0.000 C 
BRANCH  28  29
ATOM     29  C   UNL     1      -3.772  12.627  22.811  0.00  0.00    +0.000 A 
ATOM     30  C   UNL     1      -4.017  12.304  24.146  0.00  0.00    +0.000 A 
ATOM     31  C   UNL     1      -5.220  12.685  24.746  0.00  0.00    +0.000 A 
ATOM     32  C   UNL     1      -6.176  13.388  24.012  0.00  0.00    +0.000 A 
ATOM     33  C   UNL     1      -5.933  13.713  22.678  0.00  0.00    +0.000 A 
ATOM     34  C   UNL     1      -4.730  13.331  22.078  0.00  0.00    +0.000 A 
ENDBRANCH  28  29
ENDBRANCH   3  27
TORSDOF 7
ENDMDL
MODEL 7
REMARK VINA RESULT:      -7.2      8.131     11.474
REMARK  Name = 
REMARK  10 active torsions:
REMARK  status: ('A' for Active; 'I' for Inactive)
REMARK    1  A    between atoms: C_1  and  O_2
REMARK    2  A    between atoms: O_2  and  C_3
REMARK    3  A    between atoms: C_6  and  C_7
REMARK    4  A    between atoms: C_9  and  O_10
REMARK    5  A    between atoms: C_9  and  C_11
REMARK    6  A    between atoms: C_12  and  C_13
REMARK    7  A    between atoms: C_19  and  C_20
REMARK    8  A    between atoms: C_21  and  C_22
REMARK    9  A    between atoms: C_25  and  O_26
REMARK   10  A    between atoms: O_26  and  C_27
REMARK                            x       y       z     vdW  Elec       q    Type
REMARK                         _______ _______ _______ _____ _____    ______ ____
ROOT
ATOM      1  C   UNL     1       1.137   9.918  17.863  0.00  0.00    +0.000 C 
ATOM      2  C   UNL     1      -0.402  10.045  17.995  0.00  0.00    +0.000 C 
ATOM      3  C   UNL     1      -0.884  10.979  19.110  0.00  0.00    +0.000 C 
ATOM      4  C   UNL     1      -0.046  12.277  19.201  0.00  0.00    +0.000 C 
ATOM      5  C   UNL     1      -0.341  13.257  18.040  0.00  0.00    +0.000 C 
ATOM      6  C   UNL     1       1.450  11.901  19.294  0.00  0.00    +0.000 C 
ATOM      7  N   UNL     1       1.877  11.163  18.102  0.00  0.00    +0.000 NA
ATOM      8  H   UNL     1       2.870  10.941  18.197  0.00  0.00    +0.000 HD
ENDROOT
BRANCH   1  12
ATOM      9  C   UNL     1       2.744   6.275  19.627  0.00  0.00    +0.000 A 
ATOM     10  C   UNL     1       1.984   7.166  20.380  0.00  0.00    +0.000 A 
ATOM     11  C   UNL     1       1.539   8.368  19.819  0.00  0.00    +0.000 A 
ATOM     12  C   UNL     1       1.864   8.727  18.496  0.00  0.00    +0.000 A 
ATOM     13  C   UNL     1       2.707   7.863  17.785  0.00  0.00    +0.000 A 
ATOM     14  C   UNL     1       3.132   6.645  18.339  0.00  0.00    +0.000 A 
BRANCH   9  16
ATOM     15  C   UNL     1       1.982   4.410  20.853  0.00  0.00    +0.000 C 
ATOM     16  O   UNL     1       3.072   5.103  20.247  0.00  0.00    +0.000 OA
ENDBRANCH   9  16
ENDBRANCH   1  12
BRANCH   6  17
ATOM     17  C   UNL     1       2.315  13.137  19.510  0.00  0.00    +0.000 A 
ATOM     18  C   UNL     1       3.083  13.653  18.454  0.00  0.00    +0.000 A 
ATOM     19  C   UNL     1       3.976  14.702  18.682  0.00  0.00    +0.000 A 
ATOM     20  C   UNL     1       4.114  15.252  19.958  0.00  0.00    +0.000 A 
ATOM     21  C   UNL     1       3.348  14.759  21.007  0.00  0.00    +0.000 A 
ATOM     22  C   UNL     1       2.446  13.722  20.779  0.00  0.00    +0.000 A 
BRANCH  20  23
ATOM     23  O   UNL     1       5.061  16.236  20.071  0.00  0.00    +0.000 OA
ATOM     24  C   UNL     1       6.410  15.802  19.933  0.00  0.00    +0.000 C 
ENDBRANCH  20  23
ENDBRANCH   6  17
BRANCH   3  25
ATOM     25  O   UNL     1      -0.778  10.283  20.359  0.00  0.00    +0.000 OA
ATOM     26  H   UNL     1       0.082   9.827  20.353  0.00  0.00    +0.000 HD
ENDBRANCH   3  25
BRANCH   3  27
ATOM     27  C   UNL     1      -2.343  11.380  18.963  0.00  0.00    +0.000 C 
ATOM     28  C   UNL     1      -3.593  11.724  18.836  0.00  0.00    +0.000 C 
BRANCH  28  29
ATOM     29  C   UNL     1      -4.966  12.118  18.763  0.00  0.00    +0.000 A 
ATOM     30  C   UNL     1      -5.610  12.213  17.529  0.00  0.00    +0.000 A 
ATOM     31  C   UNL     1      -6.950  12.601  17.468  0.00  0.00    +0.000 A 
ATOM     32  C   UNL     1      -7.646  12.897  18.641  0.00  0.00    +0.000 A 
ATOM     33  C   UNL     1      -7.005  12.803  19.876  0.00  0.00    +0.000 A 
ATOM     34  C   UNL     1      -5.664  12.414  19.936  0.00  0.00    +0.000 A 
ENDBRANCH  28  29
ENDBRANCH   3  27
TORSDOF 7
ENDMDL
MODEL 8
REMARK VINA RESULT:      -7.2      8.280     11.569
REMARK  Name = 
REMARK  10 active torsions:
REMARK  status: ('A' for Active; 'I' for Inactive)
REMARK    1  A    between atoms: C_1  and  O_2
REMARK    2  A    between atoms: O_2  and  C_3
REMARK    3  A    between atoms: C_6  and  C_7
REMARK    4  A    between atoms: C_9  and  O_10
REMARK    5  A    between atoms: C_9  and  C_11
REMARK    6  A    between atoms: C_12  and  C_13
REMARK    7  A    between atoms: C_19  and  C_20
REMARK    8  A    between atoms: C_21  and  C_22
REMARK    9  A    between atoms: C_25  and  O_26
REMARK   10  A    between atoms: O_26  and  C_27
REMARK                            x       y       z     vdW  Elec       q    Type
REMARK                         _______ _______ _______ _____ _____    ______ ____
ROOT
ATOM      1  C   UNL     1       1.109   9.985  17.880  0.00  0.00    +0.000 C 
ATOM      2  C   UNL     1      -0.421  10.129  18.082  0.00  0.00    +0.000 C 
ATOM      3  C   UNL     1      -0.841  11.080  19.208  0.00  0.00    +0.000 C 
ATOM      4  C   UNL     1       0.012  12.370  19.245  0.00  0.00    +0.000 C 
ATOM      5  C   UNL     1      -0.327  13.341  18.089  0.00  0.00    +0.000 C 
ATOM      6  C   UNL     1       1.508  11.980  19.273  0.00  0.00    +0.000 C 
ATOM      7  N   UNL     1       1.871  11.224  18.071  0.00  0.00    +0.000 NA
ATOM      8  H   UNL     1       2.866  10.994  18.121  0.00  0.00    +0.000 HD
ENDROOT
BRANCH   1  12
ATOM      9  C   UNL     1       2.776   6.326  19.551  0.00  0.00    +0.000 A 
ATOM     10  C   UNL     1       1.953   7.153  20.308  0.00  0.00    +0.000 A 
ATOM     11  C   UNL     1       1.486   8.363  19.782  0.00  0.00    +0.000 A 
ATOM     12  C   UNL     1       1.853   8.794  18.492  0.00  0.00    +0.000 A 
ATOM     13  C   UNL     1       2.757   7.994  17.781  0.00  0.00    +0.000 A 
ATOM     14  C   UNL     1       3.204   6.768  18.299  0.00  0.00    +0.000 A 
BRANCH   9  16
ATOM     15  C   UNL     1       2.158   4.602  21.037  0.00  0.00    +0.000 C 
ATOM     16  O   UNL     1       3.122   5.140  20.133  0.00  0.00    +0.000 OA
ENDBRANCH   9  16
ENDBRANCH   1  12
BRANCH   6  17
ATOM     17  C   UNL     1       2.393  13.208  19.436  0.00  0.00    +0.000 A 
ATOM     18  C   UNL     1       2.360  13.949  20.629  0.00  0.00    +0.000 A 
ATOM     19  C   UNL     1       3.068  15.148  20.733  0.00  0.00    +0.000 A 
ATOM     20  C   UNL     1       3.820  15.623  19.656  0.00  0.00    +0.000 A 
ATOM     21  C   UNL     1       3.872  14.891  18.476  0.00  0.00    +0.000 A 
ATOM     22  C   UNL     1       3.177  13.687  18.375  0.00  0.00    +0.000 A 
BRANCH  20  23
ATOM     23  O   UNL     1       4.424  16.837  19.855  0.00  0.00    +0.000 OA
ATOM     24  C   UNL     1       3.900  17.609  20.929  0.00  0.00    +0.000 C 
ENDBRANCH  20  23
ENDBRANCH   6  17
BRANCH   3  25
ATOM     25  O   UNL     1      -0.684  10.396  20.458  0.00  0.00    +0.000 OA
ATOM     26  H   UNL     1      -1.435   9.781  20.536  0.00  0.00    +0.000 HD
ENDBRANCH   3  25
BRANCH   3  27
ATOM     27  C   UNL     1      -2.301  11.494  19.124  0.00  0.00    +0.000 C 
ATOM     28  C   UNL     1      -3.553  11.850  19.053  0.00  0.00    +0.000 C 
BRANCH  28  29
ATOM     29  C   UNL     1      -4.943  12.174  18.969  0.00  0.00    +0.000 A 
ATOM     30  C   UNL     1      -5.636  12.010  17.769  0.00  0.00    +0.000 A 
ATOM     31  C   UNL     1      -6.993  12.333  17.696  0.00  0.00    +0.000 A 
ATOM     32  C   UNL     1      -7.657  12.822  18.822  0.00  0.00    +0.000 A 
ATOM     33  C   UNL     1      -6.967  12.987  20.023  0.00  0.00    +0.000 A 
ATOM     34  C   UNL     1      -5.610  12.664  20.095  0.00  0.00    +0.000 A 
ENDBRANCH  28  29
ENDBRANCH   3  27
TORSDOF 7
ENDMDL
MODEL 9
REMARK VINA RESULT:      -7.1      8.524     11.790
REMARK  Name = 
REMARK  10 active torsions:
REMARK  status: ('A' for Active; 'I' for Inactive)
REMARK    1  A    between atoms: C_1  and  O_2
REMARK    2  A    between atoms: O_2  and  C_3
REMARK    3  A    between atoms: C_6  and  C_7
REMARK    4  A    between atoms: C_9  and  O_10
REMARK    5  A    between atoms: C_9  and  C_11
REMARK    6  A    between atoms: C_12  and  C_13
REMARK    7  A    between atoms: C_19  and  C_20
REMARK    8  A    between atoms: C_21  and  C_22
REMARK    9  A    between atoms: C_25  and  O_26
REMARK   10  A    between atoms: O_26  and  C_27
REMARK                            x       y       z     vdW  Elec       q    Type
REMARK                         _______ _______ _______ _____ _____    ______ ____
ROOT
ATOM      1  C   UNL     1       0.676  10.454  18.287  0.00  0.00    +0.000 C 
ATOM      2  C   UNL     1      -0.720  10.699  18.911  0.00  0.00    +0.000 C 
ATOM      3  C   UNL     1      -0.747  11.702  20.070  0.00  0.00    +0.000 C 
ATOM      4  C   UNL     1       0.148  12.937  19.807  0.00  0.00    +0.000 C 
ATOM      5  C   UNL     1      -0.458  13.898  18.756  0.00  0.00    +0.000 C 
ATOM      6  C   UNL     1       1.565  12.454  19.423  0.00  0.00    +0.000 C 
ATOM      7  N   UNL     1       1.526  11.647  18.199  0.00  0.00    +0.000 NA
ATOM      8  H   UNL     1       2.480  11.356  17.973  0.00  0.00    +0.000 HD
ENDROOT
BRANCH   1  12
ATOM      9  C   UNL     1       2.570   6.710  19.453  0.00  0.00    +0.000 A 
ATOM     10  C   UNL     1       1.833   7.459  20.366  0.00  0.00    +0.000 A 
ATOM     11  C   UNL     1       1.295   8.697  19.996  0.00  0.00    +0.000 A 
ATOM     12  C   UNL     1       1.501   9.234  18.710  0.00  0.00    +0.000 A 
ATOM     13  C   UNL     1       2.323   8.510  17.836  0.00  0.00    +0.000 A 
ATOM     14  C   UNL     1       2.842   7.257  18.199  0.00  0.00    +0.000 A 
BRANCH   9  16
ATOM     15  C   UNL     1       2.129   4.844  20.825  0.00  0.00    +0.000 C 
ATOM     16  O   UNL     1       2.995   5.489  19.894  0.00  0.00    +0.000 OA
ENDBRANCH   9  16
ENDBRANCH   1  12
BRANCH   6  17
ATOM     17  C   UNL     1       2.524  13.628  19.274  0.00  0.00    +0.000 A 
ATOM     18  C   UNL     1       2.723  14.516  20.344  0.00  0.00    +0.000 A 
ATOM     19  C   UNL     1       3.496  15.666  20.169  0.00  0.00    +0.000 A 
ATOM     20  C   UNL     1       4.083  15.945  18.932  0.00  0.00    +0.000 A 
ATOM     21  C   UNL     1       3.905  15.066  17.871  0.00  0.00    +0.000 A 
ATOM     22  C   UNL     1       3.145  13.911  18.048  0.00  0.00    +0.000 A 
BRANCH  20  23
ATOM     23  O   UNL     1       4.769  17.129  18.865  0.00  0.00    +0.000 OA
ATOM     24  C   UNL     1       6.185  17.018  18.949  0.00  0.00    +0.000 C 
ENDBRANCH  20  23
ENDBRANCH   6  17
BRANCH   3  25
ATOM     25  O   UNL     1      -0.274  11.041  21.250  0.00  0.00    +0.000 OA
ATOM     26  H   UNL     1       0.595  10.663  21.029  0.00  0.00    +0.000 HD
ENDBRANCH   3  25
BRANCH   3  27
ATOM     27  C   UNL     1      -2.146  12.205  20.389  0.00  0.00    +0.000 C 
ATOM     28  C   UNL     1      -3.345  12.636  20.664  0.00  0.00    +0.000 C 
BRANCH  28  29
ATOM     29  C   UNL     1      -4.683  13.079  20.909  0.00  0.00    +0.000 A 
ATOM     30  C   UNL     1      -5.767  12.256  20.602  0.00  0.00    +0.000 A 
ATOM     31  C   UNL     1      -7.070  12.699  20.842  0.00  0.00    +0.000 A 
ATOM     32  C   UNL     1      -7.288  13.965  21.387  0.00  0.00    +0.000 A 
ATOM     33  C   UNL     1      -6.207  14.790  21.695  0.00  0.00    +0.000 A 
ATOM     34  C   UNL     1      -4.904  14.346  21.455  0.00  0.00    +0.000 A 
ENDBRANCH  28  29
ENDBRANCH   3  27
TORSDOF 7
ENDMDL
