MODEL 1
REMARK VINA RESULT:      -7.4      0.000      0.000
REMARK  Name = 
REMARK  4 active torsions:
REMARK  status: ('A' for Active; 'I' for Inactive)
REMARK    1  A    between atoms: C_1  and  C_2
REMARK    2  A    between atoms: C_2  and  C_3
REMARK    3  A    between atoms: C_2  and  C_4
REMARK    4  A    between atoms: N_7  and  C_8
REMARK                            x       y       z     vdW  Elec       q    Type
REMARK                         _______ _______ _______ _____ _____    ______ ____
ROOT
ATOM      1  C   UNL     1       6.994   6.064  16.744  0.00  0.00    +0.000 C 
ATOM      2  S   UNL     1       5.216   6.435  16.637  0.00  0.00    +0.000 S 
ATOM      3  C   UNL     1       4.866   5.106  17.710  0.00  0.00    +0.000 C 
ATOM      4  N   UNL     1       3.572   5.052  18.121  0.00  0.00    +0.000 N 
ATOM      5  N   UNL     1       5.834   4.321  18.015  0.00  0.00    +0.000 NA
ATOM      6  C   UNL     1       7.037   4.713  17.460  0.00  0.00    +0.000 C 
ATOM      7  O   UNL     1       8.074   4.067  17.562  0.00  0.00    +0.000 OA
ATOM      8  H   UNL     1       2.960   5.783  17.782  0.00  0.00    +0.000 HD
ENDROOT
BRANCH   4   9
ATOM      9  C   UNL     1       2.978   3.941  18.833  0.00  0.00    +0.000 C 
ATOM     10  C   UNL     1       1.452   3.883  18.617  0.00  0.00    +0.000 C 
ATOM     11  C   UNL     1       0.887   3.987  20.045  0.00  0.00    +0.000 C 
ATOM     12  C   UNL     1       1.223   2.698  20.815  0.00  0.00    +0.000 C 
ATOM     13  C   UNL     1       2.732   2.830  21.068  0.00  0.00    +0.000 C 
ATOM     14  C   UNL     1       3.084   4.155  20.366  0.00  0.00    +0.000 C 
ATOM     15  C   UNL     1       1.841   4.992  20.685  0.00  0.00    +0.000 C 
ENDBRANCH   4   9
BRANCH   1  17
ATOM     16  C   UNL     1       7.156   8.522  17.401  0.00  0.00    +0.000 C 
ATOM     17  C   UNL     1       7.823   7.142  17.473  0.00  0.00    +0.000 C 
ATOM     18  C   UNL     1       8.134   6.805  18.939  0.00  0.00    +0.000 C 
ENDBRANCH   1  17
TORSDOF 2
ENDMDL
MODEL 2
REMARK VINA RESULT:      -7.2      1.383      1.479
REMARK  Name = 
REMARK  4 active torsions:
REMARK  status: ('A' for Active; 'I' for Inactive)
REMARK    1  A    between atoms: C_1  and  C_2
REMARK    2  A    between atoms: C_2  and  C_3
REMARK    3  A    between atoms: C_2  and  C_4
REMARK    4  A    between atoms: N_7  and  C_8
REMARK                            x       y       z     vdW  Elec       q    Type
REMARK                         _______ _______ _______ _____ _____    ______ ____
ROOT
ATOM      1  C   UNL     1       7.095   5.258  17.363  0.00  0.00    +0.000 C 
ATOM      2  S   UNL     1       5.757   4.239  16.668  0.00  0.00    +0.000 S 
ATOM      3  C   UNL     1       5.108   3.987  18.266  0.00  0.00    +0.000 C 
ATOM      4  N   UNL     1       3.896   3.373  18.282  0.00  0.00    +0.000 N 
ATOM      5  N   UNL     1       5.807   4.399  19.260  0.00  0.00    +0.000 NA
ATOM      6  C   UNL     1       6.969   5.039  18.871  0.00  0.00    +0.000 C 
ATOM      7  O   UNL     1       7.817   5.443  19.658  0.00  0.00    +0.000 OA
ATOM      8  H   UNL     1       3.495   3.143  17.382  0.00  0.00    +0.000 HD
ENDROOT
BRANCH   4   9
ATOM      9  C   UNL     1       3.245   2.862  19.469  0.00  0.00    +0.000 C 
ATOM     10  C   UNL     1       1.924   2.144  19.124  0.00  0.00    +0.000 C 
ATOM     11  C   UNL     1       0.873   2.931  19.928  0.00  0.00    +0.000 C 
ATOM     12  C   UNL     1       1.084   2.663  21.429  0.00  0.00    +0.000 C 
ATOM     13  C   UNL     1       2.366   3.448  21.743  0.00  0.00    +0.000 C 
ATOM     14  C   UNL     1       2.760   4.026  20.371  0.00  0.00    +0.000 C 
ATOM     15  C   UNL     1       1.382   4.363  19.791  0.00  0.00    +0.000 C 
ENDBRANCH   4   9
BRANCH   1  17
ATOM     16  C   UNL     1       5.575   7.272  16.993  0.00  0.00    +0.000 C 
ATOM     17  C   UNL     1       7.019   6.751  16.978  0.00  0.00    +0.000 C 
ATOM     18  C   UNL     1       7.897   7.664  17.846  0.00  0.00    +0.000 C 
ENDBRANCH   1  17
TORSDOF 2
ENDMDL
MODEL 3
REMARK VINA RESULT:      -7.2      1.063      1.130
REMARK  Name = 
REMARK  4 active torsions:
REMARK  status: ('A' for Active; 'I' for Inactive)
REMARK    1  A    between atoms: C_1  and  C_2
REMARK    2  A    between atoms: C_2  and  C_3
REMARK    3  A    between atoms: C_2  and  C_4
REMARK    4  A    between atoms: N_7  and  C_8
REMARK                            x       y       z     vdW  Elec       q    Type
REMARK                         _______ _______ _______ _____ _____    ______ ____
ROOT
ATOM      1  C   UNL     1       6.960   6.540  16.580  0.00  0.00    +0.000 C 
ATOM      2  S   UNL     1       5.238   7.042  16.893  0.00  0.00    +0.000 S 
ATOM      3  C   UNL     1       4.798   5.380  17.182  0.00  0.00    +0.000 C 
ATOM      4  N   UNL     1       3.538   5.217  17.664  0.00  0.00    +0.000 N 
ATOM      5  N   UNL     1       5.678   4.482  16.928  0.00  0.00    +0.000 NA
ATOM      6  C   UNL     1       6.881   5.015  16.505  0.00  0.00    +0.000 C 
ATOM      7  O   UNL     1       7.833   4.334  16.139  0.00  0.00    +0.000 OA
ATOM      8  H   UNL     1       3.001   6.060  17.818  0.00  0.00    +0.000 HD
ENDROOT
BRANCH   4   9
ATOM      9  C   UNL     1       2.859   3.945  17.784  0.00  0.00    +0.000 C 
ATOM     10  C   UNL     1       1.328   4.124  17.821  0.00  0.00    +0.000 C 
ATOM     11  C   UNL     1       0.929   3.491  19.167  0.00  0.00    +0.000 C 
ATOM     12  C   UNL     1       1.144   1.969  19.092  0.00  0.00    +0.000 C 
ATOM     13  C   UNL     1       2.674   1.835  19.126  0.00  0.00    +0.000 C 
ATOM     14  C   UNL     1       3.147   3.300  19.165  0.00  0.00    +0.000 C 
ATOM     15  C   UNL     1       2.081   3.926  20.069  0.00  0.00    +0.000 C 
ENDBRANCH   4   9
BRANCH   1  17
ATOM     16  C   UNL     1       7.882   8.542  17.861  0.00  0.00    +0.000 C 
ATOM     17  C   UNL     1       7.964   7.024  17.646  0.00  0.00    +0.000 C 
ATOM     18  C   UNL     1       7.829   6.313  19.000  0.00  0.00    +0.000 C 
ENDBRANCH   1  17
TORSDOF 2
ENDMDL
MODEL 4
REMARK VINA RESULT:      -7.0      2.233      3.209
REMARK  Name = 
REMARK  4 active torsions:
REMARK  status: ('A' for Active; 'I' for Inactive)
REMARK    1  A    between atoms: C_1  and  C_2
REMARK    2  A    between atoms: C_2  and  C_3
REMARK    3  A    between atoms: C_2  and  C_4
REMARK    4  A    between atoms: N_7  and  C_8
REMARK                            x       y       z     vdW  Elec       q    Type
REMARK                         _______ _______ _______ _____ _____    ______ ____
ROOT
ATOM      1  C   UNL     1       6.961   5.434  15.750  0.00  0.00    +0.000 C 
ATOM      2  S   UNL     1       7.175   4.423  17.248  0.00  0.00    +0.000 S 
ATOM      3  C   UNL     1       5.472   4.557  17.592  0.00  0.00    +0.000 C 
ATOM      4  N   UNL     1       5.048   3.764  18.610  0.00  0.00    +0.000 N 
ATOM      5  N   UNL     1       4.784   5.364  16.870  0.00  0.00    +0.000 NA
ATOM      6  C   UNL     1       5.534   5.967  15.877  0.00  0.00    +0.000 C 
ATOM      7  O   UNL     1       5.094   6.827  15.123  0.00  0.00    +0.000 OA
ATOM      8  H   UNL     1       5.747   3.177  19.046  0.00  0.00    +0.000 HD
ENDROOT
BRANCH   4   9
ATOM      9  C   UNL     1       3.743   3.843  19.229  0.00  0.00    +0.000 C 
ATOM     10  C   UNL     1       3.470   2.621  20.130  0.00  0.00    +0.000 C 
ATOM     11  C   UNL     1       2.197   2.007  19.519  0.00  0.00    +0.000 C 
ATOM     12  C   UNL     1       1.010   2.953  19.773  0.00  0.00    +0.000 C 
ATOM     13  C   UNL     1       1.285   4.118  18.811  0.00  0.00    +0.000 C 
ATOM     14  C   UNL     1       2.624   3.719  18.162  0.00  0.00    +0.000 C 
ATOM     15  C   UNL     1       2.441   2.204  18.025  0.00  0.00    +0.000 C 
ENDBRANCH   4   9
BRANCH   1  17
ATOM     16  C   UNL     1       5.894   4.014  13.921  0.00  0.00    +0.000 C 
ATOM     17  C   UNL     1       7.186   4.666  14.430  0.00  0.00    +0.000 C 
ATOM     18  C   UNL     1       7.800   5.518  13.310  0.00  0.00    +0.000 C 
ENDBRANCH   1  17
TORSDOF 2
ENDMDL
MODEL 5
REMARK VINA RESULT:      -7.0      2.157      3.000
REMARK  Name = 
REMARK  4 active torsions:
REMARK  status: ('A' for Active; 'I' for Inactive)
REMARK    1  A    between atoms: C_1  and  C_2
REMARK    2  A    between atoms: C_2  and  C_3
REMARK    3  A    between atoms: C_2  and  C_4
REMARK    4  A    between atoms: N_7  and  C_8
REMARK                            x       y       z     vdW  Elec       q    Type
REMARK                         _______ _______ _______ _____ _____    ______ ____
ROOT
ATOM      1  C   UNL     1       6.829   5.449  15.836  0.00  0.00    +0.000 C 
ATOM      2  S   UNL     1       6.788   4.445  17.354  0.00  0.00    +0.000 S 
ATOM      3  C   UNL     1       5.061   4.658  17.458  0.00  0.00    +0.000 C 
ATOM      4  N   UNL     1       4.465   3.895  18.411  0.00  0.00    +0.000 N 
ATOM      5  N   UNL     1       4.517   5.488  16.644  0.00  0.00    +0.000 NA
ATOM      6  C   UNL     1       5.424   6.046  15.762  0.00  0.00    +0.000 C 
ATOM      7  O   UNL     1       5.131   6.917  14.951  0.00  0.00    +0.000 OA
ATOM      8  H   UNL     1       5.070   3.282  18.942  0.00  0.00    +0.000 HD
ENDROOT
BRANCH   4   9
ATOM      9  C   UNL     1       3.092   4.038  18.842  0.00  0.00    +0.000 C 
ATOM     10  C   UNL     1       2.982   4.940  20.089  0.00  0.00    +0.000 C 
ATOM     11  C   UNL     1       2.314   4.024  21.131  0.00  0.00    +0.000 C 
ATOM     12  C   UNL     1       0.857   3.761  20.709  0.00  0.00    +0.000 C 
ATOM     13  C   UNL     1       1.011   2.810  19.513  0.00  0.00    +0.000 C 
ATOM     14  C   UNL     1       2.539   2.687  19.366  0.00  0.00    +0.000 C 
ATOM     15  C   UNL     1       2.974   2.680  20.835  0.00  0.00    +0.000 C 
ENDBRANCH   4   9
BRANCH   1  17
ATOM     16  C   UNL     1       5.984   3.936  13.966  0.00  0.00    +0.000 C 
ATOM     17  C   UNL     1       7.199   4.658  14.564  0.00  0.00    +0.000 C 
ATOM     18  C   UNL     1       7.871   5.508  13.475  0.00  0.00    +0.000 C 
ENDBRANCH   1  17
TORSDOF 2
ENDMDL
MODEL 6
REMARK VINA RESULT:      -6.7      0.875      1.415
REMARK  Name = 
REMARK  4 active torsions:
REMARK  status: ('A' for Active; 'I' for Inactive)
REMARK    1  A    between atoms: C_1  and  C_2
REMARK    2  A    between atoms: C_2  and  C_3
REMARK    3  A    between atoms: C_2  and  C_4
REMARK    4  A    between atoms: N_7  and  C_8
REMARK                            x       y       z     vdW  Elec       q    Type
REMARK                         _______ _______ _______ _____ _____    ______ ____
ROOT
ATOM      1  C   UNL     1       6.943   6.577  16.863  0.00  0.00    +0.000 C 
ATOM      2  S   UNL     1       5.247   7.045  17.330  0.00  0.00    +0.000 S 
ATOM      3  C   UNL     1       5.001   5.474  18.043  0.00  0.00    +0.000 C 
ATOM      4  N   UNL     1       3.844   5.359  18.746  0.00  0.00    +0.000 N 
ATOM      5  N   UNL     1       5.912   4.590  17.855  0.00  0.00    +0.000 NA
ATOM      6  C   UNL     1       6.990   5.074  17.138  0.00  0.00    +0.000 C 
ATOM      7  O   UNL     1       7.935   4.379  16.783  0.00  0.00    +0.000 OA
ATOM      8  H   UNL     1       3.262   6.185  18.794  0.00  0.00    +0.000 HD
ENDROOT
BRANCH   4   9
ATOM      9  C   UNL     1       3.305   4.115  19.250  0.00  0.00    +0.000 C 
ATOM     10  C   UNL     1       3.450   2.977  18.218  0.00  0.00    +0.000 C 
ATOM     11  C   UNL     1       1.998   2.520  17.989  0.00  0.00    +0.000 C 
ATOM     12  C   UNL     1       1.480   1.829  19.263  0.00  0.00    +0.000 C 
ATOM     13  C   UNL     1       1.287   3.000  20.237  0.00  0.00    +0.000 C 
ATOM     14  C   UNL     1       1.766   4.212  19.416  0.00  0.00    +0.000 C 
ATOM     15  C   UNL     1       1.243   3.846  18.024  0.00  0.00    +0.000 C 
ENDBRANCH   4   9
BRANCH   1  17
ATOM     16  C   UNL     1       7.767   8.857  17.651  0.00  0.00    +0.000 C 
ATOM     17  C   UNL     1       8.044   7.348  17.620  0.00  0.00    +0.000 C 
ATOM     18  C   UNL     1       8.283   6.847  19.052  0.00  0.00    +0.000 C 
ENDBRANCH   1  17
TORSDOF 2
ENDMDL
MODEL 7
REMARK VINA RESULT:      -6.6      2.446      6.227
REMARK  Name = 
REMARK  4 active torsions:
REMARK  status: ('A' for Active; 'I' for Inactive)
REMARK    1  A    between atoms: C_1  and  C_2
REMARK    2  A    between atoms: C_2  and  C_3
REMARK    3  A    between atoms: C_2  and  C_4
REMARK    4  A    between atoms: N_7  and  C_8
REMARK                            x       y       z     vdW  Elec       q    Type
REMARK                         _______ _______ _______ _____ _____    ______ ____
ROOT
ATOM      1  C   UNL     1       1.843   2.384  19.029  0.00  0.00    +0.000 C 
ATOM      2  S   UNL     1       3.591   1.944  19.280  0.00  0.00    +0.000 S 
ATOM      3  C   UNL     1       4.082   3.337  18.353  0.00  0.00    +0.000 C 
ATOM      4  N   UNL     1       5.418   3.581  18.386  0.00  0.00    +0.000 N 
ATOM      5  N   UNL     1       3.165   3.995  17.744  0.00  0.00    +0.000 NA
ATOM      6  C   UNL     1       1.898   3.496  17.982  0.00  0.00    +0.000 C 
ATOM      7  O   UNL     1       0.887   3.928  17.440  0.00  0.00    +0.000 OA
ATOM      8  H   UNL     1       5.978   2.952  18.946  0.00  0.00    +0.000 HD
ENDROOT
BRANCH   4   9
ATOM      9  C   UNL     1       6.104   4.535  17.542  0.00  0.00    +0.000 C 
ATOM     10  C   UNL     1       7.605   4.617  17.885  0.00  0.00    +0.000 C 
ATOM     11  C   UNL     1       7.804   6.098  18.255  0.00  0.00    +0.000 C 
ATOM     12  C   UNL     1       7.644   6.959  16.990  0.00  0.00    +0.000 C 
ATOM     13  C   UNL     1       6.133   6.905  16.724  0.00  0.00    +0.000 C 
ATOM     14  C   UNL     1       5.620   5.977  17.841  0.00  0.00    +0.000 C 
ATOM     15  C   UNL     1       6.514   6.407  19.009  0.00  0.00    +0.000 C 
ENDBRANCH   4   9
BRANCH   1  17
ATOM     16  C   UNL     1       1.803   2.293  21.576  0.00  0.00    +0.000 C 
ATOM     17  C   UNL     1       1.109   2.822  20.313  0.00  0.00    +0.000 C 
ATOM     18  C   UNL     1       0.920   4.340  20.436  0.00  0.00    +0.000 C 
ENDBRANCH   1  17
TORSDOF 2
ENDMDL
MODEL 8
REMARK VINA RESULT:      -6.5      1.171      1.409
REMARK  Name = 
REMARK  4 active torsions:
REMARK  status: ('A' for Active; 'I' for Inactive)
REMARK    1  A    between atoms: C_1  and  C_2
REMARK    2  A    between atoms: C_2  and  C_3
REMARK    3  A    between atoms: C_2  and  C_4
REMARK    4  A    between atoms: N_7  and  C_8
REMARK                            x       y       z     vdW  Elec       q    Type
REMARK                         _______ _______ _______ _____ _____    ______ ____
ROOT
ATOM      1  C   UNL     1       6.130   6.277  16.595  0.00  0.00    +0.000 C 
ATOM      2  S   UNL     1       4.678   7.112  17.309  0.00  0.00    +0.000 S 
ATOM      3  C   UNL     1       3.993   5.569  17.740  0.00  0.00    +0.000 C 
ATOM      4  N   UNL     1       2.885   5.655  18.521  0.00  0.00    +0.000 N 
ATOM      5  N   UNL     1       4.581   4.517  17.301  0.00  0.00    +0.000 NA
ATOM      6  C   UNL     1       5.726   4.803  16.581  0.00  0.00    +0.000 C 
ATOM      7  O   UNL     1       6.398   3.952  16.011  0.00  0.00    +0.000 OA
ATOM      8  H   UNL     1       2.586   6.585  18.781  0.00  0.00    +0.000 HD
ENDROOT
BRANCH   4   9
ATOM      9  C   UNL     1       2.011   4.545  18.838  0.00  0.00    +0.000 C 
ATOM     10  C   UNL     1       1.225   4.800  20.141  0.00  0.00    +0.000 C 
ATOM     11  C   UNL     1       1.636   3.618  21.039  0.00  0.00    +0.000 C 
ATOM     12  C   UNL     1       1.038   2.320  20.468  0.00  0.00    +0.000 C 
ATOM     13  C   UNL     1       1.891   2.069  19.216  0.00  0.00    +0.000 C 
ATOM     14  C   UNL     1       2.838   3.283  19.196  0.00  0.00    +0.000 C 
ATOM     15  C   UNL     1       3.114   3.461  20.692  0.00  0.00    +0.000 C 
ENDBRANCH   4   9
BRANCH   1  17
ATOM     16  C   UNL     1       7.729   8.016  17.555  0.00  0.00    +0.000 C 
ATOM     17  C   UNL     1       7.443   6.519  17.368  0.00  0.00    +0.000 C 
ATOM     18  C   UNL     1       7.502   5.818  18.733  0.00  0.00    +0.000 C 
ENDBRANCH   1  17
TORSDOF 2
ENDMDL
MODEL 9
REMARK VINA RESULT:      -6.5      4.368      5.971
REMARK  Name = 
REMARK  4 active torsions:
REMARK  status: ('A' for Active; 'I' for Inactive)
REMARK    1  A    between atoms: C_1  and  C_2
REMARK    2  A    between atoms: C_2  and  C_3
REMARK    3  A    between atoms: C_2  and  C_4
REMARK    4  A    between atoms: N_7  and  C_8
REMARK                            x       y       z     vdW  Elec       q    Type
REMARK                         _______ _______ _______ _____ _____    ______ ____
ROOT
ATOM      1  C   UNL     1       0.939   9.938  19.622  0.00  0.00    +0.000 C 
ATOM      2  S   UNL     1       1.727   9.283  18.118  0.00  0.00    +0.000 S 
ATOM      3  C   UNL     1       2.081   7.789  18.943  0.00  0.00    +0.000 C 
ATOM      4  N   UNL     1       2.559   6.809  18.133  0.00  0.00    +0.000 N 
ATOM      5  N   UNL     1       1.857   7.744  20.206  0.00  0.00    +0.000 NA
ATOM      6  C   UNL     1       1.307   8.914  20.695  0.00  0.00    +0.000 C 
ATOM      7  O   UNL     1       1.084   9.112  21.884  0.00  0.00    +0.000 OA
ATOM      8  H   UNL     1       2.646   7.036  17.152  0.00  0.00    +0.000 HD
ENDROOT
BRANCH   4   9
ATOM      9  C   UNL     1       3.124   5.560  18.596  0.00  0.00    +0.000 C 
ATOM     10  C   UNL     1       3.956   4.873  17.493  0.00  0.00    +0.000 C 
ATOM     11  C   UNL     1       3.264   3.508  17.325  0.00  0.00    +0.000 C 
ATOM     12  C   UNL     1       3.511   2.661  18.586  0.00  0.00    +0.000 C 
ATOM     13  C   UNL     1       2.616   3.335  19.636  0.00  0.00    +0.000 C 
ATOM     14  C   UNL     1       2.007   4.518  18.860  0.00  0.00    +0.000 C 
ATOM     15  C   UNL     1       1.793   3.882  17.482  0.00  0.00    +0.000 C 
ENDBRANCH   4   9
BRANCH   1  17
ATOM     16  C   UNL     1      -1.052  11.416  20.215  0.00  0.00    +0.000 C 
ATOM     17  C   UNL     1      -0.586  10.140  19.501  0.00  0.00    +0.000 C 
ATOM     18  C   UNL     1      -1.101  10.151  18.054  0.00  0.00    +0.000 C 
ENDBRANCH   1  17
TORSDOF 2
ENDMDL
