MODEL 1
REMARK VINA RESULT:      -7.3      0.000      0.000
REMARK  Name = 
REMARK  8 active torsions:
REMARK  status: ('A' for Active; 'I' for Inactive)
REMARK    1  A    between atoms: C_1  and  O_2
REMARK    2  A    between atoms: O_2  and  C_3
REMARK    3  A    between atoms: C_5  and  C_6
REMARK    4  A    between atoms: N_13  and  C_14
REMARK    5  A    between atoms: C_24  and  O_25
REMARK    6  A    between atoms: O_25  and  C_26
REMARK    7  A    between atoms: C_27  and  O_28
REMARK    8  A    between atoms: O_28  and  C_29
REMARK                            x       y       z     vdW  Elec       q    Type
REMARK                         _______ _______ _______ _____ _____    ______ ____
ROOT
ATOM      1  C   UNL     1      -0.398  10.910  22.488  0.00  0.00    +0.000 A 
ATOM      2  N   UNL     1       0.232  10.247  23.448  0.00  0.00    +0.000 NA
ATOM      3  N   UNL     1       0.955   9.222  22.871  0.00  0.00    +0.000 NA
ATOM      4  C   UNL     1       0.744   9.283  21.581  0.00  0.00    +0.000 A 
ATOM      5  N   UNL     1      -0.118  10.301  21.271  0.00  0.00    +0.000 N 
ATOM      6  N   UNL     1      -0.660  10.623  20.055  0.00  0.00    +0.000 NA
ATOM      7  C   UNL     1      -0.048  10.197  18.979  0.00  0.00    +0.000 C 
ATOM      8  N   UNL     1      -0.556  10.485  17.724  0.00  0.00    +0.000 N 
ATOM      9  C   UNL     1       1.319   9.505  19.016  0.00  0.00    +0.000 C 
ATOM     10  S   UNL     1       1.382   8.272  20.340  0.00  0.00    +0.000 S 
ATOM     11  H   UNL     1       0.052  10.426  16.916  0.00  0.00    +0.000 HD
ENDROOT
BRANCH   8  12
ATOM     12  C   UNL     1      -1.913  10.703  17.408  0.00  0.00    +0.000 A 
ATOM     13  C   UNL     1      -2.766  11.443  18.241  0.00  0.00    +0.000 A 
ATOM     14  C   UNL     1      -4.093  11.699  17.881  0.00  0.00    +0.000 A 
ATOM     15  C   UNL     1      -4.582  11.237  16.663  0.00  0.00    +0.000 A 
ATOM     16  C   UNL     1      -3.741  10.520  15.826  0.00  0.00    +0.000 A 
ATOM     17  F   UNL     1      -4.198  10.098  14.639  0.00  0.00    +0.000 F 
ATOM     18  C   UNL     1      -2.422  10.241  16.186  0.00  0.00    +0.000 A 
ENDBRANCH   8  12
BRANCH   1  21
ATOM     19  C   UNL     1      -1.737  14.439  22.289  0.00  0.00    +0.000 A 
ATOM     20  C   UNL     1      -0.846  13.360  22.383  0.00  0.00    +0.000 A 
ATOM     21  C   UNL     1      -1.288  12.066  22.654  0.00  0.00    +0.000 A 
ATOM     22  C   UNL     1      -2.619  11.901  23.029  0.00  0.00    +0.000 A 
ATOM     23  C   UNL     1      -3.514  12.989  23.057  0.00  0.00    +0.000 A 
ATOM     24  C   UNL     1      -3.084  14.275  22.661  0.00  0.00    +0.000 A 
BRANCH  19  26
ATOM     25  C   UNL     1      -0.952  15.721  20.465  0.00  0.00    +0.000 C 
ATOM     26  O   UNL     1      -1.261  15.655  21.862  0.00  0.00    +0.000 OA
ENDBRANCH  19  26
BRANCH  23  27
ATOM     27  O   UNL     1      -4.765  12.588  23.459  0.00  0.00    +0.000 OA
ATOM     28  C   UNL     1      -4.998  12.276  24.822  0.00  0.00    +0.000 C 
ENDBRANCH  23  27
BRANCH  24  29
ATOM     29  O   UNL     1      -4.026  15.270  22.682  0.00  0.00    +0.000 OA
ATOM     30  C   UNL     1      -4.941  15.413  21.608  0.00  0.00    +0.000 C 
ENDBRANCH  24  29
ENDBRANCH   1  21
TORSDOF 5
ENDMDL
MODEL 2
REMARK VINA RESULT:      -7.2      1.180      1.500
REMARK  Name = 
REMARK  8 active torsions:
REMARK  status: ('A' for Active; 'I' for Inactive)
REMARK    1  A    between atoms: C_1  and  O_2
REMARK    2  A    between atoms: O_2  and  C_3
REMARK    3  A    between atoms: C_5  and  C_6
REMARK    4  A    between atoms: N_13  and  C_14
REMARK    5  A    between atoms: C_24  and  O_25
REMARK    6  A    between atoms: O_25  and  C_26
REMARK    7  A    between atoms: C_27  and  O_28
REMARK    8  A    between atoms: O_28  and  C_29
REMARK                            x       y       z     vdW  Elec       q    Type
REMARK                         _______ _______ _______ _____ _____    ______ ____
ROOT
ATOM      1  C   UNL     1      -0.282  10.749  22.463  0.00  0.00    +0.000 A 
ATOM      2  N   UNL     1       0.355  10.021  23.371  0.00  0.00    +0.000 NA
ATOM      3  N   UNL     1       1.053   9.022  22.722  0.00  0.00    +0.000 NA
ATOM      4  C   UNL     1       0.819   9.162  21.442  0.00  0.00    +0.000 A 
ATOM      5  N   UNL     1      -0.033  10.207  21.207  0.00  0.00    +0.000 N 
ATOM      6  N   UNL     1      -0.591  10.607  20.022  0.00  0.00    +0.000 NA
ATOM      7  C   UNL     1      -0.005  10.237  18.913  0.00  0.00    +0.000 C 
ATOM      8  N   UNL     1      -0.531  10.604  17.686  0.00  0.00    +0.000 N 
ATOM      9  C   UNL     1       1.352   9.526  18.883  0.00  0.00    +0.000 C 
ATOM     10  S   UNL     1       1.421   8.217  20.132  0.00  0.00    +0.000 S 
ATOM     11  H   UNL     1       0.061  10.585  16.865  0.00  0.00    +0.000 HD
ENDROOT
BRANCH   8  12
ATOM     12  C   UNL     1      -1.891  10.859  17.408  0.00  0.00    +0.000 A 
ATOM     13  C   UNL     1      -2.514  10.400  16.238  0.00  0.00    +0.000 A 
ATOM     14  C   UNL     1      -3.877  10.611  16.008  0.00  0.00    +0.000 A 
ATOM     15  C   UNL     1      -4.648  11.266  16.964  0.00  0.00    +0.000 A 
ATOM     16  C   UNL     1      -4.043  11.708  18.131  0.00  0.00    +0.000 A 
ATOM     17  F   UNL     1      -4.787  12.313  19.067  0.00  0.00    +0.000 F 
ATOM     18  C   UNL     1      -2.679  11.520  18.360  0.00  0.00    +0.000 A 
ENDBRANCH   8  12
BRANCH   1  21
ATOM     19  C   UNL     1      -1.551  14.308  22.539  0.00  0.00    +0.000 A 
ATOM     20  C   UNL     1      -0.682  13.207  22.555  0.00  0.00    +0.000 A 
ATOM     21  C   UNL     1      -1.152  11.904  22.713  0.00  0.00    +0.000 A 
ATOM     22  C   UNL     1      -2.492  11.736  23.056  0.00  0.00    +0.000 A 
ATOM     23  C   UNL     1      -3.366  12.835  23.163  0.00  0.00    +0.000 A 
ATOM     24  C   UNL     1      -2.905  14.142  22.880  0.00  0.00    +0.000 A 
BRANCH  19  26
ATOM     25  C   UNL     1      -0.139  16.090  23.185  0.00  0.00    +0.000 C 
ATOM     26  O   UNL     1      -1.046  15.545  22.220  0.00  0.00    +0.000 OA
ENDBRANCH  19  26
BRANCH  23  27
ATOM     27  O   UNL     1      -4.630  12.429  23.514  0.00  0.00    +0.000 OA
ATOM     28  C   UNL     1      -4.978  12.323  24.884  0.00  0.00    +0.000 C 
ENDBRANCH  23  27
BRANCH  24  29
ATOM     29  O   UNL     1      -3.829  15.150  22.971  0.00  0.00    +0.000 OA
ATOM     30  C   UNL     1      -3.970  15.886  24.175  0.00  0.00    +0.000 C 
ENDBRANCH  24  29
ENDBRANCH   1  21
TORSDOF 5
ENDMDL
MODEL 3
REMARK VINA RESULT:      -7.2      0.589      2.407
REMARK  Name = 
REMARK  8 active torsions:
REMARK  status: ('A' for Active; 'I' for Inactive)
REMARK    1  A    between atoms: C_1  and  O_2
REMARK    2  A    between atoms: O_2  and  C_3
REMARK    3  A    between atoms: C_5  and  C_6
REMARK    4  A    between atoms: N_13  and  C_14
REMARK    5  A    between atoms: C_24  and  O_25
REMARK    6  A    between atoms: O_25  and  C_26
REMARK    7  A    between atoms: C_27  and  O_28
REMARK    8  A    between atoms: O_28  and  C_29
REMARK                            x       y       z     vdW  Elec       q    Type
REMARK                         _______ _______ _______ _____ _____    ______ ____
ROOT
ATOM      1  C   UNL     1      -0.426  10.938  22.420  0.00  0.00    +0.000 A 
ATOM      2  N   UNL     1       0.200  10.285  23.390  0.00  0.00    +0.000 NA
ATOM      3  N   UNL     1       0.930   9.257  22.828  0.00  0.00    +0.000 NA
ATOM      4  C   UNL     1       0.727   9.307  21.536  0.00  0.00    +0.000 A 
ATOM      5  N   UNL     1      -0.137  10.318  21.210  0.00  0.00    +0.000 N 
ATOM      6  N   UNL     1      -0.671  10.627  19.988  0.00  0.00    +0.000 NA
ATOM      7  C   UNL     1      -0.051  10.193  18.920  0.00  0.00    +0.000 C 
ATOM      8  N   UNL     1      -0.552  10.467  17.660  0.00  0.00    +0.000 N 
ATOM      9  C   UNL     1       1.318   9.507  18.972  0.00  0.00    +0.000 C 
ATOM     10  S   UNL     1       1.378   8.287  20.308  0.00  0.00    +0.000 S 
ATOM     11  H   UNL     1       0.061  10.404  16.855  0.00  0.00    +0.000 HD
ENDROOT
BRANCH   8  12
ATOM     12  C   UNL     1      -1.908  10.678  17.332  0.00  0.00    +0.000 A 
ATOM     13  C   UNL     1      -2.769  11.422  18.153  0.00  0.00    +0.000 A 
ATOM     14  C   UNL     1      -4.095  11.670  17.783  0.00  0.00    +0.000 A 
ATOM     15  C   UNL     1      -4.574  11.195  16.566  0.00  0.00    +0.000 A 
ATOM     16  C   UNL     1      -3.725  10.473  15.741  0.00  0.00    +0.000 A 
ATOM     17  F   UNL     1      -4.173  10.038  14.555  0.00  0.00    +0.000 F 
ATOM     18  C   UNL     1      -2.407  10.203  16.112  0.00  0.00    +0.000 A 
ENDBRANCH   8  12
BRANCH   1  21
ATOM     19  C   UNL     1      -3.504  12.986  23.205  0.00  0.00    +0.000 A 
ATOM     20  C   UNL     1      -2.684  11.919  22.809  0.00  0.00    +0.000 A 
ATOM     21  C   UNL     1      -1.321  12.091  22.570  0.00  0.00    +0.000 A 
ATOM     22  C   UNL     1      -0.829  13.394  22.539  0.00  0.00    +0.000 A 
ATOM     23  C   UNL     1      -1.657  14.499  22.818  0.00  0.00    +0.000 A 
ATOM     24  C   UNL     1      -3.009  14.302  23.180  0.00  0.00    +0.000 A 
BRANCH  19  26
ATOM     25  C   UNL     1      -4.956  12.308  24.942  0.00  0.00    +0.000 C 
ATOM     26  O   UNL     1      -4.799  12.721  23.580  0.00  0.00    +0.000 OA
ENDBRANCH  19  26
BRANCH  23  27
ATOM     27  O   UNL     1      -0.956  15.677  22.724  0.00  0.00    +0.000 OA
ATOM     28  C   UNL     1       0.453  15.645  22.575  0.00  0.00    +0.000 C 
ENDBRANCH  23  27
BRANCH  24  29
ATOM     29  O   UNL     1      -3.735  15.427  23.472  0.00  0.00    +0.000 OA
ATOM     30  C   UNL     1      -4.669  15.941  22.537  0.00  0.00    +0.000 C 
ENDBRANCH  24  29
ENDBRANCH   1  21
TORSDOF 5
ENDMDL
MODEL 4
REMARK VINA RESULT:      -7.2      1.211      2.769
REMARK  Name = 
REMARK  8 active torsions:
REMARK  status: ('A' for Active; 'I' for Inactive)
REMARK    1  A    between atoms: C_1  and  O_2
REMARK    2  A    between atoms: O_2  and  C_3
REMARK    3  A    between atoms: C_5  and  C_6
REMARK    4  A    between atoms: N_13  and  C_14
REMARK    5  A    between atoms: C_24  and  O_25
REMARK    6  A    between atoms: O_25  and  C_26
REMARK    7  A    between atoms: C_27  and  O_28
REMARK    8  A    between atoms: O_28  and  C_29
REMARK                            x       y       z     vdW  Elec       q    Type
REMARK                         _______ _______ _______ _____ _____    ______ ____
ROOT
ATOM      1  C   UNL     1      -0.639  10.957  22.600  0.00  0.00    +0.000 A 
ATOM      2  N   UNL     1      -0.028  10.253  23.544  0.00  0.00    +0.000 NA
ATOM      3  N   UNL     1       0.732   9.274  22.937  0.00  0.00    +0.000 NA
ATOM      4  C   UNL     1       0.562   9.402  21.646  0.00  0.00    +0.000 A 
ATOM      5  N   UNL     1      -0.309  10.419  21.362  0.00  0.00    +0.000 N 
ATOM      6  N   UNL     1      -0.817  10.798  20.148  0.00  0.00    +0.000 NA
ATOM      7  C   UNL     1      -0.162  10.442  19.072  0.00  0.00    +0.000 C 
ATOM      8  N   UNL     1      -0.634  10.788  17.818  0.00  0.00    +0.000 N 
ATOM      9  C   UNL     1       1.216   9.773  19.117  0.00  0.00    +0.000 C 
ATOM     10  S   UNL     1       1.260   8.471  20.374  0.00  0.00    +0.000 S 
ATOM     11  H   UNL     1      -0.000  10.785  17.028  0.00  0.00    +0.000 HD
ENDROOT
BRANCH   8  12
ATOM     12  C   UNL     1      -1.985  11.000  17.468  0.00  0.00    +0.000 A 
ATOM     13  C   UNL     1      -2.506  10.608  16.226  0.00  0.00    +0.000 A 
ATOM     14  C   UNL     1      -3.861  10.771  15.920  0.00  0.00    +0.000 A 
ATOM     15  C   UNL     1      -4.725  11.310  16.869  0.00  0.00    +0.000 A 
ATOM     16  C   UNL     1      -4.221  11.684  18.105  0.00  0.00    +0.000 A 
ATOM     17  F   UNL     1      -5.054  12.176  19.033  0.00  0.00    +0.000 F 
ATOM     18  C   UNL     1      -2.867  11.544  18.412  0.00  0.00    +0.000 A 
ENDBRANCH   8  12
BRANCH   1  21
ATOM     19  C   UNL     1      -3.551  13.007  23.866  0.00  0.00    +0.000 A 
ATOM     20  C   UNL     1      -2.781  11.914  23.443  0.00  0.00    +0.000 A 
ATOM     21  C   UNL     1      -1.556  12.086  22.799  0.00  0.00    +0.000 A 
ATOM     22  C   UNL     1      -1.207  13.376  22.404  0.00  0.00    +0.000 A 
ATOM     23  C   UNL     1      -2.020  14.484  22.714  0.00  0.00    +0.000 A 
ATOM     24  C   UNL     1      -3.198  14.312  23.475  0.00  0.00    +0.000 A 
BRANCH  19  26
ATOM     25  C   UNL     1      -5.894  12.703  23.904  0.00  0.00    +0.000 C 
ATOM     26  O   UNL     1      -4.665  12.773  24.635  0.00  0.00    +0.000 OA
ENDBRANCH  19  26
BRANCH  23  27
ATOM     27  O   UNL     1      -1.477  15.646  22.222  0.00  0.00    +0.000 OA
ATOM     28  C   UNL     1      -1.818  16.082  20.917  0.00  0.00    +0.000 C 
ENDBRANCH  23  27
BRANCH  24  29
ATOM     29  O   UNL     1      -3.912  15.445  23.764  0.00  0.00    +0.000 OA
ATOM     30  C   UNL     1      -3.678  16.151  24.972  0.00  0.00    +0.000 C 
ENDBRANCH  24  29
ENDBRANCH   1  21
TORSDOF 5
ENDMDL
MODEL 5
REMARK VINA RESULT:      -6.9      1.207      1.415
REMARK  Name = 
REMARK  8 active torsions:
REMARK  status: ('A' for Active; 'I' for Inactive)
REMARK    1  A    between atoms: C_1  and  O_2
REMARK    2  A    between atoms: O_2  and  C_3
REMARK    3  A    between atoms: C_5  and  C_6
REMARK    4  A    between atoms: N_13  and  C_14
REMARK    5  A    between atoms: C_24  and  O_25
REMARK    6  A    between atoms: O_25  and  C_26
REMARK    7  A    between atoms: C_27  and  O_28
REMARK    8  A    between atoms: O_28  and  C_29
REMARK                            x       y       z     vdW  Elec       q    Type
REMARK                         _______ _______ _______ _____ _____    ______ ____
ROOT
ATOM      1  C   UNL     1      -0.695  11.069  22.505  0.00  0.00    +0.000 A 
ATOM      2  N   UNL     1      -0.099  10.437  23.507  0.00  0.00    +0.000 NA
ATOM      3  N   UNL     1       0.665   9.411  22.987  0.00  0.00    +0.000 NA
ATOM      4  C   UNL     1       0.512   9.442  21.688  0.00  0.00    +0.000 A 
ATOM      5  N   UNL     1      -0.351  10.437  21.316  0.00  0.00    +0.000 N 
ATOM      6  N   UNL     1      -0.841  10.724  20.069  0.00  0.00    +0.000 NA
ATOM      7  C   UNL     1      -0.174  10.285  19.033  0.00  0.00    +0.000 C 
ATOM      8  N   UNL     1      -0.629  10.537  17.750  0.00  0.00    +0.000 N 
ATOM      9  C   UNL     1       1.200   9.617  19.146  0.00  0.00    +0.000 C 
ATOM     10  S   UNL     1       1.223   8.415  20.499  0.00  0.00    +0.000 S 
ATOM     11  H   UNL     1       0.016  10.471  16.971  0.00  0.00    +0.000 HD
ENDROOT
BRANCH   8  12
ATOM     12  C   UNL     1      -1.974  10.726  17.367  0.00  0.00    +0.000 A 
ATOM     13  C   UNL     1      -2.875  11.469  18.144  0.00  0.00    +0.000 A 
ATOM     14  C   UNL     1      -4.188  11.695  17.719  0.00  0.00    +0.000 A 
ATOM     15  C   UNL     1      -4.614  11.199  16.491  0.00  0.00    +0.000 A 
ATOM     16  C   UNL     1      -3.724  10.478  15.709  0.00  0.00    +0.000 A 
ATOM     17  F   UNL     1      -4.120  10.024  14.512  0.00  0.00    +0.000 F 
ATOM     18  C   UNL     1      -2.418  10.230  16.134  0.00  0.00    +0.000 A 
ENDBRANCH   8  12
BRANCH   1  21
ATOM     19  C   UNL     1      -2.029  14.508  23.328  0.00  0.00    +0.000 A 
ATOM     20  C   UNL     1      -1.306  13.309  23.411  0.00  0.00    +0.000 A 
ATOM     21  C   UNL     1      -1.609  12.212  22.605  0.00  0.00    +0.000 A 
ATOM     22  C   UNL     1      -2.780  12.267  21.851  0.00  0.00    +0.000 A 
ATOM     23  C   UNL     1      -3.591  13.418  21.836  0.00  0.00    +0.000 A 
ATOM     24  C   UNL     1      -3.208  14.568  22.563  0.00  0.00    +0.000 A 
BRANCH  19  26
ATOM     25  C   UNL     1      -1.888  15.580  25.429  0.00  0.00    +0.000 C 
ATOM     26  O   UNL     1      -1.581  15.600  24.031  0.00  0.00    +0.000 OA
ENDBRANCH  19  26
BRANCH  23  27
ATOM     27  O   UNL     1      -4.688  13.239  21.029  0.00  0.00    +0.000 OA
ATOM     28  C   UNL     1      -5.877  12.689  21.572  0.00  0.00    +0.000 C 
ENDBRANCH  23  27
BRANCH  24  29
ATOM     29  O   UNL     1      -4.034  15.657  22.466  0.00  0.00    +0.000 OA
ATOM     30  C   UNL     1      -3.794  16.654  21.486  0.00  0.00    +0.000 C 
ENDBRANCH  24  29
ENDBRANCH   1  21
TORSDOF 5
ENDMDL
MODEL 6
REMARK VINA RESULT:      -6.9      1.212      2.630
REMARK  Name = 
REMARK  8 active torsions:
REMARK  status: ('A' for Active; 'I' for Inactive)
REMARK    1  A    between atoms: C_1  and  O_2
REMARK    2  A    between atoms: O_2  and  C_3
REMARK    3  A    between atoms: C_5  and  C_6
REMARK    4  A    between atoms: N_13  and  C_14
REMARK    5  A    between atoms: C_24  and  O_25
REMARK    6  A    between atoms: O_25  and  C_26
REMARK    7  A    between atoms: C_27  and  O_28
REMARK    8  A    between atoms: O_28  and  C_29
REMARK                            x       y       z     vdW  Elec       q    Type
REMARK                         _______ _______ _______ _____ _____    ______ ____
ROOT
ATOM      1  C   UNL     1      -0.705  11.107  22.553  0.00  0.00    +0.000 A 
ATOM      2  N   UNL     1      -0.138  10.432  23.545  0.00  0.00    +0.000 NA
ATOM      3  N   UNL     1       0.594   9.393  23.006  0.00  0.00    +0.000 NA
ATOM      4  C   UNL     1       0.451   9.458  21.707  0.00  0.00    +0.000 A 
ATOM      5  N   UNL     1      -0.374  10.491  21.352  0.00  0.00    +0.000 N 
ATOM      6  N   UNL     1      -0.846  10.822  20.110  0.00  0.00    +0.000 NA
ATOM      7  C   UNL     1      -0.188  10.384  19.067  0.00  0.00    +0.000 C 
ATOM      8  N   UNL     1      -0.625  10.680  17.788  0.00  0.00    +0.000 N 
ATOM      9  C   UNL     1       1.162   9.666  19.174  0.00  0.00    +0.000 C 
ATOM     10  S   UNL     1       1.134   8.434  20.500  0.00  0.00    +0.000 S 
ATOM     11  H   UNL     1       0.022  10.609  17.012  0.00  0.00    +0.000 HD
ENDROOT
BRANCH   8  12
ATOM     12  C   UNL     1      -1.960  10.923  17.402  0.00  0.00    +0.000 A 
ATOM     13  C   UNL     1      -2.468  10.508  16.162  0.00  0.00    +0.000 A 
ATOM     14  C   UNL     1      -3.810  10.706  15.821  0.00  0.00    +0.000 A 
ATOM     15  C   UNL     1      -4.675  11.303  16.732  0.00  0.00    +0.000 A 
ATOM     16  C   UNL     1      -4.185  11.701  17.967  0.00  0.00    +0.000 A 
ATOM     17  F   UNL     1      -5.021  12.250  18.859  0.00  0.00    +0.000 F 
ATOM     18  C   UNL     1      -2.843  11.527  18.307  0.00  0.00    +0.000 A 
ENDBRANCH   8  12
BRANCH   1  21
ATOM     19  C   UNL     1      -3.822  13.203  22.969  0.00  0.00    +0.000 A 
ATOM     20  C   UNL     1      -2.967  12.152  22.607  0.00  0.00    +0.000 A 
ATOM     21  C   UNL     1      -1.580  12.279  22.674  0.00  0.00    +0.000 A 
ATOM     22  C   UNL     1      -1.057  13.547  22.919  0.00  0.00    +0.000 A 
ATOM     23  C   UNL     1      -1.894  14.651  23.173  0.00  0.00    +0.000 A 
ATOM     24  C   UNL     1      -3.297  14.483  23.223  0.00  0.00    +0.000 A 
BRANCH  19  26
ATOM     25  C   UNL     1      -5.650  12.568  24.326  0.00  0.00    +0.000 C 
ATOM     26  O   UNL     1      -5.173  12.964  23.035  0.00  0.00    +0.000 OA
ENDBRANCH  19  26
BRANCH  23  27
ATOM     27  O   UNL     1      -1.158  15.791  23.382  0.00  0.00    +0.000 OA
ATOM     28  C   UNL     1      -0.730  16.119  24.693  0.00  0.00    +0.000 C 
ENDBRANCH  23  27
BRANCH  24  29
ATOM     29  O   UNL     1      -4.037  15.600  23.512  0.00  0.00    +0.000 OA
ATOM     30  C   UNL     1      -4.540  16.416  22.467  0.00  0.00    +0.000 C 
ENDBRANCH  24  29
ENDBRANCH   1  21
TORSDOF 5
ENDMDL
MODEL 7
REMARK VINA RESULT:      -6.8      7.664     10.021
REMARK  Name = 
REMARK  8 active torsions:
REMARK  status: ('A' for Active; 'I' for Inactive)
REMARK    1  A    between atoms: C_1  and  O_2
REMARK    2  A    between atoms: O_2  and  C_3
REMARK    3  A    between atoms: C_5  and  C_6
REMARK    4  A    between atoms: N_13  and  C_14
REMARK    5  A    between atoms: C_24  and  O_25
REMARK    6  A    between atoms: O_25  and  C_26
REMARK    7  A    between atoms: C_27  and  O_28
REMARK    8  A    between atoms: O_28  and  C_29
REMARK                            x       y       z     vdW  Elec       q    Type
REMARK                         _______ _______ _______ _____ _____    ______ ____
ROOT
ATOM      1  C   UNL     1       5.054  14.562  22.340  0.00  0.00    +0.000 A 
ATOM      2  N   UNL     1       4.265  14.608  23.406  0.00  0.00    +0.000 NA
ATOM      3  N   UNL     1       4.978  14.160  24.499  0.00  0.00    +0.000 NA
ATOM      4  C   UNL     1       6.175  13.848  24.074  0.00  0.00    +0.000 A 
ATOM      5  N   UNL     1       6.286  14.048  22.724  0.00  0.00    +0.000 N 
ATOM      6  N   UNL     1       7.337  13.747  21.898  0.00  0.00    +0.000 NA
ATOM      7  C   UNL     1       8.520  13.603  22.438  0.00  0.00    +0.000 C 
ATOM      8  N   UNL     1       9.615  13.290  21.652  0.00  0.00    +0.000 N 
ATOM      9  C   UNL     1       8.808  13.915  23.910  0.00  0.00    +0.000 C 
ATOM     10  S   UNL     1       7.511  13.241  24.978  0.00  0.00    +0.000 S 
ATOM     11  H   UNL     1      10.548  13.473  22.001  0.00  0.00    +0.000 HD
ENDROOT
BRANCH   8  12
ATOM     12  C   UNL     1       9.588  12.570  20.439  0.00  0.00    +0.000 A 
ATOM     13  C   UNL     1       9.875  13.171  19.205  0.00  0.00    +0.000 A 
ATOM     14  C   UNL     1       9.902  12.428  18.020  0.00  0.00    +0.000 A 
ATOM     15  C   UNL     1       9.665  11.057  18.057  0.00  0.00    +0.000 A 
ATOM     16  C   UNL     1       9.398  10.452  19.276  0.00  0.00    +0.000 A 
ATOM     17  F   UNL     1       9.198   9.127  19.321  0.00  0.00    +0.000 F 
ATOM     18  C   UNL     1       9.348  11.189  20.460  0.00  0.00    +0.000 A 
ENDBRANCH   8  12
BRANCH   1  21
ATOM     19  C   UNL     1       3.137  14.808  19.092  0.00  0.00    +0.000 A 
ATOM     20  C   UNL     1       3.654  14.304  20.294  0.00  0.00    +0.000 A 
ATOM     21  C   UNL     1       4.700  14.936  20.966  0.00  0.00    +0.000 A 
ATOM     22  C   UNL     1       5.356  15.974  20.309  0.00  0.00    +0.000 A 
ATOM     23  C   UNL     1       4.933  16.429  19.045  0.00  0.00    +0.000 A 
ATOM     24  C   UNL     1       3.794  15.861  18.430  0.00  0.00    +0.000 A 
BRANCH  19  26
ATOM     25  C   UNL     1       2.068  12.811  18.419  0.00  0.00    +0.000 C 
ATOM     26  O   UNL     1       2.006  14.234  18.566  0.00  0.00    +0.000 OA
ENDBRANCH  19  26
BRANCH  23  27
ATOM     27  O   UNL     1       5.730  17.454  18.596  0.00  0.00    +0.000 OA
ATOM     28  C   UNL     1       7.136  17.369  18.754  0.00  0.00    +0.000 C 
ENDBRANCH  23  27
BRANCH  24  29
ATOM     29  O   UNL     1       3.427  16.386  17.218  0.00  0.00    +0.000 OA
ATOM     30  C   UNL     1       2.407  17.368  17.142  0.00  0.00    +0.000 C 
ENDBRANCH  24  29
ENDBRANCH   1  21
TORSDOF 5
ENDMDL
MODEL 8
REMARK VINA RESULT:      -6.8      3.078      4.652
REMARK  Name = 
REMARK  8 active torsions:
REMARK  status: ('A' for Active; 'I' for Inactive)
REMARK    1  A    between atoms: C_1  and  O_2
REMARK    2  A    between atoms: O_2  and  C_3
REMARK    3  A    between atoms: C_5  and  C_6
REMARK    4  A    between atoms: N_13  and  C_14
REMARK    5  A    between atoms: C_24  and  O_25
REMARK    6  A    between atoms: O_25  and  C_26
REMARK    7  A    between atoms: C_27  and  O_28
REMARK    8  A    between atoms: O_28  and  C_29
REMARK                            x       y       z     vdW  Elec       q    Type
REMARK                         _______ _______ _______ _____ _____    ______ ____
ROOT
ATOM      1  C   UNL     1      -1.134  10.848  18.709  0.00  0.00    +0.000 A 
ATOM      2  N   UNL     1      -0.250  10.081  18.084  0.00  0.00    +0.000 NA
ATOM      3  N   UNL     1      -0.841   9.568  16.947  0.00  0.00    +0.000 NA
ATOM      4  C   UNL     1      -2.065  10.028  16.911  0.00  0.00    +0.000 A 
ATOM      5  N   UNL     1      -2.329  10.815  18.000  0.00  0.00    +0.000 N 
ATOM      6  N   UNL     1      -3.513  11.392  18.373  0.00  0.00    +0.000 NA
ATOM      7  C   UNL     1      -4.428  11.563  17.453  0.00  0.00    +0.000 C 
ATOM      8  N   UNL     1      -5.648  12.133  17.775  0.00  0.00    +0.000 N 
ATOM      9  C   UNL     1      -4.173  11.302  15.964  0.00  0.00    +0.000 C 
ATOM     10  S   UNL     1      -3.284   9.743  15.726  0.00  0.00    +0.000 S 
ATOM     11  H   UNL     1      -6.219  12.535  17.041  0.00  0.00    +0.000 HD
ENDROOT
BRANCH   8  12
ATOM     12  C   UNL     1      -6.286  12.073  19.032  0.00  0.00    +0.000 A 
ATOM     13  C   UNL     1      -6.550  13.223  19.792  0.00  0.00    +0.000 A 
ATOM     14  C   UNL     1      -7.237  13.150  21.008  0.00  0.00    +0.000 A 
ATOM     15  C   UNL     1      -7.694  11.921  21.472  0.00  0.00    +0.000 A 
ATOM     16  C   UNL     1      -7.452  10.782  20.719  0.00  0.00    +0.000 A 
ATOM     17  F   UNL     1      -7.917   9.600  21.148  0.00  0.00    +0.000 F 
ATOM     18  C   UNL     1      -6.750  10.842  19.515  0.00  0.00    +0.000 A 
ENDBRANCH   8  12
BRANCH   1  21
ATOM     19  C   UNL     1      -0.881  13.702  21.174  0.00  0.00    +0.000 A 
ATOM     20  C   UNL     1      -0.819  12.969  19.980  0.00  0.00    +0.000 A 
ATOM     21  C   UNL     1      -0.932  11.579  19.966  0.00  0.00    +0.000 A 
ATOM     22  C   UNL     1      -0.909  10.915  21.190  0.00  0.00    +0.000 A 
ATOM     23  C   UNL     1      -0.855  11.621  22.408  0.00  0.00    +0.000 A 
ATOM     24  C   UNL     1      -0.864  13.035  22.412  0.00  0.00    +0.000 A 
BRANCH  19  26
ATOM     25  C   UNL     1       0.350  15.708  20.960  0.00  0.00    +0.000 C 
ATOM     26  O   UNL     1      -0.925  15.073  21.107  0.00  0.00    +0.000 OA
ENDBRANCH  19  26
BRANCH  23  27
ATOM     27  O   UNL     1      -0.837  10.760  23.478  0.00  0.00    +0.000 OA
ATOM     28  C   UNL     1      -0.037   9.591  23.425  0.00  0.00    +0.000 C 
ENDBRANCH  23  27
BRANCH  24  29
ATOM     29  O   UNL     1      -0.846  13.644  23.640  0.00  0.00    +0.000 OA
ATOM     30  C   UNL     1      -1.999  14.312  24.125  0.00  0.00    +0.000 C 
ENDBRANCH  24  29
ENDBRANCH   1  21
TORSDOF 5
ENDMDL
MODEL 9
REMARK VINA RESULT:      -6.7      7.652     10.008
REMARK  Name = 
REMARK  8 active torsions:
REMARK  status: ('A' for Active; 'I' for Inactive)
REMARK    1  A    between atoms: C_1  and  O_2
REMARK    2  A    between atoms: O_2  and  C_3
REMARK    3  A    between atoms: C_5  and  C_6
REMARK    4  A    between atoms: N_13  and  C_14
REMARK    5  A    between atoms: C_24  and  O_25
REMARK    6  A    between atoms: O_25  and  C_26
REMARK    7  A    between atoms: C_27  and  O_28
REMARK    8  A    between atoms: O_28  and  C_29
REMARK                            x       y       z     vdW  Elec       q    Type
REMARK                         _______ _______ _______ _____ _____    ______ ____
ROOT
ATOM      1  C   UNL     1       5.039  14.588  22.356  0.00  0.00    +0.000 A 
ATOM      2  N   UNL     1       4.222  14.686  23.396  0.00  0.00    +0.000 NA
ATOM      3  N   UNL     1       4.895  14.261  24.524  0.00  0.00    +0.000 NA
ATOM      4  C   UNL     1       6.097  13.912  24.143  0.00  0.00    +0.000 A 
ATOM      5  N   UNL     1       6.250  14.062  22.791  0.00  0.00    +0.000 N 
ATOM      6  N   UNL     1       7.317  13.714  22.006  0.00  0.00    +0.000 NA
ATOM      7  C   UNL     1       8.481  13.565  22.585  0.00  0.00    +0.000 C 
ATOM      8  N   UNL     1       9.591  13.204  21.841  0.00  0.00    +0.000 N 
ATOM      9  C   UNL     1       8.734  13.922  24.053  0.00  0.00    +0.000 C 
ATOM     10  S   UNL     1       7.394  13.310  25.106  0.00  0.00    +0.000 S 
ATOM     11  H   UNL     1      10.517  13.381  22.211  0.00  0.00    +0.000 HD
ENDROOT
BRANCH   8  12
ATOM     12  C   UNL     1       9.584  12.443  20.654  0.00  0.00    +0.000 A 
ATOM     13  C   UNL     1       9.387  11.054  20.656  0.00  0.00    +0.000 A 
ATOM     14  C   UNL     1       9.323  10.325  19.464  0.00  0.00    +0.000 A 
ATOM     15  C   UNL     1       9.431  10.983  18.243  0.00  0.00    +0.000 A 
ATOM     16  C   UNL     1       9.608  12.358  18.232  0.00  0.00    +0.000 A 
ATOM     17  F   UNL     1       9.682  13.001  17.057  0.00  0.00    +0.000 F 
ATOM     18  C   UNL     1       9.694  13.091  19.416  0.00  0.00    +0.000 A 
ENDBRANCH   8  12
BRANCH   1  21
ATOM     19  C   UNL     1       3.252  14.706  19.028  0.00  0.00    +0.000 A 
ATOM     20  C   UNL     1       3.733  14.243  20.261  0.00  0.00    +0.000 A 
ATOM     21  C   UNL     1       4.732  14.920  20.959  0.00  0.00    +0.000 A 
ATOM     22  C   UNL     1       5.384  15.964  20.307  0.00  0.00    +0.000 A 
ATOM     23  C   UNL     1       5.000  16.378  19.017  0.00  0.00    +0.000 A 
ATOM     24  C   UNL     1       3.905  15.763  18.368  0.00  0.00    +0.000 A 
BRANCH  19  26
ATOM     25  C   UNL     1       0.916  14.363  19.120  0.00  0.00    +0.000 C 
ATOM     26  O   UNL     1       2.160  14.087  18.469  0.00  0.00    +0.000 OA
ENDBRANCH  19  26
BRANCH  23  27
ATOM     27  O   UNL     1       5.785  17.416  18.577  0.00  0.00    +0.000 OA
ATOM     28  C   UNL     1       7.195  17.325  18.688  0.00  0.00    +0.000 C 
ENDBRANCH  23  27
BRANCH  24  29
ATOM     29  O   UNL     1       3.574  16.250  17.131  0.00  0.00    +0.000 OA
ATOM     30  C   UNL     1       2.584  17.258  16.999  0.00  0.00    +0.000 C 
ENDBRANCH  24  29
ENDBRANCH   1  21
TORSDOF 5
ENDMDL
