MODEL 1
REMARK VINA RESULT:      -7.1      0.000      0.000
REMARK  Name = 
REMARK  10 active torsions:
REMARK  status: ('A' for Active; 'I' for Inactive)
REMARK    1  A    between atoms: C_2  and  C_3
REMARK    2  A    between atoms: C_3  and  C_4
REMARK    3  A    between atoms: C_3  and  N_8
REMARK    4  A    between atoms: C_4  and  C_5
REMARK    5  A    between atoms: C_5  and  O_7
REMARK    6  A    between atoms: C_9  and  C_11
REMARK    7  A    between atoms: C_11  and  C_12
REMARK    8  A    between atoms: C_12  and  C_13
REMARK    9  A    between atoms: N_15  and  C_16
REMARK   10  A    between atoms: C_19  and  C_20
REMARK                            x       y       z     vdW  Elec       q    Type
REMARK                         _______ _______ _______ _____ _____    ______ ____
ROOT
ATOM      1  C   UNL     1       2.153   4.464  20.325  0.00  0.00    +0.000 C 
ATOM      2  O   UNL     1       0.932   4.355  20.372  0.00  0.00    +0.000 OA
ATOM      3  N   UNL     1       2.859   5.613  20.004  0.00  0.00    +0.000 N 
ATOM      4  H   UNL     1       3.850   5.512  19.826  0.00  0.00    +0.000 HD
ENDROOT
BRANCH   3   5
ATOM      5  C   UNL     1       2.304   6.889  19.758  0.00  0.00    +0.000 A 
ATOM      6  C   UNL     1       1.594   7.619  20.717  0.00  0.00    +0.000 A 
ATOM      7  C   UNL     1       1.071   8.882  20.417  0.00  0.00    +0.000 A 
ATOM      8  C   UNL     1       1.253   9.438  19.150  0.00  0.00    +0.000 A 
ATOM      9  C   UNL     1       1.960   8.717  18.183  0.00  0.00    +0.000 A 
ATOM     10  C   UNL     1       2.493   7.458  18.491  0.00  0.00    +0.000 A 
BRANCH   8  11
ATOM     11  C   UNL     1       0.690  10.786  18.851  0.00  0.00    +0.000 C 
ATOM     12  N   UNL     1       1.352  11.699  18.213  0.00  0.00    +0.000 NA
ATOM     13  N   UNL     1      -0.571  11.115  19.249  0.00  0.00    +0.000 N 
ATOM     14  H   UNL     1       2.303  11.394  18.000  0.00  0.00    +0.000 HD
ATOM     15  H   UNL     1      -1.263  10.378  19.207  0.00  0.00    +0.000 HD
ATOM     16  H   UNL     1      -0.882  11.972  18.801  0.00  0.00    +0.000 HD
ENDBRANCH   8  11
ENDBRANCH   3   5
BRANCH   1  17
ATOM     17  C   UNL     1       3.033   3.263  20.604  0.00  0.00    +0.000 C 
BRANCH  17  18
ATOM     18  C   UNL     1       3.578   2.643  19.324  0.00  0.00    +0.000 C 
BRANCH  18  20
ATOM     19  N   UNL     1       4.789   3.511  17.420  0.00  0.00    +0.000 N 
ATOM     20  C   UNL     1       4.768   3.418  18.793  0.00  0.00    +0.000 C 
ATOM     21  O   UNL     1       5.629   3.913  19.510  0.00  0.00    +0.000 OA
ATOM     22  H   UNL     1       3.954   3.263  16.900  0.00  0.00    +0.000 HD
BRANCH  19  23
ATOM     23  C   UNL     1       5.796   4.291  16.721  0.00  0.00    +0.000 C 
BRANCH  23  25
ATOM     24  C   UNL     1       6.559   4.341  14.317  0.00  0.00    +0.000 C 
ATOM     25  C   UNL     1       5.677   3.964  15.255  0.00  0.00    +0.000 C 
ENDBRANCH  23  25
BRANCH  23  26
ATOM     26  C   UNL     1       5.719   5.795  17.024  0.00  0.00    +0.000 C 
BRANCH  26  27
ATOM     27  C   UNL     1       7.044   6.427  17.375  0.00  0.00    +0.000 C 
ATOM     28  O   UNL     1       7.729   7.111  16.632  0.00  0.00    +0.000 OA
BRANCH  27  29
ATOM     29  O   UNL     1       7.416   6.169  18.653  0.00  0.00    +0.000 OA
ATOM     30  H   UNL     1       7.055   6.795  19.310  0.00  0.00    +0.000 HD
ENDBRANCH  27  29
ENDBRANCH  26  27
ENDBRANCH  23  26
ENDBRANCH  19  23
ENDBRANCH  18  20
ENDBRANCH  17  18
ENDBRANCH   1  17
TORSDOF 10
ENDMDL
MODEL 2
REMARK VINA RESULT:      -7.1      0.772      1.409
REMARK  Name = 
REMARK  10 active torsions:
REMARK  status: ('A' for Active; 'I' for Inactive)
REMARK    1  A    between atoms: C_2  and  C_3
REMARK    2  A    between atoms: C_3  and  C_4
REMARK    3  A    between atoms: C_3  and  N_8
REMARK    4  A    between atoms: C_4  and  C_5
REMARK    5  A    between atoms: C_5  and  O_7
REMARK    6  A    between atoms: C_9  and  C_11
REMARK    7  A    between atoms: C_11  and  C_12
REMARK    8  A    between atoms: C_12  and  C_13
REMARK    9  A    between atoms: N_15  and  C_16
REMARK   10  A    between atoms: C_19  and  C_20
REMARK                            x       y       z     vdW  Elec       q    Type
REMARK                         _______ _______ _______ _____ _____    ______ ____
ROOT
ATOM      1  C   UNL     1       2.469   4.712  19.361  0.00  0.00    +0.000 C 
ATOM      2  O   UNL     1       1.575   4.529  18.540  0.00  0.00    +0.000 OA
ATOM      3  N   UNL     1       2.902   5.940  19.836  0.00  0.00    +0.000 N 
ATOM      4  H   UNL     1       3.764   5.952  20.367  0.00  0.00    +0.000 HD
ENDROOT
BRANCH   3   5
ATOM      5  C   UNL     1       2.336   7.198  19.530  0.00  0.00    +0.000 A 
ATOM      6  C   UNL     1       2.479   7.826  18.289  0.00  0.00    +0.000 A 
ATOM      7  C   UNL     1       1.891   9.072  18.042  0.00  0.00    +0.000 A 
ATOM      8  C   UNL     1       1.146   9.710  19.035  0.00  0.00    +0.000 A 
ATOM      9  C   UNL     1       0.998   9.092  20.281  0.00  0.00    +0.000 A 
ATOM     10  C   UNL     1       1.578   7.838  20.520  0.00  0.00    +0.000 A 
BRANCH   8  11
ATOM     11  C   UNL     1       0.525  11.035  18.752  0.00  0.00    +0.000 C 
ATOM     12  N   UNL     1      -0.722  11.294  18.991  0.00  0.00    +0.000 NA
ATOM     13  N   UNL     1       1.264  12.047  18.216  0.00  0.00    +0.000 N 
ATOM     14  H   UNL     1      -1.217  10.471  19.338  0.00  0.00    +0.000 HD
ATOM     15  H   UNL     1       2.225  12.117  18.528  0.00  0.00    +0.000 HD
ATOM     16  H   UNL     1       0.767  12.931  18.274  0.00  0.00    +0.000 HD
ENDBRANCH   8  11
ENDBRANCH   3   5
BRANCH   1  17
ATOM     17  C   UNL     1       3.233   3.533  19.926  0.00  0.00    +0.000 C 
BRANCH  17  18
ATOM     18  C   UNL     1       4.165   2.908  18.897  0.00  0.00    +0.000 C 
BRANCH  18  20
ATOM     19  N   UNL     1       5.306   4.116  17.141  0.00  0.00    +0.000 N 
ATOM     20  C   UNL     1       5.270   3.864  18.494  0.00  0.00    +0.000 C 
ATOM     21  O   UNL     1       6.055   4.367  19.289  0.00  0.00    +0.000 OA
ATOM     22  H   UNL     1       4.514   3.838  16.571  0.00  0.00    +0.000 HD
BRANCH  19  23
ATOM     23  C   UNL     1       6.231   5.077  16.566  0.00  0.00    +0.000 C 
BRANCH  23  25
ATOM     24  C   UNL     1       6.262   3.896  14.336  0.00  0.00    +0.000 C 
ATOM     25  C   UNL     1       6.076   5.005  15.068  0.00  0.00    +0.000 C 
ENDBRANCH  23  25
BRANCH  23  26
ATOM     26  C   UNL     1       6.066   6.494  17.133  0.00  0.00    +0.000 C 
BRANCH  26  27
ATOM     27  C   UNL     1       7.355   7.136  17.586  0.00  0.00    +0.000 C 
ATOM     28  O   UNL     1       7.841   8.161  17.135  0.00  0.00    +0.000 OA
BRANCH  27  29
ATOM     29  O   UNL     1       7.947   6.450  18.595  0.00  0.00    +0.000 OA
ATOM     30  H   UNL     1       7.563   6.624  19.476  0.00  0.00    +0.000 HD
ENDBRANCH  27  29
ENDBRANCH  26  27
ENDBRANCH  23  26
ENDBRANCH  19  23
ENDBRANCH  18  20
ENDBRANCH  17  18
ENDBRANCH   1  17
TORSDOF 10
ENDMDL
MODEL 3
REMARK VINA RESULT:      -7.0      1.485      2.335
REMARK  Name = 
REMARK  10 active torsions:
REMARK  status: ('A' for Active; 'I' for Inactive)
REMARK    1  A    between atoms: C_2  and  C_3
REMARK    2  A    between atoms: C_3  and  C_4
REMARK    3  A    between atoms: C_3  and  N_8
REMARK    4  A    between atoms: C_4  and  C_5
REMARK    5  A    between atoms: C_5  and  O_7
REMARK    6  A    between atoms: C_9  and  C_11
REMARK    7  A    between atoms: C_11  and  C_12
REMARK    8  A    between atoms: C_12  and  C_13
REMARK    9  A    between atoms: N_15  and  C_16
REMARK   10  A    between atoms: C_19  and  C_20
REMARK                            x       y       z     vdW  Elec       q    Type
REMARK                         _______ _______ _______ _____ _____    ______ ____
ROOT
ATOM      1  C   UNL     1       2.429   4.569  19.848  0.00  0.00    +0.000 C 
ATOM      2  O   UNL     1       1.325   4.312  19.377  0.00  0.00    +0.000 OA
ATOM      3  N   UNL     1       3.006   5.826  19.940  0.00  0.00    +0.000 N 
ATOM      4  H   UNL     1       3.988   5.868  20.180  0.00  0.00    +0.000 HD
ENDROOT
BRANCH   3   5
ATOM      5  C   UNL     1       2.392   7.050  19.592  0.00  0.00    +0.000 A 
ATOM      6  C   UNL     1       2.451   7.605  18.311  0.00  0.00    +0.000 A 
ATOM      7  C   UNL     1       1.820   8.821  18.023  0.00  0.00    +0.000 A 
ATOM      8  C   UNL     1       1.115   9.501  19.017  0.00  0.00    +0.000 A 
ATOM      9  C   UNL     1       1.050   8.957  20.303  0.00  0.00    +0.000 A 
ATOM     10  C   UNL     1       1.673   7.733  20.584  0.00  0.00    +0.000 A 
BRANCH   8  11
ATOM     11  C   UNL     1       0.446  10.793  18.690  0.00  0.00    +0.000 C 
ATOM     12  N   UNL     1       0.860  11.935  19.144  0.00  0.00    +0.000 NA
ATOM     13  N   UNL     1      -0.652  10.822  17.883  0.00  0.00    +0.000 N 
ATOM     14  H   UNL     1       1.650  11.821  19.782  0.00  0.00    +0.000 HD
ATOM     15  H   UNL     1      -0.663  10.163  17.115  0.00  0.00    +0.000 HD
ATOM     16  H   UNL     1      -0.864  11.771  17.591  0.00  0.00    +0.000 HD
ENDBRANCH   8  11
ENDBRANCH   3   5
BRANCH   1  17
ATOM     17  C   UNL     1       3.311   3.452  20.366  0.00  0.00    +0.000 C 
BRANCH  17  18
ATOM     18  C   UNL     1       4.073   2.757  19.245  0.00  0.00    +0.000 C 
BRANCH  18  20
ATOM     19  N   UNL     1       5.823   4.239  18.481  0.00  0.00    +0.000 N 
ATOM     20  C   UNL     1       4.566   3.748  18.210  0.00  0.00    +0.000 C 
ATOM     21  O   UNL     1       3.915   4.081  17.227  0.00  0.00    +0.000 OA
ATOM     22  H   UNL     1       6.386   3.777  19.186  0.00  0.00    +0.000 HD
BRANCH  19  23
ATOM     23  C   UNL     1       6.511   5.129  17.562  0.00  0.00    +0.000 C 
BRANCH  23  25
ATOM     24  C   UNL     1       7.948   5.607  19.580  0.00  0.00    +0.000 C 
ATOM     25  C   UNL     1       7.469   5.959  18.377  0.00  0.00    +0.000 C 
ENDBRANCH  23  25
BRANCH  23  26
ATOM     26  C   UNL     1       7.178   4.395  16.389  0.00  0.00    +0.000 C 
BRANCH  26  27
ATOM     27  C   UNL     1       6.868   4.980  15.033  0.00  0.00    +0.000 C 
ATOM     28  O   UNL     1       7.689   5.302  14.188  0.00  0.00    +0.000 OA
BRANCH  27  29
ATOM     29  O   UNL     1       5.535   5.107  14.818  0.00  0.00    +0.000 OA
ATOM     30  H   UNL     1       5.284   5.913  14.328  0.00  0.00    +0.000 HD
ENDBRANCH  27  29
ENDBRANCH  26  27
ENDBRANCH  23  26
ENDBRANCH  19  23
ENDBRANCH  18  20
ENDBRANCH  17  18
ENDBRANCH   1  17
TORSDOF 10
ENDMDL
MODEL 4
REMARK VINA RESULT:      -7.0      2.107      3.485
REMARK  Name = 
REMARK  10 active torsions:
REMARK  status: ('A' for Active; 'I' for Inactive)
REMARK    1  A    between atoms: C_2  and  C_3
REMARK    2  A    between atoms: C_3  and  C_4
REMARK    3  A    between atoms: C_3  and  N_8
REMARK    4  A    between atoms: C_4  and  C_5
REMARK    5  A    between atoms: C_5  and  O_7
REMARK    6  A    between atoms: C_9  and  C_11
REMARK    7  A    between atoms: C_11  and  C_12
REMARK    8  A    between atoms: C_12  and  C_13
REMARK    9  A    between atoms: N_15  and  C_16
REMARK   10  A    between atoms: C_19  and  C_20
REMARK                            x       y       z     vdW  Elec       q    Type
REMARK                         _______ _______ _______ _____ _____    ______ ____
ROOT
ATOM      1  C   UNL     1       3.837   5.485  17.985  0.00  0.00    +0.000 C 
ATOM      2  O   UNL     1       3.969   5.059  19.129  0.00  0.00    +0.000 OA
ATOM      3  N   UNL     1       3.086   6.587  17.606  0.00  0.00    +0.000 N 
ATOM      4  H   UNL     1       2.920   6.714  16.616  0.00  0.00    +0.000 HD
ENDROOT
BRANCH   3   5
ATOM      5  C   UNL     1       2.406   7.470  18.475  0.00  0.00    +0.000 A 
ATOM      6  C   UNL     1       2.172   7.195  19.825  0.00  0.00    +0.000 A 
ATOM      7  C   UNL     1       1.496   8.112  20.639  0.00  0.00    +0.000 A 
ATOM      8  C   UNL     1       1.046   9.323  20.113  0.00  0.00    +0.000 A 
ATOM      9  C   UNL     1       1.273   9.609  18.764  0.00  0.00    +0.000 A 
ATOM     10  C   UNL     1       1.961   8.694  17.954  0.00  0.00    +0.000 A 
BRANCH   8  11
ATOM     11  C   UNL     1       0.331  10.288  20.997  0.00  0.00    +0.000 C 
ATOM     12  N   UNL     1       0.682  10.512  22.225  0.00  0.00    +0.000 NA
ATOM     13  N   UNL     1      -0.744  10.987  20.536  0.00  0.00    +0.000 N 
ATOM     14  H   UNL     1       1.458   9.912  22.509  0.00  0.00    +0.000 HD
ATOM     15  H   UNL     1      -0.706  11.286  19.570  0.00  0.00    +0.000 HD
ATOM     16  H   UNL     1      -0.989  11.740  21.172  0.00  0.00    +0.000 HD
ENDBRANCH   8  11
ENDBRANCH   3   5
BRANCH   1  17
ATOM     17  C   UNL     1       4.506   4.773  16.828  0.00  0.00    +0.000 C 
BRANCH  17  18
ATOM     18  C   UNL     1       5.039   5.749  15.787  0.00  0.00    +0.000 C 
BRANCH  18  20
ATOM     19  N   UNL     1       6.590   7.082  17.075  0.00  0.00    +0.000 N 
ATOM     20  C   UNL     1       6.474   6.143  16.076  0.00  0.00    +0.000 C 
ATOM     21  O   UNL     1       7.438   5.676  15.481  0.00  0.00    +0.000 OA
ATOM     22  H   UNL     1       5.785   7.274  17.661  0.00  0.00    +0.000 HD
BRANCH  19  23
ATOM     23  C   UNL     1       7.885   7.522  17.564  0.00  0.00    +0.000 C 
BRANCH  23  25
ATOM     24  C   UNL     1       8.634   9.770  18.433  0.00  0.00    +0.000 C 
ATOM     25  C   UNL     1       7.846   9.027  17.641  0.00  0.00    +0.000 C 
ENDBRANCH  23  25
BRANCH  23  26
ATOM     26  C   UNL     1       8.298   6.850  18.882  0.00  0.00    +0.000 C 
BRANCH  26  27
ATOM     27  C   UNL     1       7.751   5.456  19.066  0.00  0.00    +0.000 C 
ATOM     28  O   UNL     1       8.140   4.453  18.488  0.00  0.00    +0.000 OA
BRANCH  27  29
ATOM     29  O   UNL     1       6.754   5.409  19.983  0.00  0.00    +0.000 OA
ATOM     30  H   UNL     1       6.177   6.197  19.987  0.00  0.00    +0.000 HD
ENDBRANCH  27  29
ENDBRANCH  26  27
ENDBRANCH  23  26
ENDBRANCH  19  23
ENDBRANCH  18  20
ENDBRANCH  17  18
ENDBRANCH   1  17
TORSDOF 10
ENDMDL
MODEL 5
REMARK VINA RESULT:      -6.9      4.403      7.076
REMARK  Name = 
REMARK  10 active torsions:
REMARK  status: ('A' for Active; 'I' for Inactive)
REMARK    1  A    between atoms: C_2  and  C_3
REMARK    2  A    between atoms: C_3  and  C_4
REMARK    3  A    between atoms: C_3  and  N_8
REMARK    4  A    between atoms: C_4  and  C_5
REMARK    5  A    between atoms: C_5  and  O_7
REMARK    6  A    between atoms: C_9  and  C_11
REMARK    7  A    between atoms: C_11  and  C_12
REMARK    8  A    between atoms: C_12  and  C_13
REMARK    9  A    between atoms: N_15  and  C_16
REMARK   10  A    between atoms: C_19  and  C_20
REMARK                            x       y       z     vdW  Elec       q    Type
REMARK                         _______ _______ _______ _____ _____    ______ ____
ROOT
ATOM      1  C   UNL     1       6.295   6.688  17.128  0.00  0.00    +0.000 C 
ATOM      2  O   UNL     1       5.527   6.873  16.189  0.00  0.00    +0.000 OA
ATOM      3  N   UNL     1       6.006   6.002  18.297  0.00  0.00    +0.000 N 
ATOM      4  H   UNL     1       6.669   6.083  19.057  0.00  0.00    +0.000 HD
ENDROOT
BRANCH   3   5
ATOM      5  C   UNL     1       4.805   5.315  18.584  0.00  0.00    +0.000 A 
ATOM      6  C   UNL     1       3.612   5.958  18.926  0.00  0.00    +0.000 A 
ATOM      7  C   UNL     1       2.450   5.224  19.195  0.00  0.00    +0.000 A 
ATOM      8  C   UNL     1       2.465   3.831  19.123  0.00  0.00    +0.000 A 
ATOM      9  C   UNL     1       3.652   3.176  18.784  0.00  0.00    +0.000 A 
ATOM     10  C   UNL     1       4.810   3.915  18.502  0.00  0.00    +0.000 A 
BRANCH   8  11
ATOM     11  C   UNL     1       1.217   3.067  19.411  0.00  0.00    +0.000 C 
ATOM     12  N   UNL     1       0.638   2.308  18.534  0.00  0.00    +0.000 NA
ATOM     13  N   UNL     1       0.625   3.141  20.636  0.00  0.00    +0.000 N 
ATOM     14  H   UNL     1       1.111   2.351  17.630  0.00  0.00    +0.000 HD
ATOM     15  H   UNL     1       1.245   3.202  21.433  0.00  0.00    +0.000 HD
ATOM     16  H   UNL     1      -0.082   2.419  20.743  0.00  0.00    +0.000 HD
ENDBRANCH   8  11
ENDBRANCH   3   5
BRANCH   1  17
ATOM     17  C   UNL     1       7.696   7.261  17.086  0.00  0.00    +0.000 C 
BRANCH  17  18
ATOM     18  C   UNL     1       8.139   7.792  18.443  0.00  0.00    +0.000 C 
BRANCH  18  20
ATOM     19  N   UNL     1       9.317   9.696  19.355  0.00  0.00    +0.000 N 
ATOM     20  C   UNL     1       8.429   9.280  18.391  0.00  0.00    +0.000 C 
ATOM     21  O   UNL     1       7.924  10.040  17.573  0.00  0.00    +0.000 OA
ATOM     22  H   UNL     1       9.850   8.998  19.863  0.00  0.00    +0.000 HD
BRANCH  19  23
ATOM     23  C   UNL     1       9.796  11.066  19.415  0.00  0.00    +0.000 C 
BRANCH  23  25
ATOM     24  C   UNL     1       8.834  12.052  21.529  0.00  0.00    +0.000 C 
ATOM     25  C   UNL     1       9.842  11.461  20.868  0.00  0.00    +0.000 C 
ENDBRANCH  23  25
BRANCH  23  26
ATOM     26  C   UNL     1      11.126  11.278  18.678  0.00  0.00    +0.000 C 
BRANCH  26  27
ATOM     27  C   UNL     1      11.136  12.462  17.741  0.00  0.00    +0.000 C 
ATOM     28  O   UNL     1      10.305  13.356  17.710  0.00  0.00    +0.000 OA
BRANCH  27  29
ATOM     29  O   UNL     1      12.207  12.453  16.910  0.00  0.00    +0.000 OA
ATOM     30  H   UNL     1      13.065  12.573  17.361  0.00  0.00    +0.000 HD
ENDBRANCH  27  29
ENDBRANCH  26  27
ENDBRANCH  23  26
ENDBRANCH  19  23
ENDBRANCH  18  20
ENDBRANCH  17  18
ENDBRANCH   1  17
TORSDOF 10
ENDMDL
MODEL 6
REMARK VINA RESULT:      -6.8      6.131      7.990
REMARK  Name = 
REMARK  10 active torsions:
REMARK  status: ('A' for Active; 'I' for Inactive)
REMARK    1  A    between atoms: C_2  and  C_3
REMARK    2  A    between atoms: C_3  and  C_4
REMARK    3  A    between atoms: C_3  and  N_8
REMARK    4  A    between atoms: C_4  and  C_5
REMARK    5  A    between atoms: C_5  and  O_7
REMARK    6  A    between atoms: C_9  and  C_11
REMARK    7  A    between atoms: C_11  and  C_12
REMARK    8  A    between atoms: C_12  and  C_13
REMARK    9  A    between atoms: N_15  and  C_16
REMARK   10  A    between atoms: C_19  and  C_20
REMARK                            x       y       z     vdW  Elec       q    Type
REMARK                         _______ _______ _______ _____ _____    ______ ____
ROOT
ATOM      1  C   UNL     1       9.075  10.243  19.027  0.00  0.00    +0.000 C 
ATOM      2  O   UNL     1       9.291  10.634  20.171  0.00  0.00    +0.000 OA
ATOM      3  N   UNL     1       9.037  11.031  17.888  0.00  0.00    +0.000 N 
ATOM      4  H   UNL     1       8.670  10.608  17.045  0.00  0.00    +0.000 HD
ENDROOT
BRANCH   3   5
ATOM      5  C   UNL     1       9.326  12.413  17.822  0.00  0.00    +0.000 A 
ATOM      6  C   UNL     1       8.396  13.410  18.127  0.00  0.00    +0.000 A 
ATOM      7  C   UNL     1       8.741  14.765  18.047  0.00  0.00    +0.000 A 
ATOM      8  C   UNL     1      10.028  15.142  17.662  0.00  0.00    +0.000 A 
ATOM      9  C   UNL     1      10.967  14.153  17.353  0.00  0.00    +0.000 A 
ATOM     10  C   UNL     1      10.621  12.798  17.446  0.00  0.00    +0.000 A 
BRANCH   8  11
ATOM     11  C   UNL     1      10.378  16.590  17.586  0.00  0.00    +0.000 C 
ATOM     12  N   UNL     1       9.538  17.533  17.877  0.00  0.00    +0.000 NA
ATOM     13  N   UNL     1      11.624  16.983  17.198  0.00  0.00    +0.000 N 
ATOM     14  H   UNL     1       8.616  17.158  18.104  0.00  0.00    +0.000 HD
ATOM     15  H   UNL     1      12.395  16.404  17.505  0.00  0.00    +0.000 HD
ATOM     16  H   UNL     1      11.771  17.969  17.393  0.00  0.00    +0.000 HD
ENDBRANCH   8  11
ENDBRANCH   3   5
BRANCH   1  17
ATOM     17  C   UNL     1       8.786   8.779  18.768  0.00  0.00    +0.000 C 
BRANCH  17  18
ATOM     18  C   UNL     1       7.835   8.582  17.596  0.00  0.00    +0.000 C 
BRANCH  18  20
ATOM     19  N   UNL     1       6.096   7.078  16.848  0.00  0.00    +0.000 N 
ATOM     20  C   UNL     1       7.259   7.179  17.576  0.00  0.00    +0.000 C 
ATOM     21  O   UNL     1       7.774   6.227  18.150  0.00  0.00    +0.000 OA
ATOM     22  H   UNL     1       5.835   7.843  16.235  0.00  0.00    +0.000 HD
BRANCH  19  23
ATOM     23  C   UNL     1       5.438   5.801  16.629  0.00  0.00    +0.000 C 
BRANCH  23  25
ATOM     24  C   UNL     1       3.606   6.959  17.921  0.00  0.00    +0.000 C 
ATOM     25  C   UNL     1       4.084   5.878  17.285  0.00  0.00    +0.000 C 
ENDBRANCH  23  25
BRANCH  23  26
ATOM     26  C   UNL     1       5.383   5.391  15.151  0.00  0.00    +0.000 C 
BRANCH  26  27
ATOM     27  C   UNL     1       6.666   4.796  14.622  0.00  0.00    +0.000 C 
ATOM     28  O   UNL     1       7.751   5.356  14.583  0.00  0.00    +0.000 OA
BRANCH  27  29
ATOM     29  O   UNL     1       6.505   3.521  14.190  0.00  0.00    +0.000 OA
ATOM     30  H   UNL     1       7.034   3.296  13.401  0.00  0.00    +0.000 HD
ENDBRANCH  27  29
ENDBRANCH  26  27
ENDBRANCH  23  26
ENDBRANCH  19  23
ENDBRANCH  18  20
ENDBRANCH  17  18
ENDBRANCH   1  17
TORSDOF 10
ENDMDL
MODEL 7
REMARK VINA RESULT:      -6.7      1.452      1.644
REMARK  Name = 
REMARK  10 active torsions:
REMARK  status: ('A' for Active; 'I' for Inactive)
REMARK    1  A    between atoms: C_2  and  C_3
REMARK    2  A    between atoms: C_3  and  C_4
REMARK    3  A    between atoms: C_3  and  N_8
REMARK    4  A    between atoms: C_4  and  C_5
REMARK    5  A    between atoms: C_5  and  O_7
REMARK    6  A    between atoms: C_9  and  C_11
REMARK    7  A    between atoms: C_11  and  C_12
REMARK    8  A    between atoms: C_12  and  C_13
REMARK    9  A    between atoms: N_15  and  C_16
REMARK   10  A    between atoms: C_19  and  C_20
REMARK                            x       y       z     vdW  Elec       q    Type
REMARK                         _______ _______ _______ _____ _____    ______ ____
ROOT
ATOM      1  C   UNL     1       2.365   5.211  19.907  0.00  0.00    +0.000 C 
ATOM      2  O   UNL     1       1.354   4.856  19.309  0.00  0.00    +0.000 OA
ATOM      3  N   UNL     1       2.715   6.516  20.217  0.00  0.00    +0.000 N 
ATOM      4  H   UNL     1       3.658   6.676  20.548  0.00  0.00    +0.000 HD
ENDROOT
BRANCH   3   5
ATOM      5  C   UNL     1       1.930   7.667  19.978  0.00  0.00    +0.000 A 
ATOM      6  C   UNL     1       1.080   8.232  20.934  0.00  0.00    +0.000 A 
ATOM      7  C   UNL     1       0.329   9.377  20.642  0.00  0.00    +0.000 A 
ATOM      8  C   UNL     1       0.420   9.977  19.385  0.00  0.00    +0.000 A 
ATOM      9  C   UNL     1       1.265   9.421  18.421  0.00  0.00    +0.000 A 
ATOM     10  C   UNL     1       2.025   8.281  18.721  0.00  0.00    +0.000 A 
BRANCH   8  11
ATOM     11  C   UNL     1      -0.385  11.198  19.095  0.00  0.00    +0.000 C 
ATOM     12  N   UNL     1      -0.339  11.818  17.957  0.00  0.00    +0.000 NA
ATOM     13  N   UNL     1      -1.220  11.720  20.038  0.00  0.00    +0.000 N 
ATOM     14  H   UNL     1       0.348  11.398  17.329  0.00  0.00    +0.000 HD
ATOM     15  H   UNL     1      -1.705  11.055  20.627  0.00  0.00    +0.000 HD
ATOM     16  H   UNL     1      -1.842  12.411  19.630  0.00  0.00    +0.000 HD
ENDBRANCH   8  11
ENDBRANCH   3   5
BRANCH   1  17
ATOM     17  C   UNL     1       3.384   4.183  20.352  0.00  0.00    +0.000 C 
BRANCH  17  18
ATOM     18  C   UNL     1       3.531   3.050  19.345  0.00  0.00    +0.000 C 
BRANCH  18  20
ATOM     19  N   UNL     1       5.286   4.454  18.453  0.00  0.00    +0.000 N 
ATOM     20  C   UNL     1       4.373   3.469  18.155  0.00  0.00    +0.000 C 
ATOM     21  O   UNL     1       4.254   2.982  17.037  0.00  0.00    +0.000 OA
ATOM     22  H   UNL     1       5.475   4.666  19.427  0.00  0.00    +0.000 HD
BRANCH  19  23
ATOM     23  C   UNL     1       6.249   4.926  17.474  0.00  0.00    +0.000 C 
BRANCH  23  25
ATOM     24  C   UNL     1       4.982   6.501  15.964  0.00  0.00    +0.000 C 
ATOM     25  C   UNL     1       5.788   6.286  17.014  0.00  0.00    +0.000 C 
ENDBRANCH  23  25
BRANCH  23  26
ATOM     26  C   UNL     1       7.697   4.908  17.986  0.00  0.00    +0.000 C 
BRANCH  26  27
ATOM     27  C   UNL     1       7.993   5.940  19.047  0.00  0.00    +0.000 C 
ATOM     28  O   UNL     1       8.360   7.088  18.847  0.00  0.00    +0.000 OA
BRANCH  27  29
ATOM     29  O   UNL     1       7.792   5.464  20.301  0.00  0.00    +0.000 OA
ATOM     30  H   UNL     1       8.612   5.222  20.773  0.00  0.00    +0.000 HD
ENDBRANCH  27  29
ENDBRANCH  26  27
ENDBRANCH  23  26
ENDBRANCH  19  23
ENDBRANCH  18  20
ENDBRANCH  17  18
ENDBRANCH   1  17
TORSDOF 10
ENDMDL
MODEL 8
REMARK VINA RESULT:      -6.7      1.480      2.204
REMARK  Name = 
REMARK  10 active torsions:
REMARK  status: ('A' for Active; 'I' for Inactive)
REMARK    1  A    between atoms: C_2  and  C_3
REMARK    2  A    between atoms: C_3  and  C_4
REMARK    3  A    between atoms: C_3  and  N_8
REMARK    4  A    between atoms: C_4  and  C_5
REMARK    5  A    between atoms: C_5  and  O_7
REMARK    6  A    between atoms: C_9  and  C_11
REMARK    7  A    between atoms: C_11  and  C_12
REMARK    8  A    between atoms: C_12  and  C_13
REMARK    9  A    between atoms: N_15  and  C_16
REMARK   10  A    between atoms: C_19  and  C_20
REMARK                            x       y       z     vdW  Elec       q    Type
REMARK                         _______ _______ _______ _____ _____    ______ ____
ROOT
ATOM      1  C   UNL     1       2.141   4.308  19.977  0.00  0.00    +0.000 C 
ATOM      2  O   UNL     1       1.186   4.144  19.224  0.00  0.00    +0.000 OA
ATOM      3  N   UNL     1       2.699   5.525  20.335  0.00  0.00    +0.000 N 
ATOM      4  H   UNL     1       3.590   5.502  20.815  0.00  0.00    +0.000 HD
ENDROOT
BRANCH   3   5
ATOM      5  C   UNL     1       2.217   6.802  19.970  0.00  0.00    +0.000 A 
ATOM      6  C   UNL     1       2.392   7.358  18.699  0.00  0.00    +0.000 A 
ATOM      7  C   UNL     1       1.888   8.627  18.393  0.00  0.00    +0.000 A 
ATOM      8  C   UNL     1       1.195   9.361  19.356  0.00  0.00    +0.000 A 
ATOM      9  C   UNL     1       1.014   8.816  20.632  0.00  0.00    +0.000 A 
ATOM     10  C   UNL     1       1.510   7.539  20.930  0.00  0.00    +0.000 A 
BRANCH   8  11
ATOM     11  C   UNL     1       0.662  10.710  19.010  0.00  0.00    +0.000 C 
ATOM     12  N   UNL     1      -0.130  10.918  18.006  0.00  0.00    +0.000 NA
ATOM     13  N   UNL     1       0.997  11.800  19.756  0.00  0.00    +0.000 N 
ATOM     14  H   UNL     1      -0.287  10.063  17.469  0.00  0.00    +0.000 HD
ATOM     15  H   UNL     1       1.088  11.653  20.753  0.00  0.00    +0.000 HD
ATOM     16  H   UNL     1       0.404  12.593  19.528  0.00  0.00    +0.000 HD
ENDBRANCH   8  11
ENDBRANCH   3   5
BRANCH   1  17
ATOM     17  C   UNL     1       2.843   3.111  20.584  0.00  0.00    +0.000 C 
BRANCH  17  18
ATOM     18  C   UNL     1       4.226   2.893  19.985  0.00  0.00    +0.000 C 
BRANCH  18  20
ATOM     19  N   UNL     1       5.018   4.159  18.084  0.00  0.00    +0.000 N 
ATOM     20  C   UNL     1       4.223   3.110  18.485  0.00  0.00    +0.000 C 
ATOM     21  O   UNL     1       3.579   2.421  17.702  0.00  0.00    +0.000 OA
ATOM     22  H   UNL     1       5.678   4.553  18.746  0.00  0.00    +0.000 HD
BRANCH  19  23
ATOM     23  C   UNL     1       5.224   4.470  16.680  0.00  0.00    +0.000 C 
BRANCH  23  25
ATOM     24  C   UNL     1       5.361   6.984  16.513  0.00  0.00    +0.000 C 
ATOM     25  C   UNL     1       4.656   5.845  16.439  0.00  0.00    +0.000 C 
ENDBRANCH  23  25
BRANCH  23  26
ATOM     26  C   UNL     1       6.685   4.322  16.232  0.00  0.00    +0.000 C 
BRANCH  26  27
ATOM     27  C   UNL     1       6.895   4.454  14.743  0.00  0.00    +0.000 C 
ATOM     28  O   UNL     1       6.355   3.776  13.882  0.00  0.00    +0.000 OA
BRANCH  27  29
ATOM     29  O   UNL     1       7.764   5.446  14.430  0.00  0.00    +0.000 OA
ATOM     30  H   UNL     1       7.742   5.717  13.492  0.00  0.00    +0.000 HD
ENDBRANCH  27  29
ENDBRANCH  26  27
ENDBRANCH  23  26
ENDBRANCH  19  23
ENDBRANCH  18  20
ENDBRANCH  17  18
ENDBRANCH   1  17
TORSDOF 10
ENDMDL
MODEL 9
REMARK VINA RESULT:      -6.6      1.209      1.678
REMARK  Name = 
REMARK  10 active torsions:
REMARK  status: ('A' for Active; 'I' for Inactive)
REMARK    1  A    between atoms: C_2  and  C_3
REMARK    2  A    between atoms: C_3  and  C_4
REMARK    3  A    between atoms: C_3  and  N_8
REMARK    4  A    between atoms: C_4  and  C_5
REMARK    5  A    between atoms: C_5  and  O_7
REMARK    6  A    between atoms: C_9  and  C_11
REMARK    7  A    between atoms: C_11  and  C_12
REMARK    8  A    between atoms: C_12  and  C_13
REMARK    9  A    between atoms: N_15  and  C_16
REMARK   10  A    between atoms: C_19  and  C_20
REMARK                            x       y       z     vdW  Elec       q    Type
REMARK                         _______ _______ _______ _____ _____    ______ ____
ROOT
ATOM      1  C   UNL     1       1.766   3.922  18.586  0.00  0.00    +0.000 C 
ATOM      2  O   UNL     1       1.087   4.080  17.577  0.00  0.00    +0.000 OA
ATOM      3  N   UNL     1       2.322   4.927  19.362  0.00  0.00    +0.000 N 
ATOM      4  H   UNL     1       3.006   4.651  20.056  0.00  0.00    +0.000 HD
ENDROOT
BRANCH   3   5
ATOM      5  C   UNL     1       2.135   6.317  19.184  0.00  0.00    +0.000 A 
ATOM      6  C   UNL     1       2.366   6.976  17.973  0.00  0.00    +0.000 A 
ATOM      7  C   UNL     1       2.159   8.356  17.855  0.00  0.00    +0.000 A 
ATOM      8  C   UNL     1       1.713   9.098  18.949  0.00  0.00    +0.000 A 
ATOM      9  C   UNL     1       1.480   8.450  20.165  0.00  0.00    +0.000 A 
ATOM     10  C   UNL     1       1.677   7.066  20.277  0.00  0.00    +0.000 A 
BRANCH   8  11
ATOM     11  C   UNL     1       1.496  10.566  18.802  0.00  0.00    +0.000 C 
ATOM     12  N   UNL     1       2.065  11.273  17.877  0.00  0.00    +0.000 NA
ATOM     13  N   UNL     1       0.670  11.234  19.656  0.00  0.00    +0.000 N 
ATOM     14  H   UNL     1       2.707  10.710  17.316  0.00  0.00    +0.000 HD
ATOM     15  H   UNL     1      -0.158  10.738  19.963  0.00  0.00    +0.000 HD
ATOM     16  H   UNL     1       0.464  12.166  19.309  0.00  0.00    +0.000 HD
ENDBRANCH   8  11
ENDBRANCH   3   5
BRANCH   1  17
ATOM     17  C   UNL     1       2.092   2.525  19.070  0.00  0.00    +0.000 C 
BRANCH  17  18
ATOM     18  C   UNL     1       3.339   1.963  18.401  0.00  0.00    +0.000 C 
BRANCH  18  20
ATOM     19  N   UNL     1       5.008   3.422  17.434  0.00  0.00    +0.000 N 
ATOM     20  C   UNL     1       4.537   2.871  18.604  0.00  0.00    +0.000 C 
ATOM     21  O   UNL     1       5.039   3.094  19.699  0.00  0.00    +0.000 OA
ATOM     22  H   UNL     1       4.433   3.364  16.600  0.00  0.00    +0.000 HD
BRANCH  19  23
ATOM     23  C   UNL     1       6.089   4.391  17.426  0.00  0.00    +0.000 C 
BRANCH  23  25
ATOM     24  C   UNL     1       6.187   3.827  14.968  0.00  0.00    +0.000 C 
ATOM     25  C   UNL     1       6.769   4.291  16.085  0.00  0.00    +0.000 C 
ENDBRANCH  23  25
BRANCH  23  26
ATOM     26  C   UNL     1       5.633   5.815  17.779  0.00  0.00    +0.000 C 
BRANCH  26  27
ATOM     27  C   UNL     1       6.140   6.881  16.838  0.00  0.00    +0.000 C 
ATOM     28  O   UNL     1       7.220   7.445  16.912  0.00  0.00    +0.000 OA
BRANCH  27  29
ATOM     29  O   UNL     1       5.255   7.159  15.849  0.00  0.00    +0.000 OA
ATOM     30  H   UNL     1       4.783   8.006  15.961  0.00  0.00    +0.000 HD
ENDBRANCH  27  29
ENDBRANCH  26  27
ENDBRANCH  23  26
ENDBRANCH  19  23
ENDBRANCH  18  20
ENDBRANCH  17  18
ENDBRANCH   1  17
TORSDOF 10
ENDMDL
