MODEL 1
REMARK VINA RESULT:      -7.6      0.000      0.000
REMARK  Name = 
REMARK  6 active torsions:
REMARK  status: ('A' for Active; 'I' for Inactive)
REMARK    1  A    between atoms: C_1  and  O_2
REMARK    2  A    between atoms: O_2  and  C_3
REMARK    3  A    between atoms: C_6  and  C_7
REMARK    4  A    between atoms: C_16  and  N_17
REMARK    5  A    between atoms: C_25  and  C_26
REMARK    6  A    between atoms: C_29  and  O_30
REMARK                            x       y       z     vdW  Elec       q    Type
REMARK                         _______ _______ _______ _____ _____    ______ ____
ROOT
ATOM      1  C   UNL     1       3.690   5.438  19.730  0.00  0.00    +0.000 C 
ATOM      2  C   UNL     1       2.967   6.756  19.551  0.00  0.00    +0.000 C 
ATOM      3  C   UNL     1       1.701   6.493  20.321  0.00  0.00    +0.000 C 
ATOM      4  N   UNL     1       0.798   7.488  20.598  0.00  0.00    +0.000 N 
ATOM      5  C   UNL     1       0.850   8.782  20.207  0.00  0.00    +0.000 A 
ATOM      6  N   UNL     1       1.801   9.305  19.465  0.00  0.00    +0.000 NA
ATOM      7  C   UNL     1       1.577  10.641  19.228  0.00  0.00    +0.000 A 
ATOM      8  C   UNL     1       2.413  11.485  18.467  0.00  0.00    +0.000 A 
ATOM      9  C   UNL     1       2.073  12.829  18.298  0.00  0.00    +0.000 A 
ATOM     10  C   UNL     1       0.906  13.330  18.884  0.00  0.00    +0.000 A 
ATOM     11  C   UNL     1       0.057  12.510  19.651  0.00  0.00    +0.000 A 
ATOM     12  C   UNL     1       0.421  11.160  19.804  0.00  0.00    +0.000 A 
ATOM     13  S   UNL     1      -0.382   9.896  20.663  0.00  0.00    +0.000 S 
ATOM     14  N   UNL     1       1.538   5.250  20.674  0.00  0.00    +0.000 NA
ATOM     15  N   UNL     1       2.648   4.551  20.238  0.00  0.00    +0.000 N 
ATOM     16  C   UNL     1       2.945   3.276  20.699  0.00  0.00    +0.000 C 
ATOM     17  C   UNL     1       1.933   2.609  21.598  0.00  0.00    +0.000 C 
ATOM     18  O   UNL     1       3.993   2.692  20.417  0.00  0.00    +0.000 OA
ATOM     19  H   UNL     1      -0.004   7.184  21.136  0.00  0.00    +0.000 HD
ENDROOT
BRANCH   1  23
ATOM     20  C   UNL     1       5.633   4.071  16.106  0.00  0.00    +0.000 A 
ATOM     21  C   UNL     1       4.242   4.087  16.232  0.00  0.00    +0.000 A 
ATOM     22  C   UNL     1       3.630   4.582  17.382  0.00  0.00    +0.000 A 
ATOM     23  C   UNL     1       4.399   5.084  18.442  0.00  0.00    +0.000 A 
ATOM     24  C   UNL     1       5.795   5.091  18.312  0.00  0.00    +0.000 A 
ATOM     25  C   UNL     1       6.405   4.584  17.154  0.00  0.00    +0.000 A 
BRANCH  20  27
ATOM     26  C   UNL     1       6.509   4.384  13.902  0.00  0.00    +0.000 C 
ATOM     27  O   UNL     1       6.045   3.517  14.924  0.00  0.00    +0.000 OA
ENDBRANCH  20  27
BRANCH  25  28
ATOM     28  O   UNL     1       7.773   4.582  17.099  0.00  0.00    +0.000 OA
ATOM     29  H   UNL     1       8.052   4.793  16.194  0.00  0.00    +0.000 HD
ENDBRANCH  25  28
ENDBRANCH   1  23
BRANCH  10  30
ATOM     30  N   UNL     1       0.557  14.745  18.695  0.00  0.00    +0.000 N 
ATOM     31  O   UNL     1       1.465  15.524  18.373  0.00  0.00    +0.000 OA
ATOM     32  O   UNL     1      -0.623  15.072  18.871  0.00  0.00    +0.000 OA
ENDBRANCH  10  30
TORSDOF 4
ENDMDL
MODEL 2
REMARK VINA RESULT:      -7.5      2.497      9.028
REMARK  Name = 
REMARK  6 active torsions:
REMARK  status: ('A' for Active; 'I' for Inactive)
REMARK    1  A    between atoms: C_1  and  O_2
REMARK    2  A    between atoms: O_2  and  C_3
REMARK    3  A    between atoms: C_6  and  C_7
REMARK    4  A    between atoms: C_16  and  N_17
REMARK    5  A    between atoms: C_25  and  C_26
REMARK    6  A    between atoms: C_29  and  O_30
REMARK                            x       y       z     vdW  Elec       q    Type
REMARK                         _______ _______ _______ _____ _____    ______ ____
ROOT
ATOM      1  C   UNL     1       0.263  10.761  19.735  0.00  0.00    +0.000 C 
ATOM      2  C   UNL     1       1.301   9.733  19.338  0.00  0.00    +0.000 C 
ATOM      3  C   UNL     1       1.251   8.806  20.523  0.00  0.00    +0.000 C 
ATOM      4  N   UNL     1       1.903   7.599  20.529  0.00  0.00    +0.000 N 
ATOM      5  C   UNL     1       2.700   7.086  19.564  0.00  0.00    +0.000 A 
ATOM      6  N   UNL     1       2.993   7.688  18.433  0.00  0.00    +0.000 NA
ATOM      7  C   UNL     1       3.829   6.921  17.656  0.00  0.00    +0.000 A 
ATOM      8  C   UNL     1       4.327   7.286  16.388  0.00  0.00    +0.000 A 
ATOM      9  C   UNL     1       5.173   6.417  15.698  0.00  0.00    +0.000 A 
ATOM     10  C   UNL     1       5.523   5.189  16.268  0.00  0.00    +0.000 A 
ATOM     11  C   UNL     1       5.038   4.799  17.531  0.00  0.00    +0.000 A 
ATOM     12  C   UNL     1       4.189   5.693  18.206  0.00  0.00    +0.000 A 
ATOM     13  S   UNL     1       3.431   5.537  19.748  0.00  0.00    +0.000 S 
ATOM     14  N   UNL     1       0.561   9.261  21.530  0.00  0.00    +0.000 NA
ATOM     15  N   UNL     1       0.045  10.487  21.152  0.00  0.00    +0.000 N 
ATOM     16  C   UNL     1      -0.973  11.108  21.861  0.00  0.00    +0.000 C 
ATOM     17  C   UNL     1      -1.415  10.464  23.152  0.00  0.00    +0.000 C 
ATOM     18  O   UNL     1      -1.528  12.137  21.469  0.00  0.00    +0.000 OA
ATOM     19  H   UNL     1       1.777   7.064  21.379  0.00  0.00    +0.000 HD
ENDROOT
BRANCH   1  23
ATOM     20  C   UNL     1       1.702  14.759  18.880  0.00  0.00    +0.000 A 
ATOM     21  C   UNL     1       2.572  13.727  19.242  0.00  0.00    +0.000 A 
ATOM     22  C   UNL     1       2.101  12.433  19.459  0.00  0.00    +0.000 A 
ATOM     23  C   UNL     1       0.739  12.133  19.312  0.00  0.00    +0.000 A 
ATOM     24  C   UNL     1      -0.135  13.159  18.927  0.00  0.00    +0.000 A 
ATOM     25  C   UNL     1       0.344  14.462  18.717  0.00  0.00    +0.000 A 
BRANCH  20  27
ATOM     26  C   UNL     1       3.141  16.170  17.592  0.00  0.00    +0.000 C 
ATOM     27  O   UNL     1       2.343  15.960  18.745  0.00  0.00    +0.000 OA
ENDBRANCH  20  27
BRANCH  25  28
ATOM     28  O   UNL     1      -0.562  15.431  18.379  0.00  0.00    +0.000 OA
ATOM     29  H   UNL     1      -1.092  15.653  19.161  0.00  0.00    +0.000 HD
ENDBRANCH  25  28
ENDBRANCH   1  23
BRANCH  10  30
ATOM     30  N   UNL     1       6.419   4.283  15.534  0.00  0.00    +0.000 N 
ATOM     31  O   UNL     1       5.912   3.533  14.688  0.00  0.00    +0.000 OA
ATOM     32  O   UNL     1       7.625   4.326  15.806  0.00  0.00    +0.000 OA
ENDBRANCH  10  30
TORSDOF 4
ENDMDL
MODEL 3
REMARK VINA RESULT:      -7.4      0.960      1.156
REMARK  Name = 
REMARK  6 active torsions:
REMARK  status: ('A' for Active; 'I' for Inactive)
REMARK    1  A    between atoms: C_1  and  O_2
REMARK    2  A    between atoms: O_2  and  C_3
REMARK    3  A    between atoms: C_6  and  C_7
REMARK    4  A    between atoms: C_16  and  N_17
REMARK    5  A    between atoms: C_25  and  C_26
REMARK    6  A    between atoms: C_29  and  O_30
REMARK                            x       y       z     vdW  Elec       q    Type
REMARK                         _______ _______ _______ _____ _____    ______ ____
ROOT
ATOM      1  C   UNL     1       4.092   5.639  19.365  0.00  0.00    +0.000 C 
ATOM      2  C   UNL     1       3.152   6.826  19.377  0.00  0.00    +0.000 C 
ATOM      3  C   UNL     1       2.049   6.308  20.260  0.00  0.00    +0.000 C 
ATOM      4  N   UNL     1       1.042   7.118  20.716  0.00  0.00    +0.000 N 
ATOM      5  C   UNL     1       0.837   8.424  20.428  0.00  0.00    +0.000 A 
ATOM      6  N   UNL     1       1.593   9.143  19.629  0.00  0.00    +0.000 NA
ATOM      7  C   UNL     1       1.132  10.435  19.528  0.00  0.00    +0.000 A 
ATOM      8  C   UNL     1       1.721  11.453  18.749  0.00  0.00    +0.000 A 
ATOM      9  C   UNL     1       1.154  12.728  18.728  0.00  0.00    +0.000 A 
ATOM     10  C   UNL     1       0.004  12.989  19.480  0.00  0.00    +0.000 A 
ATOM     11  C   UNL     1      -0.602  11.993  20.269  0.00  0.00    +0.000 A 
ATOM     12  C   UNL     1      -0.012  10.716  20.271  0.00  0.00    +0.000 A 
ATOM     13  S   UNL     1      -0.490   9.286  21.109  0.00  0.00    +0.000 S 
ATOM     14  N   UNL     1       2.131   5.035  20.528  0.00  0.00    +0.000 NA
ATOM     15  N   UNL     1       3.276   4.560  19.913  0.00  0.00    +0.000 N 
ATOM     16  C   UNL     1       3.827   3.328  20.233  0.00  0.00    +0.000 C 
ATOM     17  C   UNL     1       3.054   2.446  21.184  0.00  0.00    +0.000 C 
ATOM     18  O   UNL     1       4.912   2.946  19.789  0.00  0.00    +0.000 OA
ATOM     19  H   UNL     1       0.372   6.651  21.315  0.00  0.00    +0.000 HD
ENDROOT
BRANCH   1  23
ATOM     20  C   UNL     1       5.876   4.863  15.493  0.00  0.00    +0.000 A 
ATOM     21  C   UNL     1       4.663   4.282  15.873  0.00  0.00    +0.000 A 
ATOM     22  C   UNL     1       4.073   4.585  17.099  0.00  0.00    +0.000 A 
ATOM     23  C   UNL     1       4.683   5.489  17.981  0.00  0.00    +0.000 A 
ATOM     24  C   UNL     1       5.888   6.092  17.596  0.00  0.00    +0.000 A 
ATOM     25  C   UNL     1       6.481   5.777  16.364  0.00  0.00    +0.000 A 
BRANCH  20  27
ATOM     26  C   UNL     1       5.397   3.709  13.453  0.00  0.00    +0.000 C 
ATOM     27  O   UNL     1       6.311   4.416  14.275  0.00  0.00    +0.000 OA
ENDBRANCH  20  27
BRANCH  25  28
ATOM     28  O   UNL     1       7.677   6.367  16.057  0.00  0.00    +0.000 OA
ATOM     29  H   UNL     1       8.023   6.809  16.849  0.00  0.00    +0.000 HD
ENDBRANCH  25  28
ENDBRANCH   1  23
BRANCH  10  30
ATOM     30  N   UNL     1      -0.587  14.335  19.447  0.00  0.00    +0.000 N 
ATOM     31  O   UNL     1      -1.551  14.559  20.193  0.00  0.00    +0.000 OA
ATOM     32  O   UNL     1      -0.086  15.161  18.676  0.00  0.00    +0.000 OA
ENDBRANCH  10  30
TORSDOF 4
ENDMDL
MODEL 4
REMARK VINA RESULT:      -7.2      2.562      8.751
REMARK  Name = 
REMARK  6 active torsions:
REMARK  status: ('A' for Active; 'I' for Inactive)
REMARK    1  A    between atoms: C_1  and  O_2
REMARK    2  A    between atoms: O_2  and  C_3
REMARK    3  A    between atoms: C_6  and  C_7
REMARK    4  A    between atoms: C_16  and  N_17
REMARK    5  A    between atoms: C_25  and  C_26
REMARK    6  A    between atoms: C_29  and  O_30
REMARK                            x       y       z     vdW  Elec       q    Type
REMARK                         _______ _______ _______ _____ _____    ______ ____
ROOT
ATOM      1  C   UNL     1       0.393  10.801  20.007  0.00  0.00    +0.000 C 
ATOM      2  C   UNL     1       1.378   9.737  19.568  0.00  0.00    +0.000 C 
ATOM      3  C   UNL     1       1.211   8.725  20.668  0.00  0.00    +0.000 C 
ATOM      4  N   UNL     1       1.780   7.479  20.601  0.00  0.00    +0.000 N 
ATOM      5  C   UNL     1       2.585   6.990  19.631  0.00  0.00    +0.000 A 
ATOM      6  N   UNL     1       2.970   7.658  18.567  0.00  0.00    +0.000 NA
ATOM      7  C   UNL     1       3.789   6.900  17.764  0.00  0.00    +0.000 A 
ATOM      8  C   UNL     1       4.368   7.329  16.551  0.00  0.00    +0.000 A 
ATOM      9  C   UNL     1       5.186   6.460  15.826  0.00  0.00    +0.000 A 
ATOM     10  C   UNL     1       5.427   5.169  16.307  0.00  0.00    +0.000 A 
ATOM     11  C   UNL     1       4.859   4.714  17.512  0.00  0.00    +0.000 A 
ATOM     12  C   UNL     1       4.040   5.609  18.223  0.00  0.00    +0.000 A 
ATOM     13  S   UNL     1       3.202   5.383  19.715  0.00  0.00    +0.000 S 
ATOM     14  N   UNL     1       0.506   9.145  21.680  0.00  0.00    +0.000 NA
ATOM     15  N   UNL     1       0.092  10.431  21.385  0.00  0.00    +0.000 N 
ATOM     16  C   UNL     1      -0.915  11.062  22.101  0.00  0.00    +0.000 C 
ATOM     17  C   UNL     1      -1.458  10.349  23.315  0.00  0.00    +0.000 C 
ATOM     18  O   UNL     1      -1.382  12.156  21.773  0.00  0.00    +0.000 OA
ATOM     19  H   UNL     1       1.580   6.887  21.398  0.00  0.00    +0.000 HD
ENDROOT
BRANCH   1  23
ATOM     20  C   UNL     1       2.212  14.567  18.870  0.00  0.00    +0.000 A 
ATOM     21  C   UNL     1       1.106  14.050  18.190  0.00  0.00    +0.000 A 
ATOM     22  C   UNL     1       0.498  12.866  18.602  0.00  0.00    +0.000 A 
ATOM     23  C   UNL     1       0.978  12.166  19.718  0.00  0.00    +0.000 A 
ATOM     24  C   UNL     1       2.072  12.691  20.418  0.00  0.00    +0.000 A 
ATOM     25  C   UNL     1       2.686  13.879  19.994  0.00  0.00    +0.000 A 
BRANCH  20  27
ATOM     26  C   UNL     1       3.794  15.613  17.412  0.00  0.00    +0.000 C 
ATOM     27  O   UNL     1       2.690  15.714  18.297  0.00  0.00    +0.000 OA
ENDBRANCH  20  27
BRANCH  25  28
ATOM     28  O   UNL     1       3.775  14.325  20.693  0.00  0.00    +0.000 OA
ATOM     29  H   UNL     1       3.673  15.275  20.864  0.00  0.00    +0.000 HD
ENDBRANCH  25  28
ENDBRANCH   1  23
BRANCH  10  30
ATOM     30  N   UNL     1       6.294   4.265  15.537  0.00  0.00    +0.000 N 
ATOM     31  O   UNL     1       5.750   3.364  14.884  0.00  0.00    +0.000 OA
ATOM     32  O   UNL     1       7.514   4.459  15.590  0.00  0.00    +0.000 OA
ENDBRANCH  10  30
TORSDOF 4
ENDMDL
MODEL 5
REMARK VINA RESULT:      -7.2      2.870     10.287
REMARK  Name = 
REMARK  6 active torsions:
REMARK  status: ('A' for Active; 'I' for Inactive)
REMARK    1  A    between atoms: C_1  and  O_2
REMARK    2  A    between atoms: O_2  and  C_3
REMARK    3  A    between atoms: C_6  and  C_7
REMARK    4  A    between atoms: C_16  and  N_17
REMARK    5  A    between atoms: C_25  and  C_26
REMARK    6  A    between atoms: C_29  and  O_30
REMARK                            x       y       z     vdW  Elec       q    Type
REMARK                         _______ _______ _______ _____ _____    ______ ____
ROOT
ATOM      1  C   UNL     1       0.631  12.551  20.606  0.00  0.00    +0.000 C 
ATOM      2  C   UNL     1       0.905  11.122  20.186  0.00  0.00    +0.000 C 
ATOM      3  C   UNL     1       1.612  11.341  18.876  0.00  0.00    +0.000 C 
ATOM      4  N   UNL     1       2.226  10.317  18.201  0.00  0.00    +0.000 N 
ATOM      5  C   UNL     1       2.253   9.007  18.535  0.00  0.00    +0.000 A 
ATOM      6  N   UNL     1       1.668   8.490  19.593  0.00  0.00    +0.000 NA
ATOM      7  C   UNL     1       1.868   7.132  19.665  0.00  0.00    +0.000 A 
ATOM      8  C   UNL     1       1.369   6.286  20.678  0.00  0.00    +0.000 A 
ATOM      9  C   UNL     1       1.641   4.917  20.637  0.00  0.00    +0.000 A 
ATOM     10  C   UNL     1       2.407   4.392  19.591  0.00  0.00    +0.000 A 
ATOM     11  C   UNL     1       2.920   5.214  18.569  0.00  0.00    +0.000 A 
ATOM     12  C   UNL     1       2.630   6.588  18.633  0.00  0.00    +0.000 A 
ATOM     13  S   UNL     1       3.089   7.859  17.560  0.00  0.00    +0.000 S 
ATOM     14  N   UNL     1       1.569  12.570  18.443  0.00  0.00    +0.000 NA
ATOM     15  N   UNL     1       0.886  13.313  19.389  0.00  0.00    +0.000 N 
ATOM     16  C   UNL     1       0.915  14.700  19.396  0.00  0.00    +0.000 C 
ATOM     17  C   UNL     1       1.608  15.388  18.245  0.00  0.00    +0.000 C 
ATOM     18  O   UNL     1       0.417  15.373  20.301  0.00  0.00    +0.000 OA
ATOM     19  H   UNL     1       2.679  10.599  17.340  0.00  0.00    +0.000 HD
ENDROOT
BRANCH   1  23
ATOM     20  C   UNL     1      -3.257  12.393  22.514  0.00  0.00    +0.000 A 
ATOM     21  C   UNL     1      -2.074  12.236  23.242  0.00  0.00    +0.000 A 
ATOM     22  C   UNL     1      -0.829  12.345  22.624  0.00  0.00    +0.000 A 
ATOM     23  C   UNL     1      -0.734  12.624  21.253  0.00  0.00    +0.000 A 
ATOM     24  C   UNL     1      -1.916  12.804  20.522  0.00  0.00    +0.000 A 
ATOM     25  C   UNL     1      -3.166  12.685  21.148  0.00  0.00    +0.000 A 
BRANCH  20  27
ATOM     26  C   UNL     1      -4.272  12.459  24.679  0.00  0.00    +0.000 C 
ATOM     27  O   UNL     1      -4.373  12.216  23.285  0.00  0.00    +0.000 OA
ENDBRANCH  20  27
BRANCH  25  28
ATOM     28  O   UNL     1      -4.288  12.834  20.377  0.00  0.00    +0.000 OA
ATOM     29  H   UNL     1      -5.015  12.333  20.778  0.00  0.00    +0.000 HD
ENDBRANCH  25  28
ENDBRANCH   1  23
BRANCH  10  30
ATOM     30  N   UNL     1       2.683   2.948  19.556  0.00  0.00    +0.000 N 
ATOM     31  O   UNL     1       3.869   2.589  19.581  0.00  0.00    +0.000 OA
ATOM     32  O   UNL     1       1.715   2.182  19.502  0.00  0.00    +0.000 OA
ENDBRANCH  10  30
TORSDOF 4
ENDMDL
MODEL 6
REMARK VINA RESULT:      -7.1      2.542      8.930
REMARK  Name = 
REMARK  6 active torsions:
REMARK  status: ('A' for Active; 'I' for Inactive)
REMARK    1  A    between atoms: C_1  and  O_2
REMARK    2  A    between atoms: O_2  and  C_3
REMARK    3  A    between atoms: C_6  and  C_7
REMARK    4  A    between atoms: C_16  and  N_17
REMARK    5  A    between atoms: C_25  and  C_26
REMARK    6  A    between atoms: C_29  and  O_30
REMARK                            x       y       z     vdW  Elec       q    Type
REMARK                         _______ _______ _______ _____ _____    ______ ____
ROOT
ATOM      1  C   UNL     1       0.664  12.102  20.179  0.00  0.00    +0.000 C 
ATOM      2  C   UNL     1       1.269  10.726  19.994  0.00  0.00    +0.000 C 
ATOM      3  C   UNL     1       0.673   9.993  21.165  0.00  0.00    +0.000 C 
ATOM      4  N   UNL     1       0.793   8.635  21.310  0.00  0.00    +0.000 N 
ATOM      5  C   UNL     1       1.470   7.776  20.514  0.00  0.00    +0.000 A 
ATOM      6  N   UNL     1       2.152   8.122  19.445  0.00  0.00    +0.000 NA
ATOM      7  C   UNL     1       2.736   7.031  18.845  0.00  0.00    +0.000 A 
ATOM      8  C   UNL     1       3.533   7.069  17.682  0.00  0.00    +0.000 A 
ATOM      9  C   UNL     1       4.072   5.887  17.171  0.00  0.00    +0.000 A 
ATOM     10  C   UNL     1       3.820   4.672  17.816  0.00  0.00    +0.000 A 
ATOM     11  C   UNL     1       3.026   4.606  18.977  0.00  0.00    +0.000 A 
ATOM     12  C   UNL     1       2.496   5.811  19.472  0.00  0.00    +0.000 A 
ATOM     13  S   UNL     1       1.500   6.087  20.854  0.00  0.00    +0.000 S 
ATOM     14  N   UNL     1       0.062  10.761  22.022  0.00  0.00    +0.000 NA
ATOM     15  N   UNL     1       0.133  12.055  21.537  0.00  0.00    +0.000 N 
ATOM     16  C   UNL     1      -0.662  13.074  22.039  0.00  0.00    +0.000 C 
ATOM     17  C   UNL     1      -1.521  12.760  23.240  0.00  0.00    +0.000 C 
ATOM     18  O   UNL     1      -0.702  14.199  21.536  0.00  0.00    +0.000 OA
ATOM     19  H   UNL     1       0.334   8.262  22.132  0.00  0.00    +0.000 HD
ENDROOT
BRANCH   1  23
ATOM     20  C   UNL     1       3.801  14.837  18.970  0.00  0.00    +0.000 A 
ATOM     21  C   UNL     1       2.836  14.381  18.068  0.00  0.00    +0.000 A 
ATOM     22  C   UNL     1       1.800  13.546  18.484  0.00  0.00    +0.000 A 
ATOM     23  C   UNL     1       1.698  13.148  19.825  0.00  0.00    +0.000 A 
ATOM     24  C   UNL     1       2.649  13.621  20.739  0.00  0.00    +0.000 A 
ATOM     25  C   UNL     1       3.695  14.455  20.312  0.00  0.00    +0.000 A 
BRANCH  20  27
ATOM     26  C   UNL     1       5.945  14.992  17.921  0.00  0.00    +0.000 C 
ATOM     27  O   UNL     1       4.753  15.615  18.369  0.00  0.00    +0.000 OA
ENDBRANCH  20  27
BRANCH  25  28
ATOM     28  O   UNL     1       4.617  14.855  21.241  0.00  0.00    +0.000 OA
ATOM     29  H   UNL     1       4.767  15.809  21.146  0.00  0.00    +0.000 HD
ENDBRANCH  25  28
ENDBRANCH   1  23
BRANCH  10  30
ATOM     30  N   UNL     1       4.398   3.435  17.271  0.00  0.00    +0.000 N 
ATOM     31  O   UNL     1       3.940   2.358  17.679  0.00  0.00    +0.000 OA
ATOM     32  O   UNL     1       5.307   3.545  16.440  0.00  0.00    +0.000 OA
ENDBRANCH  10  30
TORSDOF 4
ENDMDL
MODEL 7
REMARK VINA RESULT:      -7.1      3.291     10.562
REMARK  Name = 
REMARK  6 active torsions:
REMARK  status: ('A' for Active; 'I' for Inactive)
REMARK    1  A    between atoms: C_1  and  O_2
REMARK    2  A    between atoms: O_2  and  C_3
REMARK    3  A    between atoms: C_6  and  C_7
REMARK    4  A    between atoms: C_16  and  N_17
REMARK    5  A    between atoms: C_25  and  C_26
REMARK    6  A    between atoms: C_29  and  O_30
REMARK                            x       y       z     vdW  Elec       q    Type
REMARK                         _______ _______ _______ _____ _____    ______ ____
ROOT
ATOM      1  C   UNL     1      -0.614  12.816  20.759  0.00  0.00    +0.000 C 
ATOM      2  C   UNL     1      -0.069  11.473  20.320  0.00  0.00    +0.000 C 
ATOM      3  C   UNL     1       0.620  11.851  19.037  0.00  0.00    +0.000 C 
ATOM      4  N   UNL     1       1.430  10.974  18.362  0.00  0.00    +0.000 N 
ATOM      5  C   UNL     1       1.692   9.685  18.673  0.00  0.00    +0.000 A 
ATOM      6  N   UNL     1       1.186   9.043  19.703  0.00  0.00    +0.000 NA
ATOM      7  C   UNL     1       1.633   7.744  19.756  0.00  0.00    +0.000 A 
ATOM      8  C   UNL     1       1.275   6.797  20.738  0.00  0.00    +0.000 A 
ATOM      9  C   UNL     1       1.797   5.504  20.680  0.00  0.00    +0.000 A 
ATOM     10  C   UNL     1       2.675   5.155  19.649  0.00  0.00    +0.000 A 
ATOM     11  C   UNL     1       3.052   6.081  18.658  0.00  0.00    +0.000 A 
ATOM     12  C   UNL     1       2.509   7.376  18.738  0.00  0.00    +0.000 A 
ATOM     13  S   UNL     1       2.752   8.735  17.702  0.00  0.00    +0.000 S 
ATOM     14  N   UNL     1       0.360  13.060  18.625  0.00  0.00    +0.000 NA
ATOM     15  N   UNL     1      -0.474  13.641  19.563  0.00  0.00    +0.000 N 
ATOM     16  C   UNL     1      -0.704  15.009  19.596  0.00  0.00    +0.000 C 
ATOM     17  C   UNL     1      -0.121  15.840  18.480  0.00  0.00    +0.000 C 
ATOM     18  O   UNL     1      -1.342  15.557  20.499  0.00  0.00    +0.000 OA
ATOM     19  H   UNL     1       1.845  11.356  17.521  0.00  0.00    +0.000 HD
ENDROOT
BRANCH   1  23
ATOM     20  C   UNL     1      -4.622  12.601  22.393  0.00  0.00    +0.000 A 
ATOM     21  C   UNL     1      -4.390  12.611  21.015  0.00  0.00    +0.000 A 
ATOM     22  C   UNL     1      -3.093  12.624  20.504  0.00  0.00    +0.000 A 
ATOM     23  C   UNL     1      -1.985  12.620  21.365  0.00  0.00    +0.000 A 
ATOM     24  C   UNL     1      -2.212  12.586  22.748  0.00  0.00    +0.000 A 
ATOM     25  C   UNL     1      -3.520  12.581  23.256  0.00  0.00    +0.000 A 
BRANCH  20  27
ATOM     26  C   UNL     1      -6.885  12.295  21.680  0.00  0.00    +0.000 C 
ATOM     27  O   UNL     1      -5.955  12.624  22.700  0.00  0.00    +0.000 OA
ENDBRANCH  20  27
BRANCH  25  28
ATOM     28  O   UNL     1      -3.680  12.587  24.616  0.00  0.00    +0.000 OA
ATOM     29  H   UNL     1      -4.228  11.828  24.871  0.00  0.00    +0.000 HD
ENDBRANCH  25  28
ENDBRANCH   1  23
BRANCH  10  30
ATOM     30  N   UNL     1       3.215   3.789  19.595  0.00  0.00    +0.000 N 
ATOM     31  O   UNL     1       3.845   3.458  18.581  0.00  0.00    +0.000 OA
ATOM     32  O   UNL     1       3.008   3.053  20.567  0.00  0.00    +0.000 OA
ENDBRANCH  10  30
TORSDOF 4
ENDMDL
MODEL 8
REMARK VINA RESULT:      -7.1      2.487      9.053
REMARK  Name = 
REMARK  6 active torsions:
REMARK  status: ('A' for Active; 'I' for Inactive)
REMARK    1  A    between atoms: C_1  and  O_2
REMARK    2  A    between atoms: O_2  and  C_3
REMARK    3  A    between atoms: C_6  and  C_7
REMARK    4  A    between atoms: C_16  and  N_17
REMARK    5  A    between atoms: C_25  and  C_26
REMARK    6  A    between atoms: C_29  and  O_30
REMARK                            x       y       z     vdW  Elec       q    Type
REMARK                         _______ _______ _______ _____ _____    ______ ____
ROOT
ATOM      1  C   UNL     1      -0.346  11.814  20.391  0.00  0.00    +0.000 C 
ATOM      2  C   UNL     1       0.518  10.595  20.144  0.00  0.00    +0.000 C 
ATOM      3  C   UNL     1       0.095   9.710  21.286  0.00  0.00    +0.000 C 
ATOM      4  N   UNL     1       0.486   8.398  21.372  0.00  0.00    +0.000 N 
ATOM      5  C   UNL     1       1.310   7.726  20.537  0.00  0.00    +0.000 A 
ATOM      6  N   UNL     1       1.896   8.245  19.481  0.00  0.00    +0.000 NA
ATOM      7  C   UNL     1       2.678   7.318  18.832  0.00  0.00    +0.000 A 
ATOM      8  C   UNL     1       3.436   7.562  17.668  0.00  0.00    +0.000 A 
ATOM      9  C   UNL     1       4.194   6.534  17.105  0.00  0.00    +0.000 A 
ATOM     10  C   UNL     1       4.198   5.268  17.699  0.00  0.00    +0.000 A 
ATOM     11  C   UNL     1       3.448   4.996  18.859  0.00  0.00    +0.000 A 
ATOM     12  C   UNL     1       2.694   6.050  19.407  0.00  0.00    +0.000 A 
ATOM     13  S   UNL     1       1.681   6.065  20.804  0.00  0.00    +0.000 S 
ATOM     14  N   UNL     1      -0.645  10.305  22.178  0.00  0.00    +0.000 NA
ATOM     15  N   UNL     1      -0.840  11.605  21.748  0.00  0.00    +0.000 N 
ATOM     16  C   UNL     1      -1.816  12.423  22.297  0.00  0.00    +0.000 C 
ATOM     17  C   UNL     1      -2.579  11.895  23.487  0.00  0.00    +0.000 C 
ATOM     18  O   UNL     1      -2.087  13.538  21.842  0.00  0.00    +0.000 OA
ATOM     19  H   UNL     1       0.121   7.908  22.179  0.00  0.00    +0.000 HD
ENDROOT
BRANCH   1  23
ATOM     20  C   UNL     1       1.980  15.252  19.148  0.00  0.00    +0.000 A 
ATOM     21  C   UNL     1       0.665  15.060  18.716  0.00  0.00    +0.000 A 
ATOM     22  C   UNL     1      -0.090  13.979  19.169  0.00  0.00    +0.000 A 
ATOM     23  C   UNL     1       0.453  13.059  20.078  0.00  0.00    +0.000 A 
ATOM     24  C   UNL     1       1.763  13.259  20.532  0.00  0.00    +0.000 A 
ATOM     25  C   UNL     1       2.521  14.345  20.066  0.00  0.00    +0.000 A 
BRANCH  20  27
ATOM     26  C   UNL     1       3.450  16.133  17.479  0.00  0.00    +0.000 C 
ATOM     27  O   UNL     1       2.566  16.344  18.568  0.00  0.00    +0.000 OA
ENDBRANCH  20  27
BRANCH  25  28
ATOM     28  O   UNL     1       3.808  14.469  20.515  0.00  0.00    +0.000 OA
ATOM     29  H   UNL     1       3.964  13.810  21.210  0.00  0.00    +0.000 HD
ENDBRANCH  25  28
ENDBRANCH   1  23
BRANCH  10  30
ATOM     30  N   UNL     1       5.003   4.194  17.099  0.00  0.00    +0.000 N 
ATOM     31  O   UNL     1       4.514   3.056  17.069  0.00  0.00    +0.000 OA
ATOM     32  O   UNL     1       6.121   4.493  16.662  0.00  0.00    +0.000 OA
ENDBRANCH  10  30
TORSDOF 4
ENDMDL
MODEL 9
REMARK VINA RESULT:      -7.1      0.864      1.037
REMARK  Name = 
REMARK  6 active torsions:
REMARK  status: ('A' for Active; 'I' for Inactive)
REMARK    1  A    between atoms: C_1  and  O_2
REMARK    2  A    between atoms: O_2  and  C_3
REMARK    3  A    between atoms: C_6  and  C_7
REMARK    4  A    between atoms: C_16  and  N_17
REMARK    5  A    between atoms: C_25  and  C_26
REMARK    6  A    between atoms: C_29  and  O_30
REMARK                            x       y       z     vdW  Elec       q    Type
REMARK                         _______ _______ _______ _____ _____    ______ ____
ROOT
ATOM      1  C   UNL     1       4.138   5.882  19.259  0.00  0.00    +0.000 C 
ATOM      2  C   UNL     1       3.365   7.174  19.092  0.00  0.00    +0.000 C 
ATOM      3  C   UNL     1       2.037   6.790  19.685  0.00  0.00    +0.000 C 
ATOM      4  N   UNL     1       1.053   7.716  19.924  0.00  0.00    +0.000 N 
ATOM      5  C   UNL     1       1.074   9.037  19.636  0.00  0.00    +0.000 A 
ATOM      6  N   UNL     1       2.072   9.662  19.052  0.00  0.00    +0.000 NA
ATOM      7  C   UNL     1       1.802  11.000  18.887  0.00  0.00    +0.000 A 
ATOM      8  C   UNL     1       2.669  11.941  18.293  0.00  0.00    +0.000 A 
ATOM      9  C   UNL     1       2.274  13.275  18.182  0.00  0.00    +0.000 A 
ATOM     10  C   UNL     1       1.021  13.672  18.660  0.00  0.00    +0.000 A 
ATOM     11  C   UNL     1       0.138  12.754  19.260  0.00  0.00    +0.000 A 
ATOM     12  C   UNL     1       0.559  11.416  19.358  0.00  0.00    +0.000 A 
ATOM     13  S   UNL     1      -0.264  10.051  20.022  0.00  0.00    +0.000 S 
ATOM     14  N   UNL     1       1.906   5.516  19.926  0.00  0.00    +0.000 NA
ATOM     15  N   UNL     1       3.097   4.908  19.575  0.00  0.00    +0.000 N 
ATOM     16  C   UNL     1       3.411   3.618  19.974  0.00  0.00    +0.000 C 
ATOM     17  C   UNL     1       2.344   2.834  20.697  0.00  0.00    +0.000 C 
ATOM     18  O   UNL     1       4.517   3.109  19.778  0.00  0.00    +0.000 OA
ATOM     19  H   UNL     1       0.214   7.332  20.340  0.00  0.00    +0.000 HD
ENDROOT
BRANCH   1  23
ATOM     20  C   UNL     1       6.402   4.988  15.674  0.00  0.00    +0.000 A 
ATOM     21  C   UNL     1       5.151   5.609  15.617  0.00  0.00    +0.000 A 
ATOM     22  C   UNL     1       4.460   5.941  16.781  0.00  0.00    +0.000 A 
ATOM     23  C   UNL     1       5.009   5.665  18.042  0.00  0.00    +0.000 A 
ATOM     24  C   UNL     1       6.273   5.064  18.105  0.00  0.00    +0.000 A 
ATOM     25  C   UNL     1       6.961   4.725  16.930  0.00  0.00    +0.000 A 
BRANCH  20  27
ATOM     26  C   UNL     1       6.165   3.847  13.585  0.00  0.00    +0.000 C 
ATOM     27  O   UNL     1       6.905   4.711  14.432  0.00  0.00    +0.000 OA
ENDBRANCH  20  27
BRANCH  25  28
ATOM     28  O   UNL     1       8.175   4.105  17.053  0.00  0.00    +0.000 OA
ATOM     29  H   UNL     1       8.473   3.819  16.174  0.00  0.00    +0.000 HD
ENDBRANCH  25  28
ENDBRANCH   1  23
BRANCH  10  30
ATOM     30  N   UNL     1       0.615  15.079  18.534  0.00  0.00    +0.000 N 
ATOM     31  O   UNL     1      -0.592  15.340  18.631  0.00  0.00    +0.000 OA
ATOM     32  O   UNL     1       1.504  15.916  18.337  0.00  0.00    +0.000 OA
ENDBRANCH  10  30
TORSDOF 4
ENDMDL
