MODEL 1
REMARK VINA RESULT:      -8.4      0.000      0.000
REMARK  Name = 
REMARK  6 active torsions:
REMARK  status: ('A' for Active; 'I' for Inactive)
REMARK    1  A    between atoms: C_1  and  C_2
REMARK    2  A    between atoms: C_7  and  N_8
REMARK    3  A    between atoms: N_8  and  S_9
REMARK    4  A    between atoms: S_9  and  C_12
REMARK    5  A    between atoms: C_19  and  C_20
REMARK    6  A    between atoms: C_19  and  C_21
REMARK                            x       y       z     vdW  Elec       q    Type
REMARK                         _______ _______ _______ _____ _____    ______ ____
ROOT
ATOM      1  S   UNL     1       5.325   4.742  18.409  0.00  0.00    +0.000 S 
ATOM      2  O   UNL     1       4.515   5.922  18.622  0.00  0.00    +0.000 OA
ATOM      3  O   UNL     1       6.462   4.443  19.251  0.00  0.00    +0.000 OA
ENDROOT
BRANCH   1   4
ATOM      4  C   UNL     1       5.946   4.785  16.755  0.00  0.00    +0.000 A 
ATOM      5  C   UNL     1       7.066   5.537  16.409  0.00  0.00    +0.000 A 
ATOM      6  C   UNL     1       7.517   5.519  15.087  0.00  0.00    +0.000 A 
ATOM      7  C   UNL     1       6.860   4.755  14.112  0.00  0.00    +0.000 A 
ATOM      8  C   UNL     1       5.742   4.004  14.465  0.00  0.00    +0.000 A 
ATOM      9  C   UNL     1       5.300   4.006  15.795  0.00  0.00    +0.000 A 
ATOM     10  C   UNL     1       5.004   3.184  13.468  0.00  0.00    +0.000 C 
ATOM     11  C   UNL     1       5.547   3.215  12.026  0.00  0.00    +0.000 C 
ATOM     12  C   UNL     1       4.496   3.858  11.109  0.00  0.00    +0.000 C 
ATOM     13  C   UNL     1       5.832   1.769  11.594  0.00  0.00    +0.000 C 
ATOM     14  O   UNL     1       6.788   3.866  11.772  0.00  0.00    +0.000 OA
ATOM     15  C   UNL     1       7.367   4.759  12.704  0.00  0.00    +0.000 C 
ENDBRANCH   1   4
BRANCH   1  16
ATOM     16  N   UNL     1       4.357   3.357  18.392  0.00  0.00    +0.000 N 
ATOM     17  H   UNL     1       4.263   2.918  17.481  0.00  0.00    +0.000 HD
BRANCH  16  24
ATOM     18  C   UNL     1       1.567   4.213  17.630  0.00  0.00    +0.000 C 
ATOM     19  C   UNL     1       1.950   3.633  18.960  0.00  0.00    +0.000 A 
ATOM     20  C   UNL     1       0.945   3.458  19.926  0.00  0.00    +0.000 A 
ATOM     21  C   UNL     1       1.231   2.907  21.178  0.00  0.00    +0.000 A 
ATOM     22  C   UNL     1       2.531   2.527  21.488  0.00  0.00    +0.000 A 
ATOM     23  C   UNL     1       3.541   2.707  20.549  0.00  0.00    +0.000 A 
ATOM     24  C   UNL     1       3.258   3.252  19.291  0.00  0.00    +0.000 A 
ENDBRANCH  16  24
ENDBRANCH   1  16
TORSDOF 3
ENDMDL
MODEL 2
REMARK VINA RESULT:      -8.1      3.908      6.500
REMARK  Name = 
REMARK  6 active torsions:
REMARK  status: ('A' for Active; 'I' for Inactive)
REMARK    1  A    between atoms: C_1  and  C_2
REMARK    2  A    between atoms: C_7  and  N_8
REMARK    3  A    between atoms: N_8  and  S_9
REMARK    4  A    between atoms: S_9  and  C_12
REMARK    5  A    between atoms: C_19  and  C_20
REMARK    6  A    between atoms: C_19  and  C_21
REMARK                            x       y       z     vdW  Elec       q    Type
REMARK                         _______ _______ _______ _____ _____    ______ ____
ROOT
ATOM      1  S   UNL     1       5.233   4.644  18.430  0.00  0.00    +0.000 S 
ATOM      2  O   UNL     1       5.953   4.627  19.684  0.00  0.00    +0.000 OA
ATOM      3  O   UNL     1       5.925   4.715  17.161  0.00  0.00    +0.000 OA
ENDROOT
BRANCH   1   4
ATOM      4  C   UNL     1       4.115   6.013  18.448  0.00  0.00    +0.000 A 
ATOM      5  C   UNL     1       3.943   6.837  17.339  0.00  0.00    +0.000 A 
ATOM      6  C   UNL     1       3.034   7.895  17.410  0.00  0.00    +0.000 A 
ATOM      7  C   UNL     1       2.297   8.133  18.579  0.00  0.00    +0.000 A 
ATOM      8  C   UNL     1       2.472   7.304  19.683  0.00  0.00    +0.000 A 
ATOM      9  C   UNL     1       3.370   6.231  19.606  0.00  0.00    +0.000 A 
ATOM     10  C   UNL     1       1.721   7.519  20.950  0.00  0.00    +0.000 C 
ATOM     11  C   UNL     1       0.742   8.709  20.966  0.00  0.00    +0.000 C 
ATOM     12  C   UNL     1       1.225   9.740  21.996  0.00  0.00    +0.000 C 
ATOM     13  C   UNL     1      -0.648   8.175  21.343  0.00  0.00    +0.000 C 
ATOM     14  O   UNL     1       0.488   9.408  19.751  0.00  0.00    +0.000 OA
ATOM     15  C   UNL     1       1.333   9.277  18.624  0.00  0.00    +0.000 C 
ENDBRANCH   1   4
BRANCH   1  16
ATOM     16  N   UNL     1       4.181   3.324  18.335  0.00  0.00    +0.000 N 
ATOM     17  H   UNL     1       4.020   2.979  17.394  0.00  0.00    +0.000 HD
BRANCH  16  24
ATOM     18  C   UNL     1       1.320   3.963  17.623  0.00  0.00    +0.000 C 
ATOM     19  C   UNL     1       1.779   3.480  18.967  0.00  0.00    +0.000 A 
ATOM     20  C   UNL     1       0.817   3.295  19.974  0.00  0.00    +0.000 A 
ATOM     21  C   UNL     1       1.174   2.831  21.242  0.00  0.00    +0.000 A 
ATOM     22  C   UNL     1       2.505   2.550  21.528  0.00  0.00    +0.000 A 
ATOM     23  C   UNL     1       3.473   2.741  20.548  0.00  0.00    +0.000 A 
ATOM     24  C   UNL     1       3.118   3.200  19.274  0.00  0.00    +0.000 A 
ENDBRANCH  16  24
ENDBRANCH   1  16
TORSDOF 3
ENDMDL
MODEL 3
REMARK VINA RESULT:      -8.0      2.176      7.031
REMARK  Name = 
REMARK  6 active torsions:
REMARK  status: ('A' for Active; 'I' for Inactive)
REMARK    1  A    between atoms: C_1  and  C_2
REMARK    2  A    between atoms: C_7  and  N_8
REMARK    3  A    between atoms: N_8  and  S_9
REMARK    4  A    between atoms: S_9  and  C_12
REMARK    5  A    between atoms: C_19  and  C_20
REMARK    6  A    between atoms: C_19  and  C_21
REMARK                            x       y       z     vdW  Elec       q    Type
REMARK                         _______ _______ _______ _____ _____    ______ ____
ROOT
ATOM      1  S   UNL     1       6.304   6.569  16.214  0.00  0.00    +0.000 S 
ATOM      2  O   UNL     1       6.993   7.619  16.933  0.00  0.00    +0.000 OA
ATOM      3  O   UNL     1       5.236   6.865  15.283  0.00  0.00    +0.000 OA
ENDROOT
BRANCH   1   4
ATOM      4  C   UNL     1       5.620   5.444  17.393  0.00  0.00    +0.000 A 
ATOM      5  C   UNL     1       6.425   4.687  18.240  0.00  0.00    +0.000 A 
ATOM      6  C   UNL     1       5.825   3.826  19.161  0.00  0.00    +0.000 A 
ATOM      7  C   UNL     1       4.430   3.716  19.241  0.00  0.00    +0.000 A 
ATOM      8  C   UNL     1       3.631   4.477  18.392  0.00  0.00    +0.000 A 
ATOM      9  C   UNL     1       4.231   5.357  17.481  0.00  0.00    +0.000 A 
ATOM     10  C   UNL     1       2.146   4.392  18.431  0.00  0.00    +0.000 C 
ATOM     11  C   UNL     1       1.547   3.415  19.462  0.00  0.00    +0.000 C 
ATOM     12  C   UNL     1       0.809   2.293  18.718  0.00  0.00    +0.000 C 
ATOM     13  C   UNL     1       0.578   4.203  20.356  0.00  0.00    +0.000 C 
ATOM     14  O   UNL     1       2.414   2.799  20.410  0.00  0.00    +0.000 OA
ATOM     15  C   UNL     1       3.818   2.782  20.237  0.00  0.00    +0.000 C 
ENDBRANCH   1   4
BRANCH   1  16
ATOM     16  N   UNL     1       7.411   5.595  15.388  0.00  0.00    +0.000 N 
ATOM     17  H   UNL     1       8.373   5.916  15.433  0.00  0.00    +0.000 HD
BRANCH  16  24
ATOM     18  C   UNL     1       8.756   6.013  12.720  0.00  0.00    +0.000 C 
ATOM     19  C   UNL     1       7.616   5.068  12.964  0.00  0.00    +0.000 A 
ATOM     20  C   UNL     1       7.137   4.308  11.884  0.00  0.00    +0.000 A 
ATOM     21  C   UNL     1       6.090   3.397  12.047  0.00  0.00    +0.000 A 
ATOM     22  C   UNL     1       5.497   3.237  13.294  0.00  0.00    +0.000 A 
ATOM     23  C   UNL     1       5.949   3.993  14.370  0.00  0.00    +0.000 A 
ATOM     24  C   UNL     1       7.002   4.901  14.214  0.00  0.00    +0.000 A 
ENDBRANCH  16  24
ENDBRANCH   1  16
TORSDOF 3
ENDMDL
MODEL 4
REMARK VINA RESULT:      -7.8      2.135      7.011
REMARK  Name = 
REMARK  6 active torsions:
REMARK  status: ('A' for Active; 'I' for Inactive)
REMARK    1  A    between atoms: C_1  and  C_2
REMARK    2  A    between atoms: C_7  and  N_8
REMARK    3  A    between atoms: N_8  and  S_9
REMARK    4  A    between atoms: S_9  and  C_12
REMARK    5  A    between atoms: C_19  and  C_20
REMARK    6  A    between atoms: C_19  and  C_21
REMARK                            x       y       z     vdW  Elec       q    Type
REMARK                         _______ _______ _______ _____ _____    ______ ____
ROOT
ATOM      1  S   UNL     1       7.334   5.487  16.922  0.00  0.00    +0.000 S 
ATOM      2  O   UNL     1       7.812   4.122  16.874  0.00  0.00    +0.000 OA
ATOM      3  O   UNL     1       8.043   6.511  17.657  0.00  0.00    +0.000 OA
ENDROOT
BRANCH   1   4
ATOM      4  C   UNL     1       5.689   5.478  17.568  0.00  0.00    +0.000 A 
ATOM      5  C   UNL     1       4.838   6.572  17.430  0.00  0.00    +0.000 A 
ATOM      6  C   UNL     1       3.544   6.499  17.949  0.00  0.00    +0.000 A 
ATOM      7  C   UNL     1       3.095   5.343  18.603  0.00  0.00    +0.000 A 
ATOM      8  C   UNL     1       3.950   4.252  18.737  0.00  0.00    +0.000 A 
ATOM      9  C   UNL     1       5.242   4.317  18.198  0.00  0.00    +0.000 A 
ATOM     10  C   UNL     1       3.525   3.006  19.429  0.00  0.00    +0.000 C 
ATOM     11  C   UNL     1       2.089   2.994  19.988  0.00  0.00    +0.000 C 
ATOM     12  C   UNL     1       2.149   2.890  21.519  0.00  0.00    +0.000 C 
ATOM     13  C   UNL     1       1.357   1.783  19.391  0.00  0.00    +0.000 C 
ATOM     14  O   UNL     1       1.217   4.074  19.668  0.00  0.00    +0.000 OA
ATOM     15  C   UNL     1       1.703   5.298  19.152  0.00  0.00    +0.000 C 
ENDBRANCH   1   4
BRANCH   1  16
ATOM     16  N   UNL     1       7.101   6.085  15.359  0.00  0.00    +0.000 N 
ATOM     17  H   UNL     1       6.707   7.021  15.318  0.00  0.00    +0.000 HD
BRANCH  16  24
ATOM     18  C   UNL     1       8.801   5.854  12.877  0.00  0.00    +0.000 C 
ATOM     19  C   UNL     1       7.559   5.054  13.141  0.00  0.00    +0.000 A 
ATOM     20  C   UNL     1       7.152   4.116  12.176  0.00  0.00    +0.000 A 
ATOM     21  C   UNL     1       6.016   3.326  12.368  0.00  0.00    +0.000 A 
ATOM     22  C   UNL     1       5.261   3.467  13.526  0.00  0.00    +0.000 A 
ATOM     23  C   UNL     1       5.640   4.401  14.484  0.00  0.00    +0.000 A 
ATOM     24  C   UNL     1       6.782   5.189  14.300  0.00  0.00    +0.000 A 
ENDBRANCH  16  24
ENDBRANCH   1  16
TORSDOF 3
ENDMDL
MODEL 5
REMARK VINA RESULT:      -7.7      5.784      7.961
REMARK  Name = 
REMARK  6 active torsions:
REMARK  status: ('A' for Active; 'I' for Inactive)
REMARK    1  A    between atoms: C_1  and  C_2
REMARK    2  A    between atoms: C_7  and  N_8
REMARK    3  A    between atoms: N_8  and  S_9
REMARK    4  A    between atoms: S_9  and  C_12
REMARK    5  A    between atoms: C_19  and  C_20
REMARK    6  A    between atoms: C_19  and  C_21
REMARK                            x       y       z     vdW  Elec       q    Type
REMARK                         _______ _______ _______ _____ _____    ______ ____
ROOT
ATOM      1  S   UNL     1       0.878   9.088  21.480  0.00  0.00    +0.000 S 
ATOM      2  O   UNL     1       1.802   9.256  22.581  0.00  0.00    +0.000 OA
ATOM      3  O   UNL     1      -0.491   8.677  21.698  0.00  0.00    +0.000 OA
ENDROOT
BRANCH   1   4
ATOM      4  C   UNL     1       1.564   7.912  20.353  0.00  0.00    +0.000 A 
ATOM      5  C   UNL     1       2.029   8.284  19.095  0.00  0.00    +0.000 A 
ATOM      6  C   UNL     1       2.574   7.310  18.254  0.00  0.00    +0.000 A 
ATOM      7  C   UNL     1       2.657   5.971  18.663  0.00  0.00    +0.000 A 
ATOM      8  C   UNL     1       2.191   5.607  19.923  0.00  0.00    +0.000 A 
ATOM      9  C   UNL     1       1.663   6.586  20.775  0.00  0.00    +0.000 A 
ATOM     10  C   UNL     1       2.248   4.199  20.401  0.00  0.00    +0.000 C 
ATOM     11  C   UNL     1       2.851   3.172  19.423  0.00  0.00    +0.000 C 
ATOM     12  C   UNL     1       1.763   2.165  19.022  0.00  0.00    +0.000 C 
ATOM     13  C   UNL     1       4.012   2.462  20.135  0.00  0.00    +0.000 C 
ATOM     14  O   UNL     1       3.461   3.640  18.223  0.00  0.00    +0.000 OA
ATOM     15  C   UNL     1       3.243   4.952  17.738  0.00  0.00    +0.000 C 
ENDBRANCH   1   4
BRANCH   1  16
ATOM     16  N   UNL     1       0.819  10.492  20.540  0.00  0.00    +0.000 N 
ATOM     17  H   UNL     1       1.520  11.188  20.775  0.00  0.00    +0.000 HD
BRANCH  16  24
ATOM     18  C   UNL     1      -0.858  12.503  22.038  0.00  0.00    +0.000 C 
ATOM     19  C   UNL     1      -1.226  11.899  20.715  0.00  0.00    +0.000 A 
ATOM     20  C   UNL     1      -2.431  12.298  20.111  0.00  0.00    +0.000 A 
ATOM     21  C   UNL     1      -2.824  11.788  18.871  0.00  0.00    +0.000 A 
ATOM     22  C   UNL     1      -2.021  10.862  18.216  0.00  0.00    +0.000 A 
ATOM     23  C   UNL     1      -0.833  10.444  18.806  0.00  0.00    +0.000 A 
ATOM     24  C   UNL     1      -0.432  10.958  20.045  0.00  0.00    +0.000 A 
ENDBRANCH  16  24
ENDBRANCH   1  16
TORSDOF 3
ENDMDL
MODEL 6
REMARK VINA RESULT:      -7.7      3.349      7.110
REMARK  Name = 
REMARK  6 active torsions:
REMARK  status: ('A' for Active; 'I' for Inactive)
REMARK    1  A    between atoms: C_1  and  C_2
REMARK    2  A    between atoms: C_7  and  N_8
REMARK    3  A    between atoms: N_8  and  S_9
REMARK    4  A    between atoms: S_9  and  C_12
REMARK    5  A    between atoms: C_19  and  C_20
REMARK    6  A    between atoms: C_19  and  C_21
REMARK                            x       y       z     vdW  Elec       q    Type
REMARK                         _______ _______ _______ _____ _____    ______ ____
ROOT
ATOM      1  S   UNL     1       2.912   3.049  18.022  0.00  0.00    +0.000 S 
ATOM      2  O   UNL     1       2.473   3.139  16.646  0.00  0.00    +0.000 OA
ATOM      3  O   UNL     1       2.461   1.984  18.892  0.00  0.00    +0.000 OA
ENDROOT
BRANCH   1   4
ATOM      4  C   UNL     1       2.485   4.556  18.842  0.00  0.00    +0.000 A 
ATOM      5  C   UNL     1       2.368   4.632  20.227  0.00  0.00    +0.000 A 
ATOM      6  C   UNL     1       2.042   5.855  20.817  0.00  0.00    +0.000 A 
ATOM      7  C   UNL     1       1.836   7.000  20.035  0.00  0.00    +0.000 A 
ATOM      8  C   UNL     1       1.957   6.918  18.650  0.00  0.00    +0.000 A 
ATOM      9  C   UNL     1       2.303   5.695  18.058  0.00  0.00    +0.000 A 
ATOM     10  C   UNL     1       1.740   8.100  17.774  0.00  0.00    +0.000 C 
ATOM     11  C   UNL     1       1.374   9.417  18.487  0.00  0.00    +0.000 C 
ATOM     12  C   UNL     1      -0.045   9.833  18.071  0.00  0.00    +0.000 C 
ATOM     13  C   UNL     1       2.397  10.484  18.068  0.00  0.00    +0.000 C 
ATOM     14  O   UNL     1       1.434   9.469  19.909  0.00  0.00    +0.000 OA
ATOM     15  C   UNL     1       1.486   8.295  20.697  0.00  0.00    +0.000 C 
ENDBRANCH   1   4
BRANCH   1  16
ATOM     16  N   UNL     1       4.600   3.061  18.106  0.00  0.00    +0.000 N 
ATOM     17  H   UNL     1       4.980   2.794  19.009  0.00  0.00    +0.000 HD
BRANCH  16  24
ATOM     18  C   UNL     1       6.032   5.406  19.352  0.00  0.00    +0.000 C 
ATOM     19  C   UNL     1       6.022   5.092  17.885  0.00  0.00    +0.000 A 
ATOM     20  C   UNL     1       6.736   5.935  17.017  0.00  0.00    +0.000 A 
ATOM     21  C   UNL     1       6.782   5.690  15.642  0.00  0.00    +0.000 A 
ATOM     22  C   UNL     1       6.106   4.598  15.110  0.00  0.00    +0.000 A 
ATOM     23  C   UNL     1       5.382   3.762  15.952  0.00  0.00    +0.000 A 
ATOM     24  C   UNL     1       5.338   4.000  17.331  0.00  0.00    +0.000 A 
ENDBRANCH  16  24
ENDBRANCH   1  16
TORSDOF 3
ENDMDL
MODEL 7
REMARK VINA RESULT:      -7.7      0.997      1.040
REMARK  Name = 
REMARK  6 active torsions:
REMARK  status: ('A' for Active; 'I' for Inactive)
REMARK    1  A    between atoms: C_1  and  C_2
REMARK    2  A    between atoms: C_7  and  N_8
REMARK    3  A    between atoms: N_8  and  S_9
REMARK    4  A    between atoms: S_9  and  C_12
REMARK    5  A    between atoms: C_19  and  C_20
REMARK    6  A    between atoms: C_19  and  C_21
REMARK                            x       y       z     vdW  Elec       q    Type
REMARK                         _______ _______ _______ _____ _____    ______ ____
ROOT
ATOM      1  S   UNL     1       5.531   4.630  18.722  0.00  0.00    +0.000 S 
ATOM      2  O   UNL     1       6.331   5.502  19.554  0.00  0.00    +0.000 OA
ATOM      3  O   UNL     1       5.436   3.210  18.986  0.00  0.00    +0.000 OA
ENDROOT
BRANCH   1   4
ATOM      4  C   UNL     1       6.099   4.775  17.055  0.00  0.00    +0.000 A 
ATOM      5  C   UNL     1       7.133   5.639  16.703  0.00  0.00    +0.000 A 
ATOM      6  C   UNL     1       7.547   5.699  15.371  0.00  0.00    +0.000 A 
ATOM      7  C   UNL     1       6.938   4.902  14.391  0.00  0.00    +0.000 A 
ATOM      8  C   UNL     1       5.907   4.039  14.750  0.00  0.00    +0.000 A 
ATOM      9  C   UNL     1       5.504   3.963  16.090  0.00  0.00    +0.000 A 
ATOM     10  C   UNL     1       5.222   3.178  13.748  0.00  0.00    +0.000 C 
ATOM     11  C   UNL     1       5.720   3.299  12.294  0.00  0.00    +0.000 C 
ATOM     12  C   UNL     1       4.588   3.863  11.423  0.00  0.00    +0.000 C 
ATOM     13  C   UNL     1       6.129   1.898  11.814  0.00  0.00    +0.000 C 
ATOM     14  O   UNL     1       6.887   4.072  12.029  0.00  0.00    +0.000 OA
ATOM     15  C   UNL     1       7.404   4.991  12.972  0.00  0.00    +0.000 C 
ENDBRANCH   1   4
BRANCH   1  16
ATOM     16  N   UNL     1       3.947   5.209  18.612  0.00  0.00    +0.000 N 
ATOM     17  H   UNL     1       3.867   6.221  18.597  0.00  0.00    +0.000 HD
BRANCH  16  24
ATOM     18  C   UNL     1       2.272   3.249  17.045  0.00  0.00    +0.000 C 
ATOM     19  C   UNL     1       2.096   3.548  18.505  0.00  0.00    +0.000 A 
ATOM     20  C   UNL     1       1.090   2.866  19.210  0.00  0.00    +0.000 A 
ATOM     21  C   UNL     1       0.885   3.084  20.575  0.00  0.00    +0.000 A 
ATOM     22  C   UNL     1       1.680   3.997  21.258  0.00  0.00    +0.000 A 
ATOM     23  C   UNL     1       2.669   4.694  20.573  0.00  0.00    +0.000 A 
ATOM     24  C   UNL     1       2.883   4.473  19.207  0.00  0.00    +0.000 A 
ENDBRANCH  16  24
ENDBRANCH   1  16
TORSDOF 3
ENDMDL
MODEL 8
REMARK VINA RESULT:      -7.6      5.892      7.948
REMARK  Name = 
REMARK  6 active torsions:
REMARK  status: ('A' for Active; 'I' for Inactive)
REMARK    1  A    between atoms: C_1  and  C_2
REMARK    2  A    between atoms: C_7  and  N_8
REMARK    3  A    between atoms: N_8  and  S_9
REMARK    4  A    between atoms: S_9  and  C_12
REMARK    5  A    between atoms: C_19  and  C_20
REMARK    6  A    between atoms: C_19  and  C_21
REMARK                            x       y       z     vdW  Elec       q    Type
REMARK                         _______ _______ _______ _____ _____    ______ ____
ROOT
ATOM      1  S   UNL     1       0.873   9.121  21.446  0.00  0.00    +0.000 S 
ATOM      2  O   UNL     1       1.795   9.283  22.549  0.00  0.00    +0.000 OA
ATOM      3  O   UNL     1      -0.500   8.718  21.660  0.00  0.00    +0.000 OA
ENDROOT
BRANCH   1   4
ATOM      4  C   UNL     1       1.554   7.941  20.321  0.00  0.00    +0.000 A 
ATOM      5  C   UNL     1       2.013   8.307  19.058  0.00  0.00    +0.000 A 
ATOM      6  C   UNL     1       2.555   7.331  18.220  0.00  0.00    +0.000 A 
ATOM      7  C   UNL     1       2.642   5.994  18.634  0.00  0.00    +0.000 A 
ATOM      8  C   UNL     1       2.183   5.634  19.898  0.00  0.00    +0.000 A 
ATOM      9  C   UNL     1       1.658   6.617  20.748  0.00  0.00    +0.000 A 
ATOM     10  C   UNL     1       2.245   4.229  20.382  0.00  0.00    +0.000 C 
ATOM     11  C   UNL     1       2.844   3.199  19.405  0.00  0.00    +0.000 C 
ATOM     12  C   UNL     1       1.756   2.188  19.014  0.00  0.00    +0.000 C 
ATOM     13  C   UNL     1       4.010   2.493  20.115  0.00  0.00    +0.000 C 
ATOM     14  O   UNL     1       3.447   3.662  18.201  0.00  0.00    +0.000 OA
ATOM     15  C   UNL     1       3.225   4.971  17.711  0.00  0.00    +0.000 C 
ENDBRANCH   1   4
BRANCH   1  16
ATOM     16  N   UNL     1       0.825  10.525  20.506  0.00  0.00    +0.000 N 
ATOM     17  H   UNL     1       1.695  11.049  20.484  0.00  0.00    +0.000 HD
BRANCH  16  24
ATOM     18  C   UNL     1      -0.996  10.271  18.114  0.00  0.00    +0.000 C 
ATOM     19  C   UNL     1      -1.260  11.152  19.301  0.00  0.00    +0.000 A 
ATOM     20  C   UNL     1      -2.442  11.912  19.318  0.00  0.00    +0.000 A 
ATOM     21  C   UNL     1      -2.757  12.738  20.400  0.00  0.00    +0.000 A 
ATOM     22  C   UNL     1      -1.888  12.826  21.481  0.00  0.00    +0.000 A 
ATOM     23  C   UNL     1      -0.706  12.094  21.473  0.00  0.00    +0.000 A 
ATOM     24  C   UNL     1      -0.390  11.259  20.395  0.00  0.00    +0.000 A 
ENDBRANCH  16  24
ENDBRANCH   1  16
TORSDOF 3
ENDMDL
MODEL 9
REMARK VINA RESULT:      -7.6      0.419      1.449
REMARK  Name = 
REMARK  6 active torsions:
REMARK  status: ('A' for Active; 'I' for Inactive)
REMARK    1  A    between atoms: C_1  and  C_2
REMARK    2  A    between atoms: C_7  and  N_8
REMARK    3  A    between atoms: N_8  and  S_9
REMARK    4  A    between atoms: S_9  and  C_12
REMARK    5  A    between atoms: C_19  and  C_20
REMARK    6  A    between atoms: C_19  and  C_21
REMARK                            x       y       z     vdW  Elec       q    Type
REMARK                         _______ _______ _______ _____ _____    ______ ____
ROOT
ATOM      1  S   UNL     1       5.140   4.898  18.306  0.00  0.00    +0.000 S 
ATOM      2  O   UNL     1       4.418   6.139  18.488  0.00  0.00    +0.000 OA
ATOM      3  O   UNL     1       6.218   4.514  19.191  0.00  0.00    +0.000 OA
ENDROOT
BRANCH   1   4
ATOM      4  C   UNL     1       5.823   4.886  16.676  0.00  0.00    +0.000 A 
ATOM      5  C   UNL     1       6.975   5.599  16.356  0.00  0.00    +0.000 A 
ATOM      6  C   UNL     1       7.475   5.538  15.054  0.00  0.00    +0.000 A 
ATOM      7  C   UNL     1       6.834   4.769  14.072  0.00  0.00    +0.000 A 
ATOM      8  C   UNL     1       5.683   4.056  14.399  0.00  0.00    +0.000 A 
ATOM      9  C   UNL     1       5.192   4.101  15.711  0.00  0.00    +0.000 A 
ATOM     10  C   UNL     1       4.961   3.232  13.393  0.00  0.00    +0.000 C 
ATOM     11  C   UNL     1       5.558   3.215  11.973  0.00  0.00    +0.000 C 
ATOM     12  C   UNL     1       4.560   3.863  11.002  0.00  0.00    +0.000 C 
ATOM     13  C   UNL     1       5.820   1.751  11.585  0.00  0.00    +0.000 C 
ATOM     14  O   UNL     1       6.826   3.826  11.752  0.00  0.00    +0.000 OA
ATOM     15  C   UNL     1       7.393   4.726  12.685  0.00  0.00    +0.000 C 
ENDBRANCH   1   4
BRANCH   1  16
ATOM     16  N   UNL     1       4.067   3.593  18.255  0.00  0.00    +0.000 N 
ATOM     17  H   UNL     1       3.767   3.329  17.321  0.00  0.00    +0.000 HD
BRANCH  16  24
ATOM     18  C   UNL     1       4.703   1.826  20.615  0.00  0.00    +0.000 C 
ATOM     19  C   UNL     1       3.421   2.586  20.437  0.00  0.00    +0.000 A 
ATOM     20  C   UNL     1       2.441   2.486  21.439  0.00  0.00    +0.000 A 
ATOM     21  C   UNL     1       1.234   3.182  21.344  0.00  0.00    +0.000 A 
ATOM     22  C   UNL     1       0.981   3.984  20.238  0.00  0.00    +0.000 A 
ATOM     23  C   UNL     1       1.933   4.082  19.229  0.00  0.00    +0.000 A 
ATOM     24  C   UNL     1       3.148   3.393  19.323  0.00  0.00    +0.000 A 
ENDBRANCH  16  24
ENDBRANCH   1  16
TORSDOF 3
ENDMDL
