MODEL 1
REMARK VINA RESULT:      -7.9      0.000      0.000
REMARK  Name = 
REMARK  4 active torsions:
REMARK  status: ('A' for Active; 'I' for Inactive)
REMARK    1  A    between atoms: C_2  and  C_3
REMARK    2  A    between atoms: C_5  and  C_6
REMARK    3  A    between atoms: C_6  and  N_7
REMARK    4  A    between atoms: C_13  and  C_14
REMARK                            x       y       z     vdW  Elec       q    Type
REMARK                         _______ _______ _______ _____ _____    ______ ____
ROOT
ATOM      1  C   UNL     1       2.342   3.974  20.300  0.00  0.00    +0.000 A 
ATOM      2  C   UNL     1       3.134   3.426  19.287  0.00  0.00    +0.000 A 
ATOM      3  C   UNL     1       3.543   4.214  18.204  0.00  0.00    +0.000 A 
ATOM      4  C   UNL     1       3.161   5.565  18.169  0.00  0.00    +0.000 A 
ATOM      5  C   UNL     1       2.371   6.153  19.179  0.00  0.00    +0.000 A 
ATOM      6  C   UNL     1       1.961   5.323  20.237  0.00  0.00    +0.000 A 
ENDROOT
BRANCH   5   7
ATOM      7  C   UNL     1       2.030   7.597  19.130  0.00  0.00    +0.000 A 
ATOM      8  C   UNL     1       1.457   8.253  20.236  0.00  0.00    +0.000 A 
ATOM      9  C   UNL     1       1.044   9.587  20.165  0.00  0.00    +0.000 A 
ATOM     10  C   UNL     1       1.221  10.309  18.991  0.00  0.00    +0.000 A 
ATOM     11  C   UNL     1       1.819   9.700  17.892  0.00  0.00    +0.000 A 
ATOM     12  C   UNL     1       2.215   8.359  17.961  0.00  0.00    +0.000 A 
ENDBRANCH   5   7
BRANCH   1  14
ATOM     13  N   UNL     1       1.572   2.505  22.295  0.00  0.00    +0.000 NA
ATOM     14  C   UNL     1       1.923   3.163  21.404  0.00  0.00    +0.000 C 
ENDBRANCH   1  14
BRANCH   3  15
ATOM     15  C   UNL     1       4.400   3.631  17.107  0.00  0.00    +0.000 C 
BRANCH  15  16
ATOM     16  N   UNL     1       5.743   4.175  17.118  0.00  0.00    +0.000 N 
ATOM     17  C   UNL     1       6.538   4.447  16.048  0.00  0.00    +0.000 A 
ATOM     18  N   UNL     1       7.726   4.819  16.465  0.00  0.00    +0.000 NA
ATOM     19  C   UNL     1       7.608   4.752  17.824  0.00  0.00    +0.000 A 
ATOM     20  N   UNL     1       6.414   4.354  18.274  0.00  0.00    +0.000 NA
ENDBRANCH  15  16
ENDBRANCH   3  15
TORSDOF 4
ENDMDL
MODEL 2
REMARK VINA RESULT:      -7.8      1.644      4.559
REMARK  Name = 
REMARK  4 active torsions:
REMARK  status: ('A' for Active; 'I' for Inactive)
REMARK    1  A    between atoms: C_2  and  C_3
REMARK    2  A    between atoms: C_5  and  C_6
REMARK    3  A    between atoms: C_6  and  N_7
REMARK    4  A    between atoms: C_13  and  C_14
REMARK                            x       y       z     vdW  Elec       q    Type
REMARK                         _______ _______ _______ _____ _____    ______ ____
ROOT
ATOM      1  C   UNL     1       4.867   5.273  16.511  0.00  0.00    +0.000 A 
ATOM      2  C   UNL     1       4.497   4.014  16.992  0.00  0.00    +0.000 A 
ATOM      3  C   UNL     1       3.518   3.898  17.985  0.00  0.00    +0.000 A 
ATOM      4  C   UNL     1       2.902   5.064  18.470  0.00  0.00    +0.000 A 
ATOM      5  C   UNL     1       3.245   6.349  18.000  0.00  0.00    +0.000 A 
ATOM      6  C   UNL     1       4.250   6.427  17.018  0.00  0.00    +0.000 A 
ENDROOT
BRANCH   5   7
ATOM      7  C   UNL     1       2.537   7.553  18.501  0.00  0.00    +0.000 A 
ATOM      8  C   UNL     1       2.018   7.608  19.809  0.00  0.00    +0.000 A 
ATOM      9  C   UNL     1       1.265   8.699  20.255  0.00  0.00    +0.000 A 
ATOM     10  C   UNL     1       1.036   9.778  19.411  0.00  0.00    +0.000 A 
ATOM     11  C   UNL     1       1.568   9.771  18.125  0.00  0.00    +0.000 A 
ATOM     12  C   UNL     1       2.306   8.670  17.676  0.00  0.00    +0.000 A 
ENDBRANCH   5   7
BRANCH   1  14
ATOM     13  N   UNL     1       6.684   5.488  14.670  0.00  0.00    +0.000 NA
ATOM     14  C   UNL     1       5.874   5.389  15.497  0.00  0.00    +0.000 C 
ENDBRANCH   1  14
BRANCH   3  15
ATOM     15  C   UNL     1       3.110   2.542  18.510  0.00  0.00    +0.000 C 
BRANCH  15  16
ATOM     16  N   UNL     1       2.665   2.603  19.888  0.00  0.00    +0.000 N 
ATOM     17  C   UNL     1       3.430   2.535  21.011  0.00  0.00    +0.000 A 
ATOM     18  N   UNL     1       2.654   2.508  22.071  0.00  0.00    +0.000 NA
ATOM     19  C   UNL     1       1.400   2.557  21.533  0.00  0.00    +0.000 A 
ATOM     20  N   UNL     1       1.352   2.609  20.199  0.00  0.00    +0.000 NA
ENDBRANCH  15  16
ENDBRANCH   3  15
TORSDOF 4
ENDMDL
MODEL 3
REMARK VINA RESULT:      -7.7      1.438      4.603
REMARK  Name = 
REMARK  4 active torsions:
REMARK  status: ('A' for Active; 'I' for Inactive)
REMARK    1  A    between atoms: C_2  and  C_3
REMARK    2  A    between atoms: C_5  and  C_6
REMARK    3  A    between atoms: C_6  and  N_7
REMARK    4  A    between atoms: C_13  and  C_14
REMARK                            x       y       z     vdW  Elec       q    Type
REMARK                         _______ _______ _______ _____ _____    ______ ____
ROOT
ATOM      1  C   UNL     1       4.889   5.729  17.019  0.00  0.00    +0.000 A 
ATOM      2  C   UNL     1       4.377   4.468  17.335  0.00  0.00    +0.000 A 
ATOM      3  C   UNL     1       3.197   4.351  18.080  0.00  0.00    +0.000 A 
ATOM      4  C   UNL     1       2.531   5.521  18.482  0.00  0.00    +0.000 A 
ATOM      5  C   UNL     1       3.016   6.809  18.171  0.00  0.00    +0.000 A 
ATOM      6  C   UNL     1       4.216   6.885  17.441  0.00  0.00    +0.000 A 
ENDROOT
BRANCH   5   7
ATOM      7  C   UNL     1       2.257   8.020  18.570  0.00  0.00    +0.000 A 
ATOM      8  C   UNL     1       2.141   9.130  17.711  0.00  0.00    +0.000 A 
ATOM      9  C   UNL     1       1.512  10.311  18.118  0.00  0.00    +0.000 A 
ATOM     10  C   UNL     1       0.956  10.401  19.388  0.00  0.00    +0.000 A 
ATOM     11  C   UNL     1       1.021   9.309  20.247  0.00  0.00    +0.000 A 
ATOM     12  C   UNL     1       1.666   8.134  19.843  0.00  0.00    +0.000 A 
ENDBRANCH   5   7
BRANCH   1  14
ATOM     13  N   UNL     1       7.077   5.945  15.639  0.00  0.00    +0.000 NA
ATOM     14  C   UNL     1       6.100   5.844  16.260  0.00  0.00    +0.000 C 
ENDBRANCH   1  14
BRANCH   3  15
ATOM     15  C   UNL     1       2.635   2.993  18.425  0.00  0.00    +0.000 C 
BRANCH  15  16
ATOM     16  N   UNL     1       2.367   2.859  19.844  0.00  0.00    +0.000 N 
ATOM     17  C   UNL     1       3.269   2.656  20.843  0.00  0.00    +0.000 A 
ATOM     18  N   UNL     1       2.633   2.471  21.977  0.00  0.00    +0.000 NA
ATOM     19  C   UNL     1       1.321   2.566  21.612  0.00  0.00    +0.000 A 
ATOM     20  N   UNL     1       1.105   2.796  20.313  0.00  0.00    +0.000 NA
ENDBRANCH  15  16
ENDBRANCH   3  15
TORSDOF 4
ENDMDL
MODEL 4
REMARK VINA RESULT:      -7.6      1.073      1.105
REMARK  Name = 
REMARK  4 active torsions:
REMARK  status: ('A' for Active; 'I' for Inactive)
REMARK    1  A    between atoms: C_2  and  C_3
REMARK    2  A    between atoms: C_5  and  C_6
REMARK    3  A    between atoms: C_6  and  N_7
REMARK    4  A    between atoms: C_13  and  C_14
REMARK                            x       y       z     vdW  Elec       q    Type
REMARK                         _______ _______ _______ _____ _____    ______ ____
ROOT
ATOM      1  C   UNL     1       2.556   4.102  20.554  0.00  0.00    +0.000 A 
ATOM      2  C   UNL     1       3.702   3.734  19.844  0.00  0.00    +0.000 A 
ATOM      3  C   UNL     1       4.299   4.632  18.951  0.00  0.00    +0.000 A 
ATOM      4  C   UNL     1       3.737   5.912  18.801  0.00  0.00    +0.000 A 
ATOM      5  C   UNL     1       2.587   6.318  19.509  0.00  0.00    +0.000 A 
ATOM      6  C   UNL     1       2.003   5.380  20.378  0.00  0.00    +0.000 A 
ENDROOT
BRANCH   5   7
ATOM      7  C   UNL     1       2.053   7.695  19.360  0.00  0.00    +0.000 A 
ATOM      8  C   UNL     1       1.398   8.347  20.422  0.00  0.00    +0.000 A 
ATOM      9  C   UNL     1       0.808   9.604  20.259  0.00  0.00    +0.000 A 
ATOM     10  C   UNL     1       0.881  10.254  19.034  0.00  0.00    +0.000 A 
ATOM     11  C   UNL     1       1.554   9.653  17.975  0.00  0.00    +0.000 A 
ATOM     12  C   UNL     1       2.129   8.387  18.136  0.00  0.00    +0.000 A 
ENDBRANCH   5   7
BRANCH   1  14
ATOM     13  N   UNL     1       1.443   2.434  22.202  0.00  0.00    +0.000 NA
ATOM     14  C   UNL     1       1.946   3.177  21.463  0.00  0.00    +0.000 C 
ENDBRANCH   1  14
BRANCH   3  15
ATOM     15  C   UNL     1       5.539   4.245  18.182  0.00  0.00    +0.000 C 
BRANCH  15  16
ATOM     16  N   UNL     1       6.405   5.382  17.938  0.00  0.00    +0.000 N 
ATOM     17  C   UNL     1       6.664   5.988  16.747  0.00  0.00    +0.000 A 
ATOM     18  N   UNL     1       7.587   6.907  16.913  0.00  0.00    +0.000 NA
ATOM     19  C   UNL     1       7.870   6.819  18.246  0.00  0.00    +0.000 A 
ATOM     20  N   UNL     1       7.178   5.894  18.917  0.00  0.00    +0.000 NA
ENDBRANCH  15  16
ENDBRANCH   3  15
TORSDOF 4
ENDMDL
MODEL 5
REMARK VINA RESULT:      -7.6      1.040      1.511
REMARK  Name = 
REMARK  4 active torsions:
REMARK  status: ('A' for Active; 'I' for Inactive)
REMARK    1  A    between atoms: C_2  and  C_3
REMARK    2  A    between atoms: C_5  and  C_6
REMARK    3  A    between atoms: C_6  and  N_7
REMARK    4  A    between atoms: C_13  and  C_14
REMARK                            x       y       z     vdW  Elec       q    Type
REMARK                         _______ _______ _______ _____ _____    ______ ____
ROOT
ATOM      1  C   UNL     1       2.561   4.216  20.517  0.00  0.00    +0.000 A 
ATOM      2  C   UNL     1       3.654   3.848  19.727  0.00  0.00    +0.000 A 
ATOM      3  C   UNL     1       4.176   4.742  18.785  0.00  0.00    +0.000 A 
ATOM      4  C   UNL     1       3.598   6.017  18.666  0.00  0.00    +0.000 A 
ATOM      5  C   UNL     1       2.501   6.423  19.455  0.00  0.00    +0.000 A 
ATOM      6  C   UNL     1       1.990   5.490  20.374  0.00  0.00    +0.000 A 
ENDROOT
BRANCH   5   7
ATOM      7  C   UNL     1       1.950   7.796  19.335  0.00  0.00    +0.000 A 
ATOM      8  C   UNL     1       2.077   8.536  18.143  0.00  0.00    +0.000 A 
ATOM      9  C   UNL     1       1.647   9.864  18.055  0.00  0.00    +0.000 A 
ATOM     10  C   UNL     1       1.052  10.478  19.151  0.00  0.00    +0.000 A 
ATOM     11  C   UNL     1       0.878   9.761  20.330  0.00  0.00    +0.000 A 
ATOM     12  C   UNL     1       1.325   8.437  20.421  0.00  0.00    +0.000 A 
ENDBRANCH   5   7
BRANCH   1  14
ATOM     13  N   UNL     1       1.597   2.544  22.252  0.00  0.00    +0.000 NA
ATOM     14  C   UNL     1       2.026   3.297  21.478  0.00  0.00    +0.000 C 
ENDBRANCH   1  14
BRANCH   3  15
ATOM     15  C   UNL     1       5.357   4.354  17.928  0.00  0.00    +0.000 C 
BRANCH  15  16
ATOM     16  N   UNL     1       6.310   5.438  17.792  0.00  0.00    +0.000 N 
ATOM     17  C   UNL     1       6.693   6.069  16.649  0.00  0.00    +0.000 A 
ATOM     18  N   UNL     1       7.660   6.917  16.917  0.00  0.00    +0.000 NA
ATOM     19  C   UNL     1       7.840   6.760  18.261  0.00  0.00    +0.000 A 
ATOM     20  N   UNL     1       7.042   5.860  18.843  0.00  0.00    +0.000 NA
ENDBRANCH  15  16
ENDBRANCH   3  15
TORSDOF 4
ENDMDL
MODEL 6
REMARK VINA RESULT:      -7.5      2.949      6.622
REMARK  Name = 
REMARK  4 active torsions:
REMARK  status: ('A' for Active; 'I' for Inactive)
REMARK    1  A    between atoms: C_2  and  C_3
REMARK    2  A    between atoms: C_5  and  C_6
REMARK    3  A    between atoms: C_6  and  N_7
REMARK    4  A    between atoms: C_13  and  C_14
REMARK                            x       y       z     vdW  Elec       q    Type
REMARK                         _______ _______ _______ _____ _____    ______ ____
ROOT
ATOM      1  C   UNL     1       6.252   5.172  18.398  0.00  0.00    +0.000 A 
ATOM      2  C   UNL     1       4.880   5.220  18.659  0.00  0.00    +0.000 A 
ATOM      3  C   UNL     1       3.957   5.081  17.615  0.00  0.00    +0.000 A 
ATOM      4  C   UNL     1       4.437   4.872  16.311  0.00  0.00    +0.000 A 
ATOM      5  C   UNL     1       5.814   4.809  16.015  0.00  0.00    +0.000 A 
ATOM      6  C   UNL     1       6.709   4.976  17.087  0.00  0.00    +0.000 A 
ENDROOT
BRANCH   5   7
ATOM      7  C   UNL     1       6.280   4.537  14.632  0.00  0.00    +0.000 A 
ATOM      8  C   UNL     1       7.393   5.207  14.088  0.00  0.00    +0.000 A 
ATOM      9  C   UNL     1       7.777   5.027  12.755  0.00  0.00    +0.000 A 
ATOM     10  C   UNL     1       7.074   4.150  11.940  0.00  0.00    +0.000 A 
ATOM     11  C   UNL     1       5.994   3.444  12.459  0.00  0.00    +0.000 A 
ATOM     12  C   UNL     1       5.601   3.638  13.788  0.00  0.00    +0.000 A 
ENDBRANCH   5   7
BRANCH   1  14
ATOM     13  N   UNL     1       7.951   5.447  20.341  0.00  0.00    +0.000 NA
ATOM     14  C   UNL     1       7.192   5.319  19.470  0.00  0.00    +0.000 C 
ENDBRANCH   1  14
BRANCH   3  15
ATOM     15  C   UNL     1       2.473   5.130  17.886  0.00  0.00    +0.000 C 
BRANCH  15  16
ATOM     16  N   UNL     1       2.022   3.984  18.651  0.00  0.00    +0.000 N 
ATOM     17  C   UNL     1       1.589   3.966  19.941  0.00  0.00    +0.000 A 
ATOM     18  N   UNL     1       1.379   2.725  20.317  0.00  0.00    +0.000 NA
ATOM     19  C   UNL     1       1.709   2.008  19.202  0.00  0.00    +0.000 A 
ATOM     20  N   UNL     1       2.116   2.733  18.157  0.00  0.00    +0.000 NA
ENDBRANCH  15  16
ENDBRANCH   3  15
TORSDOF 4
ENDMDL
MODEL 7
REMARK VINA RESULT:      -7.4      3.198      6.689
REMARK  Name = 
REMARK  4 active torsions:
REMARK  status: ('A' for Active; 'I' for Inactive)
REMARK    1  A    between atoms: C_2  and  C_3
REMARK    2  A    between atoms: C_5  and  C_6
REMARK    3  A    between atoms: C_6  and  N_7
REMARK    4  A    between atoms: C_13  and  C_14
REMARK                            x       y       z     vdW  Elec       q    Type
REMARK                         _______ _______ _______ _____ _____    ______ ____
ROOT
ATOM      1  C   UNL     1       6.207   4.696  18.261  0.00  0.00    +0.000 A 
ATOM      2  C   UNL     1       4.970   4.115  18.557  0.00  0.00    +0.000 A 
ATOM      3  C   UNL     1       4.145   3.649  17.527  0.00  0.00    +0.000 A 
ATOM      4  C   UNL     1       4.592   3.755  16.199  0.00  0.00    +0.000 A 
ATOM      5  C   UNL     1       5.838   4.327  15.867  0.00  0.00    +0.000 A 
ATOM      6  C   UNL     1       6.629   4.805  16.928  0.00  0.00    +0.000 A 
ENDROOT
BRANCH   5   7
ATOM      7  C   UNL     1       6.297   4.376  14.457  0.00  0.00    +0.000 A 
ATOM      8  C   UNL     1       5.711   3.565  13.466  0.00  0.00    +0.000 A 
ATOM      9  C   UNL     1       6.203   3.535  12.157  0.00  0.00    +0.000 A 
ATOM     10  C   UNL     1       7.278   4.339  11.798  0.00  0.00    +0.000 A 
ATOM     11  C   UNL     1       7.854   5.179  12.745  0.00  0.00    +0.000 A 
ATOM     12  C   UNL     1       7.371   5.195  14.059  0.00  0.00    +0.000 A 
ENDBRANCH   5   7
BRANCH   1  14
ATOM     13  N   UNL     1       7.720   5.566  20.182  0.00  0.00    +0.000 NA
ATOM     14  C   UNL     1       7.046   5.176  19.319  0.00  0.00    +0.000 C 
ENDBRANCH   1  14
BRANCH   3  15
ATOM     15  C   UNL     1       2.808   3.018  17.836  0.00  0.00    +0.000 C 
BRANCH  15  16
ATOM     16  N   UNL     1       2.305   3.418  19.135  0.00  0.00    +0.000 N 
ATOM     17  C   UNL     1       2.235   2.664  20.266  0.00  0.00    +0.000 A 
ATOM     18  N   UNL     1       1.613   3.339  21.206  0.00  0.00    +0.000 NA
ATOM     19  C   UNL     1       1.312   4.519  20.588  0.00  0.00    +0.000 A 
ATOM     20  N   UNL     1       1.709   4.614  19.315  0.00  0.00    +0.000 NA
ENDBRANCH  15  16
ENDBRANCH   3  15
TORSDOF 4
ENDMDL
MODEL 8
REMARK VINA RESULT:      -7.4      3.333      6.676
REMARK  Name = 
REMARK  4 active torsions:
REMARK  status: ('A' for Active; 'I' for Inactive)
REMARK    1  A    between atoms: C_2  and  C_3
REMARK    2  A    between atoms: C_5  and  C_6
REMARK    3  A    between atoms: C_6  and  N_7
REMARK    4  A    between atoms: C_13  and  C_14
REMARK                            x       y       z     vdW  Elec       q    Type
REMARK                         _______ _______ _______ _____ _____    ______ ____
ROOT
ATOM      1  C   UNL     1       6.153   4.890  18.241  0.00  0.00    +0.000 A 
ATOM      2  C   UNL     1       4.801   4.629  18.484  0.00  0.00    +0.000 A 
ATOM      3  C   UNL     1       3.939   4.324  17.423  0.00  0.00    +0.000 A 
ATOM      4  C   UNL     1       4.463   4.266  16.120  0.00  0.00    +0.000 A 
ATOM      5  C   UNL     1       5.823   4.514  15.842  0.00  0.00    +0.000 A 
ATOM      6  C   UNL     1       6.652   4.839  16.931  0.00  0.00    +0.000 A 
ENDROOT
BRANCH   5   7
ATOM      7  C   UNL     1       6.348   4.393  14.459  0.00  0.00    +0.000 A 
ATOM      8  C   UNL     1       7.405   5.203  14.002  0.00  0.00    +0.000 A 
ATOM      9  C   UNL     1       7.838   5.163  12.673  0.00  0.00    +0.000 A 
ATOM     10  C   UNL     1       7.242   4.289  11.772  0.00  0.00    +0.000 A 
ATOM     11  C   UNL     1       6.220   3.449  12.203  0.00  0.00    +0.000 A 
ATOM     12  C   UNL     1       5.777   3.504  13.529  0.00  0.00    +0.000 A 
ENDBRANCH   5   7
BRANCH   1  14
ATOM     13  N   UNL     1       7.750   5.458  20.206  0.00  0.00    +0.000 NA
ATOM     14  C   UNL     1       7.031   5.205  19.329  0.00  0.00    +0.000 C 
ENDBRANCH   1  14
BRANCH   3  15
ATOM     15  C   UNL     1       2.479   4.039  17.675  0.00  0.00    +0.000 C 
BRANCH  15  16
ATOM     16  N   UNL     1       2.225   3.674  19.055  0.00  0.00    +0.000 N 
ATOM     17  C   UNL     1       2.273   2.431  19.607  0.00  0.00    +0.000 A 
ATOM     18  N   UNL     1       1.868   2.488  20.855  0.00  0.00    +0.000 NA
ATOM     19  C   UNL     1       1.574   3.811  21.021  0.00  0.00    +0.000 A 
ATOM     20  N   UNL     1       1.768   4.579  19.944  0.00  0.00    +0.000 NA
ENDBRANCH  15  16
ENDBRANCH   3  15
TORSDOF 4
ENDMDL
MODEL 9
REMARK VINA RESULT:      -7.4      3.015      6.596
REMARK  Name = 
REMARK  4 active torsions:
REMARK  status: ('A' for Active; 'I' for Inactive)
REMARK    1  A    between atoms: C_2  and  C_3
REMARK    2  A    between atoms: C_5  and  C_6
REMARK    3  A    between atoms: C_6  and  N_7
REMARK    4  A    between atoms: C_13  and  C_14
REMARK                            x       y       z     vdW  Elec       q    Type
REMARK                         _______ _______ _______ _____ _____    ______ ____
ROOT
ATOM      1  C   UNL     1       6.240   5.208  18.376  0.00  0.00    +0.000 A 
ATOM      2  C   UNL     1       4.872   5.225  18.661  0.00  0.00    +0.000 A 
ATOM      3  C   UNL     1       3.934   5.092  17.631  0.00  0.00    +0.000 A 
ATOM      4  C   UNL     1       4.393   4.920  16.314  0.00  0.00    +0.000 A 
ATOM      5  C   UNL     1       5.766   4.887  15.993  0.00  0.00    +0.000 A 
ATOM      6  C   UNL     1       6.677   5.047  17.052  0.00  0.00    +0.000 A 
ENDROOT
BRANCH   5   7
ATOM      7  C   UNL     1       6.212   4.653  14.597  0.00  0.00    +0.000 A 
ATOM      8  C   UNL     1       5.546   3.739  13.758  0.00  0.00    +0.000 A 
ATOM      9  C   UNL     1       6.019   3.441  12.476  0.00  0.00    +0.000 A 
ATOM     10  C   UNL     1       7.156   4.073  11.989  0.00  0.00    +0.000 A 
ATOM     11  C   UNL     1       7.814   5.010  12.779  0.00  0.00    +0.000 A 
ATOM     12  C   UNL     1       7.349   5.293  14.068  0.00  0.00    +0.000 A 
ENDBRANCH   5   7
BRANCH   1  14
ATOM     13  N   UNL     1       7.980   5.456  20.286  0.00  0.00    +0.000 NA
ATOM     14  C   UNL     1       7.197   5.348  19.433  0.00  0.00    +0.000 C 
ENDBRANCH   1  14
BRANCH   3  15
ATOM     15  C   UNL     1       2.454   5.108  17.930  0.00  0.00    +0.000 C 
BRANCH  15  16
ATOM     16  N   UNL     1       2.050   3.976  18.741  0.00  0.00    +0.000 N 
ATOM     17  C   UNL     1       1.974   2.671  18.364  0.00  0.00    +0.000 A 
ATOM     18  N   UNL     1       1.456   1.961  19.341  0.00  0.00    +0.000 NA
ATOM     19  C   UNL     1       1.224   2.897  20.309  0.00  0.00    +0.000 A 
ATOM     20  N   UNL     1       1.564   4.148  19.987  0.00  0.00    +0.000 NA
ENDBRANCH  15  16
ENDBRANCH   3  15
TORSDOF 4
ENDMDL
