MODEL 1
REMARK VINA RESULT:      -7.7      0.000      0.000
REMARK  Name = 
REMARK  5 active torsions:
REMARK  status: ('A' for Active; 'I' for Inactive)
REMARK    1  A    between atoms: C_1  and  C_2
REMARK    2  A    between atoms: C_5  and  C_6
REMARK    3  A    between atoms: C_8  and  C_9
REMARK    4  A    between atoms: N_14  and  C_15
REMARK    5  A    between atoms: C_24  and  C_25
REMARK                            x       y       z     vdW  Elec       q    Type
REMARK                         _______ _______ _______ _____ _____    ______ ____
ROOT
ATOM      1  C   UNL     1      -0.077  10.281  18.635  0.00  0.00    +0.000 C 
ATOM      2  O   UNL     1      -0.934  10.110  17.766  0.00  0.00    +0.000 OA
ATOM      3  N   UNL     1      -0.102  11.392  19.467  0.00  0.00    +0.000 N 
ATOM      4  C   UNL     1      -1.289  12.250  19.437  0.00  0.00    +0.000 C 
ATOM      5  C   UNL     1      -1.612  12.764  20.848  0.00  0.00    +0.000 C 
ATOM      6  N   UNL     1      -0.436  13.476  21.388  0.00  0.00    +0.000 N 
ATOM      7  C   UNL     1       0.792  12.647  21.429  0.00  0.00    +0.000 C 
ATOM      8  C   UNL     1       1.082  12.055  20.031  0.00  0.00    +0.000 C 
ENDROOT
BRANCH   1  11
ATOM      9  C   UNL     1       2.495   7.644  18.304  0.00  0.00    +0.000 A 
ATOM     10  C   UNL     1       1.729   8.668  17.782  0.00  0.00    +0.000 A 
ATOM     11  C   UNL     1       0.955   9.257  18.836  0.00  0.00    +0.000 A 
ATOM     12  C   UNL     1       1.276   8.542  19.986  0.00  0.00    +0.000 A 
ATOM     13  C   UNL     1       0.737   8.538  21.369  0.00  0.00    +0.000 C 
ATOM     14  N   UNL     1       2.276   7.661  19.659  0.00  0.00    +0.000 N 
ATOM     15  H   UNL     1       2.722   7.031  20.312  0.00  0.00    +0.000 HD
BRANCH   9  20
ATOM     16  C   UNL     1       5.992   3.803  15.765  0.00  0.00    +0.000 C 
ATOM     17  C   UNL     1       5.075   4.783  16.433  0.00  0.00    +0.000 A 
ATOM     18  C   UNL     1       3.975   4.357  17.185  0.00  0.00    +0.000 A 
ATOM     19  C   UNL     1       3.131   5.288  17.801  0.00  0.00    +0.000 A 
ATOM     20  C   UNL     1       3.371   6.659  17.670  0.00  0.00    +0.000 A 
ATOM     21  C   UNL     1       4.485   7.080  16.930  0.00  0.00    +0.000 A 
ATOM     22  C   UNL     1       5.327   6.153  16.314  0.00  0.00    +0.000 A 
ENDBRANCH   9  20
ENDBRANCH   1  11
BRANCH   6  23
ATOM     23  C   UNL     1      -0.610  14.376  22.435  0.00  0.00    +0.000 A 
ATOM     24  C   UNL     1       0.071  15.598  22.525  0.00  0.00    +0.000 A 
ATOM     25  C   UNL     1      -0.070  16.427  23.644  0.00  0.00    +0.000 A 
ATOM     26  C   UNL     1      -0.897  16.040  24.694  0.00  0.00    +0.000 A 
ATOM     27 CL   UNL     1      -1.043  17.038  26.086  0.00  0.00    +0.000 Cl
ATOM     28  C   UNL     1      -1.595  14.840  24.627  0.00  0.00    +0.000 A 
ATOM     29  C   UNL     1      -1.452  14.023  23.503  0.00  0.00    +0.000 A 
ENDBRANCH   6  23
TORSDOF 3
ENDMDL
MODEL 2
REMARK VINA RESULT:      -7.6      0.156      1.295
REMARK  Name = 
REMARK  5 active torsions:
REMARK  status: ('A' for Active; 'I' for Inactive)
REMARK    1  A    between atoms: C_1  and  C_2
REMARK    2  A    between atoms: C_5  and  C_6
REMARK    3  A    between atoms: C_8  and  C_9
REMARK    4  A    between atoms: N_14  and  C_15
REMARK    5  A    between atoms: C_24  and  C_25
REMARK                            x       y       z     vdW  Elec       q    Type
REMARK                         _______ _______ _______ _____ _____    ______ ____
ROOT
ATOM      1  C   UNL     1      -0.070  10.262  18.677  0.00  0.00    +0.000 C 
ATOM      2  O   UNL     1      -0.926  10.098  17.805  0.00  0.00    +0.000 OA
ATOM      3  N   UNL     1      -0.113  11.353  19.535  0.00  0.00    +0.000 N 
ATOM      4  C   UNL     1      -1.314  12.193  19.525  0.00  0.00    +0.000 C 
ATOM      5  C   UNL     1      -1.643  12.669  20.948  0.00  0.00    +0.000 C 
ATOM      6  N   UNL     1      -0.478  13.387  21.503  0.00  0.00    +0.000 N 
ATOM      7  C   UNL     1       0.763  12.577  21.525  0.00  0.00    +0.000 C 
ATOM      8  C   UNL     1       1.061  12.021  20.113  0.00  0.00    +0.000 C 
ENDROOT
BRANCH   1  11
ATOM      9  C   UNL     1       2.530   7.662  18.285  0.00  0.00    +0.000 A 
ATOM     10  C   UNL     1       1.742   8.680  17.783  0.00  0.00    +0.000 A 
ATOM     11  C   UNL     1       0.977   9.251  18.854  0.00  0.00    +0.000 A 
ATOM     12  C   UNL     1       1.325   8.530  19.993  0.00  0.00    +0.000 A 
ATOM     13  C   UNL     1       0.807   8.508  21.384  0.00  0.00    +0.000 C 
ATOM     14  N   UNL     1       2.332   7.665  19.644  0.00  0.00    +0.000 N 
ATOM     15  H   UNL     1       2.796   7.037  20.285  0.00  0.00    +0.000 HD
BRANCH   9  20
ATOM     16  C   UNL     1       5.974   3.783  15.731  0.00  0.00    +0.000 C 
ATOM     17  C   UNL     1       5.090   4.804  16.383  0.00  0.00    +0.000 A 
ATOM     18  C   UNL     1       5.329   6.175  16.237  0.00  0.00    +0.000 A 
ATOM     19  C   UNL     1       4.493   7.113  16.853  0.00  0.00    +0.000 A 
ATOM     20  C   UNL     1       3.409   6.694  17.630  0.00  0.00    +0.000 A 
ATOM     21  C   UNL     1       3.165   5.320  17.760  0.00  0.00    +0.000 A 
ATOM     22  C   UNL     1       3.998   4.383  17.147  0.00  0.00    +0.000 A 
ENDBRANCH   9  20
ENDBRANCH   1  11
BRANCH   6  23
ATOM     23  C   UNL     1      -0.666  14.259  22.572  0.00  0.00    +0.000 A 
ATOM     24  C   UNL     1      -1.583  14.028  23.606  0.00  0.00    +0.000 A 
ATOM     25  C   UNL     1      -1.801  14.978  24.609  0.00  0.00    +0.000 A 
ATOM     26  C   UNL     1      -1.101  16.181  24.589  0.00  0.00    +0.000 A 
ATOM     27 CL   UNL     1      -1.394  17.367  25.799  0.00  0.00    +0.000 Cl
ATOM     28  C   UNL     1      -0.176  16.433  23.584  0.00  0.00    +0.000 A 
ATOM     29  C   UNL     1       0.039  15.475  22.590  0.00  0.00    +0.000 A 
ENDBRANCH   6  23
TORSDOF 3
ENDMDL
MODEL 3
REMARK VINA RESULT:      -7.4      3.286      4.109
REMARK  Name = 
REMARK  5 active torsions:
REMARK  status: ('A' for Active; 'I' for Inactive)
REMARK    1  A    between atoms: C_1  and  C_2
REMARK    2  A    between atoms: C_5  and  C_6
REMARK    3  A    between atoms: C_8  and  C_9
REMARK    4  A    between atoms: N_14  and  C_15
REMARK    5  A    between atoms: C_24  and  C_25
REMARK                            x       y       z     vdW  Elec       q    Type
REMARK                         _______ _______ _______ _____ _____    ______ ____
ROOT
ATOM      1  C   UNL     1       1.333   7.646  20.560  0.00  0.00    +0.000 C 
ATOM      2  O   UNL     1       0.804   7.353  21.634  0.00  0.00    +0.000 OA
ATOM      3  N   UNL     1       1.243   8.928  20.035  0.00  0.00    +0.000 N 
ATOM      4  C   UNL     1       0.688   9.984  20.885  0.00  0.00    +0.000 C 
ATOM      5  C   UNL     1       1.431  11.307  20.646  0.00  0.00    +0.000 C 
ATOM      6  N   UNL     1       1.352  11.659  19.214  0.00  0.00    +0.000 N 
ATOM      7  C   UNL     1       1.896  10.614  18.315  0.00  0.00    +0.000 C 
ATOM      8  C   UNL     1       1.213   9.256  18.603  0.00  0.00    +0.000 C 
ENDROOT
BRANCH   1  11
ATOM      9  C   UNL     1       3.528   5.741  18.273  0.00  0.00    +0.000 A 
ATOM     10  C   UNL     1       3.071   6.928  18.813  0.00  0.00    +0.000 A 
ATOM     11  C   UNL     1       2.129   6.636  19.854  0.00  0.00    +0.000 A 
ATOM     12  C   UNL     1       2.033   5.248  19.899  0.00  0.00    +0.000 A 
ATOM     13  C   UNL     1       1.148   4.309  20.633  0.00  0.00    +0.000 C 
ATOM     14  N   UNL     1       2.959   4.741  19.021  0.00  0.00    +0.000 N 
ATOM     15  H   UNL     1       3.126   3.756  18.871  0.00  0.00    +0.000 HD
BRANCH   9  20
ATOM     16  C   UNL     1       6.981   4.690  13.756  0.00  0.00    +0.000 C 
ATOM     17  C   UNL     1       6.088   4.943  14.934  0.00  0.00    +0.000 A 
ATOM     18  C   UNL     1       5.665   3.901  15.765  0.00  0.00    +0.000 A 
ATOM     19  C   UNL     1       4.831   4.156  16.859  0.00  0.00    +0.000 A 
ATOM     20  C   UNL     1       4.404   5.459  17.136  0.00  0.00    +0.000 A 
ATOM     21  C   UNL     1       4.844   6.501  16.310  0.00  0.00    +0.000 A 
ATOM     22  C   UNL     1       5.675   6.248  15.217  0.00  0.00    +0.000 A 
ENDBRANCH   9  20
ENDBRANCH   1  11
BRANCH   6  23
ATOM     23  C   UNL     1       1.566  12.979  18.827  0.00  0.00    +0.000 A 
ATOM     24  C   UNL     1       2.767  13.435  18.267  0.00  0.00    +0.000 A 
ATOM     25  C   UNL     1       2.966  14.790  17.980  0.00  0.00    +0.000 A 
ATOM     26  C   UNL     1       1.960  15.712  18.253  0.00  0.00    +0.000 A 
ATOM     27 CL   UNL     1       2.214  17.382  17.936  0.00  0.00    +0.000 Cl
ATOM     28  C   UNL     1       0.753  15.287  18.795  0.00  0.00    +0.000 A 
ATOM     29  C   UNL     1       0.562  13.931  19.073  0.00  0.00    +0.000 A 
ENDBRANCH   6  23
TORSDOF 3
ENDMDL
MODEL 4
REMARK VINA RESULT:      -7.4      0.856      1.256
REMARK  Name = 
REMARK  5 active torsions:
REMARK  status: ('A' for Active; 'I' for Inactive)
REMARK    1  A    between atoms: C_1  and  C_2
REMARK    2  A    between atoms: C_5  and  C_6
REMARK    3  A    between atoms: C_8  and  C_9
REMARK    4  A    between atoms: N_14  and  C_15
REMARK    5  A    between atoms: C_24  and  C_25
REMARK                            x       y       z     vdW  Elec       q    Type
REMARK                         _______ _______ _______ _____ _____    ______ ____
ROOT
ATOM      1  C   UNL     1      -0.526  10.587  18.683  0.00  0.00    +0.000 C 
ATOM      2  O   UNL     1      -1.322  10.376  17.766  0.00  0.00    +0.000 OA
ATOM      3  N   UNL     1      -0.650  11.699  19.506  0.00  0.00    +0.000 N 
ATOM      4  C   UNL     1      -1.870  12.504  19.400  0.00  0.00    +0.000 C 
ATOM      5  C   UNL     1      -2.299  13.008  20.786  0.00  0.00    +0.000 C 
ATOM      6  N   UNL     1      -1.189  13.772  21.391  0.00  0.00    +0.000 N 
ATOM      7  C   UNL     1       0.069  12.998  21.511  0.00  0.00    +0.000 C 
ATOM      8  C   UNL     1       0.468  12.414  20.136  0.00  0.00    +0.000 C 
ENDROOT
BRANCH   1  11
ATOM      9  C   UNL     1       2.135   8.024  18.526  0.00  0.00    +0.000 A 
ATOM     10  C   UNL     1       1.344   8.994  17.941  0.00  0.00    +0.000 A 
ATOM     11  C   UNL     1       0.535   9.611  18.952  0.00  0.00    +0.000 A 
ATOM     12  C   UNL     1       0.861   8.967  20.142  0.00  0.00    +0.000 A 
ATOM     13  C   UNL     1       0.301   9.016  21.516  0.00  0.00    +0.000 C 
ATOM     14  N   UNL     1       1.895   8.104  19.875  0.00  0.00    +0.000 N 
ATOM     15  H   UNL     1       2.350   7.525  20.567  0.00  0.00    +0.000 HD
BRANCH   9  20
ATOM     16  C   UNL     1       5.728   4.074  16.310  0.00  0.00    +0.000 C 
ATOM     17  C   UNL     1       4.807   5.113  16.875  0.00  0.00    +0.000 A 
ATOM     18  C   UNL     1       5.065   6.479  16.717  0.00  0.00    +0.000 A 
ATOM     19  C   UNL     1       4.193   7.434  17.252  0.00  0.00    +0.000 A 
ATOM     20  C   UNL     1       3.052   7.038  17.957  0.00  0.00    +0.000 A 
ATOM     21  C   UNL     1       2.790   5.668  18.097  0.00  0.00    +0.000 A 
ATOM     22  C   UNL     1       3.659   4.714  17.565  0.00  0.00    +0.000 A 
ENDBRANCH   9  20
ENDBRANCH   1  11
BRANCH   6  23
ATOM     23  C   UNL     1      -1.466  14.667  22.421  0.00  0.00    +0.000 A 
ATOM     24  C   UNL     1      -1.976  15.955  22.210  0.00  0.00    +0.000 A 
ATOM     25  C   UNL     1      -2.151  16.850  23.271  0.00  0.00    +0.000 A 
ATOM     26  C   UNL     1      -1.813  16.466  24.564  0.00  0.00    +0.000 A 
ATOM     27 CL   UNL     1      -1.991  17.576  25.865  0.00  0.00    +0.000 Cl
ATOM     28  C   UNL     1      -1.318  15.191  24.807  0.00  0.00    +0.000 A 
ATOM     29  C   UNL     1      -1.152  14.303  23.742  0.00  0.00    +0.000 A 
ENDBRANCH   6  23
TORSDOF 3
ENDMDL
MODEL 5
REMARK VINA RESULT:      -7.4      3.519      5.379
REMARK  Name = 
REMARK  5 active torsions:
REMARK  status: ('A' for Active; 'I' for Inactive)
REMARK    1  A    between atoms: C_1  and  C_2
REMARK    2  A    between atoms: C_5  and  C_6
REMARK    3  A    between atoms: C_8  and  C_9
REMARK    4  A    between atoms: N_14  and  C_15
REMARK    5  A    between atoms: C_24  and  C_25
REMARK                            x       y       z     vdW  Elec       q    Type
REMARK                         _______ _______ _______ _____ _____    ______ ____
ROOT
ATOM      1  C   UNL     1       2.723   5.397  20.059  0.00  0.00    +0.000 C 
ATOM      2  O   UNL     1       2.444   4.837  21.121  0.00  0.00    +0.000 OA
ATOM      3  N   UNL     1       2.145   6.609  19.707  0.00  0.00    +0.000 N 
ATOM      4  C   UNL     1       1.359   7.319  20.720  0.00  0.00    +0.000 C 
ATOM      5  C   UNL     1       1.578   8.834  20.600  0.00  0.00    +0.000 C 
ATOM      6  N   UNL     1       1.229   9.270  19.232  0.00  0.00    +0.000 N 
ATOM      7  C   UNL     1       1.996   8.572  18.174  0.00  0.00    +0.000 C 
ATOM      8  C   UNL     1       1.852   7.040  18.334  0.00  0.00    +0.000 C 
ENDROOT
BRANCH   1  11
ATOM      9  C   UNL     1       5.018   4.491  17.304  0.00  0.00    +0.000 A 
ATOM     10  C   UNL     1       4.176   5.381  17.943  0.00  0.00    +0.000 A 
ATOM     11  C   UNL     1       3.734   4.801  19.178  0.00  0.00    +0.000 A 
ATOM     12  C   UNL     1       4.325   3.542  19.238  0.00  0.00    +0.000 A 
ATOM     13  C   UNL     1       4.176   2.388  20.159  0.00  0.00    +0.000 C 
ATOM     14  N   UNL     1       5.170   3.431  18.162  0.00  0.00    +0.000 N 
ATOM     15  H   UNL     1       5.752   2.627  17.971  0.00  0.00    +0.000 HD
BRANCH   9  20
ATOM     16  C   UNL     1       7.498   4.578  12.081  0.00  0.00    +0.000 C 
ATOM     17  C   UNL     1       6.869   4.569  13.443  0.00  0.00    +0.000 A 
ATOM     18  C   UNL     1       7.497   5.169  14.539  0.00  0.00    +0.000 A 
ATOM     19  C   UNL     1       6.894   5.150  15.803  0.00  0.00    +0.000 A 
ATOM     20  C   UNL     1       5.657   4.525  15.989  0.00  0.00    +0.000 A 
ATOM     21  C   UNL     1       5.026   3.939  14.883  0.00  0.00    +0.000 A 
ATOM     22  C   UNL     1       5.626   3.957  13.623  0.00  0.00    +0.000 A 
ENDBRANCH   9  20
ENDBRANCH   1  11
BRANCH   6  23
ATOM     23  C   UNL     1       0.938  10.612  19.002  0.00  0.00    +0.000 A 
ATOM     24  C   UNL     1       1.890  11.547  18.573  0.00  0.00    +0.000 A 
ATOM     25  C   UNL     1       1.569  12.902  18.444  0.00  0.00    +0.000 A 
ATOM     26  C   UNL     1       0.285  13.343  18.747  0.00  0.00    +0.000 A 
ATOM     27 CL   UNL     1      -0.102  15.013  18.625  0.00  0.00    +0.000 Cl
ATOM     28  C   UNL     1      -0.684  12.437  19.160  0.00  0.00    +0.000 A 
ATOM     29  C   UNL     1      -0.355  11.085  19.280  0.00  0.00    +0.000 A 
ENDBRANCH   6  23
TORSDOF 3
ENDMDL
MODEL 6
REMARK VINA RESULT:      -7.2      3.474      5.399
REMARK  Name = 
REMARK  5 active torsions:
REMARK  status: ('A' for Active; 'I' for Inactive)
REMARK    1  A    between atoms: C_1  and  C_2
REMARK    2  A    between atoms: C_5  and  C_6
REMARK    3  A    between atoms: C_8  and  C_9
REMARK    4  A    between atoms: N_14  and  C_15
REMARK    5  A    between atoms: C_24  and  C_25
REMARK                            x       y       z     vdW  Elec       q    Type
REMARK                         _______ _______ _______ _____ _____    ______ ____
ROOT
ATOM      1  C   UNL     1       2.675   5.235  20.149  0.00  0.00    +0.000 C 
ATOM      2  O   UNL     1       2.359   4.602  21.158  0.00  0.00    +0.000 OA
ATOM      3  N   UNL     1       2.098   6.463  19.856  0.00  0.00    +0.000 N 
ATOM      4  C   UNL     1       1.262   7.095  20.880  0.00  0.00    +0.000 C 
ATOM      5  C   UNL     1       1.468   8.618  20.871  0.00  0.00    +0.000 C 
ATOM      6  N   UNL     1       1.171   9.142  19.522  0.00  0.00    +0.000 N 
ATOM      7  C   UNL     1       1.989   8.523  18.452  0.00  0.00    +0.000 C 
ATOM      8  C   UNL     1       1.856   6.983  18.503  0.00  0.00    +0.000 C 
ENDROOT
BRANCH   1  11
ATOM      9  C   UNL     1       5.032   4.479  17.401  0.00  0.00    +0.000 A 
ATOM     10  C   UNL     1       4.125   5.308  18.032  0.00  0.00    +0.000 A 
ATOM     11  C   UNL     1       3.728   4.709  19.273  0.00  0.00    +0.000 A 
ATOM     12  C   UNL     1       4.414   3.500  19.346  0.00  0.00    +0.000 A 
ATOM     13  C   UNL     1       4.353   2.347  20.279  0.00  0.00    +0.000 C 
ATOM     14  N   UNL     1       5.265   3.442  18.271  0.00  0.00    +0.000 N 
ATOM     15  H   UNL     1       5.906   2.683  18.088  0.00  0.00    +0.000 HD
BRANCH   9  20
ATOM     16  C   UNL     1       7.592   4.790  12.227  0.00  0.00    +0.000 C 
ATOM     17  C   UNL     1       6.913   4.697  13.560  0.00  0.00    +0.000 A 
ATOM     18  C   UNL     1       5.652   4.108  13.697  0.00  0.00    +0.000 A 
ATOM     19  C   UNL     1       5.034   4.031  14.951  0.00  0.00    +0.000 A 
ATOM     20  C   UNL     1       5.667   4.547  16.086  0.00  0.00    +0.000 A 
ATOM     21  C   UNL     1       6.937   5.122  15.945  0.00  0.00    +0.000 A 
ATOM     22  C   UNL     1       7.554   5.200  14.696  0.00  0.00    +0.000 A 
ENDBRANCH   9  20
ENDBRANCH   1  11
BRANCH   6  23
ATOM     23  C   UNL     1       0.874  10.493  19.371  0.00  0.00    +0.000 A 
ATOM     24  C   UNL     1      -0.341  11.066  19.771  0.00  0.00    +0.000 A 
ATOM     25  C   UNL     1      -0.629  12.411  19.514  0.00  0.00    +0.000 A 
ATOM     26  C   UNL     1       0.300  13.204  18.847  0.00  0.00    +0.000 A 
ATOM     27 CL   UNL     1      -0.065  14.847  18.496  0.00  0.00    +0.000 Cl
ATOM     28  C   UNL     1       1.519  12.667  18.451  0.00  0.00    +0.000 A 
ATOM     29  C   UNL     1       1.799  11.325  18.717  0.00  0.00    +0.000 A 
ENDBRANCH   6  23
TORSDOF 3
ENDMDL
MODEL 7
REMARK VINA RESULT:      -7.2      3.184      5.634
REMARK  Name = 
REMARK  5 active torsions:
REMARK  status: ('A' for Active; 'I' for Inactive)
REMARK    1  A    between atoms: C_1  and  C_2
REMARK    2  A    between atoms: C_5  and  C_6
REMARK    3  A    between atoms: C_8  and  C_9
REMARK    4  A    between atoms: N_14  and  C_15
REMARK    5  A    between atoms: C_24  and  C_25
REMARK                            x       y       z     vdW  Elec       q    Type
REMARK                         _______ _______ _______ _____ _____    ______ ____
ROOT
ATOM      1  C   UNL     1       3.665   5.340  19.246  0.00  0.00    +0.000 C 
ATOM      2  O   UNL     1       3.605   4.414  20.057  0.00  0.00    +0.000 OA
ATOM      3  N   UNL     1       2.772   6.402  19.293  0.00  0.00    +0.000 N 
ATOM      4  C   UNL     1       1.890   6.510  20.458  0.00  0.00    +0.000 C 
ATOM      5  C   UNL     1       1.699   7.983  20.848  0.00  0.00    +0.000 C 
ATOM      6  N   UNL     1       1.169   8.729  19.688  0.00  0.00    +0.000 N 
ATOM      7  C   UNL     1       2.027   8.641  18.483  0.00  0.00    +0.000 C 
ATOM      8  C   UNL     1       2.296   7.160  18.128  0.00  0.00    +0.000 C 
ENDROOT
BRANCH   1  11
ATOM      9  C   UNL     1       5.797   5.026  16.240  0.00  0.00    +0.000 A 
ATOM     10  C   UNL     1       4.561   5.073  16.855  0.00  0.00    +0.000 A 
ATOM     11  C   UNL     1       4.743   5.352  18.250  0.00  0.00    +0.000 A 
ATOM     12  C   UNL     1       6.118   5.452  18.440  0.00  0.00    +0.000 A 
ATOM     13  C   UNL     1       6.976   5.582  19.645  0.00  0.00    +0.000 C 
ATOM     14  N   UNL     1       6.713   5.363  17.206  0.00  0.00    +0.000 N 
ATOM     15  H   UNL     1       7.708   5.432  17.043  0.00  0.00    +0.000 HD
BRANCH   9  20
ATOM     16  C   UNL     1       7.331   3.611  10.848  0.00  0.00    +0.000 C 
ATOM     17  C   UNL     1       6.947   3.993  12.246  0.00  0.00    +0.000 A 
ATOM     18  C   UNL     1       7.697   4.918  12.981  0.00  0.00    +0.000 A 
ATOM     19  C   UNL     1       7.323   5.262  14.285  0.00  0.00    +0.000 A 
ATOM     20  C   UNL     1       6.197   4.682  14.877  0.00  0.00    +0.000 A 
ATOM     21  C   UNL     1       5.441   3.768  14.130  0.00  0.00    +0.000 A 
ATOM     22  C   UNL     1       5.812   3.423  12.830  0.00  0.00    +0.000 A 
ENDBRANCH   9  20
ENDBRANCH   1  11
BRANCH   6  23
ATOM     23  C   UNL     1       0.525   9.945  19.900  0.00  0.00    +0.000 A 
ATOM     24  C   UNL     1       0.329  10.503  21.171  0.00  0.00    +0.000 A 
ATOM     25  C   UNL     1      -0.404  11.683  21.340  0.00  0.00    +0.000 A 
ATOM     26  C   UNL     1      -0.957  12.321  20.234  0.00  0.00    +0.000 A 
ATOM     27 CL   UNL     1      -1.890  13.750  20.442  0.00  0.00    +0.000 Cl
ATOM     28  C   UNL     1      -0.767  11.799  18.961  0.00  0.00    +0.000 A 
ATOM     29  C   UNL     1      -0.028  10.624  18.802  0.00  0.00    +0.000 A 
ENDBRANCH   6  23
TORSDOF 3
ENDMDL
MODEL 8
REMARK VINA RESULT:      -7.2      4.541     10.860
REMARK  Name = 
REMARK  5 active torsions:
REMARK  status: ('A' for Active; 'I' for Inactive)
REMARK    1  A    between atoms: C_1  and  C_2
REMARK    2  A    between atoms: C_5  and  C_6
REMARK    3  A    between atoms: C_8  and  C_9
REMARK    4  A    between atoms: N_14  and  C_15
REMARK    5  A    between atoms: C_24  and  C_25
REMARK                            x       y       z     vdW  Elec       q    Type
REMARK                         _______ _______ _______ _____ _____    ______ ____
ROOT
ATOM      1  C   UNL     1       2.256   6.442  19.990  0.00  0.00    +0.000 C 
ATOM      2  O   UNL     1       1.765   5.619  20.766  0.00  0.00    +0.000 OA
ATOM      3  N   UNL     1       3.193   6.068  19.038  0.00  0.00    +0.000 N 
ATOM      4  C   UNL     1       3.431   4.637  18.828  0.00  0.00    +0.000 C 
ATOM      5  C   UNL     1       3.674   4.349  17.339  0.00  0.00    +0.000 C 
ATOM      6  N   UNL     1       4.807   5.168  16.862  0.00  0.00    +0.000 N 
ATOM      7  C   UNL     1       4.612   6.624  17.062  0.00  0.00    +0.000 C 
ATOM      8  C   UNL     1       4.285   6.919  18.544  0.00  0.00    +0.000 C 
ENDROOT
BRANCH   1  11
ATOM      9  C   UNL     1       0.785   9.725  20.849  0.00  0.00    +0.000 A 
ATOM     10  C   UNL     1       1.256   8.474  21.199  0.00  0.00    +0.000 A 
ATOM     11  C   UNL     1       1.791   7.833  20.033  0.00  0.00    +0.000 A 
ATOM     12  C   UNL     1       1.607   8.733  18.987  0.00  0.00    +0.000 A 
ATOM     13  C   UNL     1       1.799   8.645  17.518  0.00  0.00    +0.000 C 
ATOM     14  N   UNL     1       1.106   9.893  19.525  0.00  0.00    +0.000 N 
ATOM     15  H   UNL     1       0.902  10.729  18.994  0.00  0.00    +0.000 HD
BRANCH   9  20
ATOM     16  C   UNL     1      -2.048  13.797  23.819  0.00  0.00    +0.000 C 
ATOM     17  C   UNL     1      -1.325  12.726  23.058  0.00  0.00    +0.000 A 
ATOM     18  C   UNL     1      -1.529  11.370  23.335  0.00  0.00    +0.000 A 
ATOM     19  C   UNL     1      -0.845  10.385  22.614  0.00  0.00    +0.000 A 
ATOM     20  C   UNL     1       0.058  10.742  21.607  0.00  0.00    +0.000 A 
ATOM     21  C   UNL     1       0.246  12.101  21.323  0.00  0.00    +0.000 A 
ATOM     22  C   UNL     1      -0.435  13.085  22.042  0.00  0.00    +0.000 A 
ENDBRANCH   9  20
ENDBRANCH   1  11
BRANCH   6  23
ATOM     23  C   UNL     1       5.478   4.787  15.704  0.00  0.00    +0.000 A 
ATOM     24  C   UNL     1       6.804   5.149  15.425  0.00  0.00    +0.000 A 
ATOM     25  C   UNL     1       7.405   4.818  14.206  0.00  0.00    +0.000 A 
ATOM     26  C   UNL     1       6.682   4.120  13.243  0.00  0.00    +0.000 A 
ATOM     27 CL   UNL     1       7.406   3.745  11.729  0.00  0.00    +0.000 Cl
ATOM     28  C   UNL     1       5.372   3.736  13.496  0.00  0.00    +0.000 A 
ATOM     29  C   UNL     1       4.783   4.066  14.719  0.00  0.00    +0.000 A 
ENDBRANCH   6  23
TORSDOF 3
ENDMDL
MODEL 9
REMARK VINA RESULT:      -7.1      3.152      5.583
REMARK  Name = 
REMARK  5 active torsions:
REMARK  status: ('A' for Active; 'I' for Inactive)
REMARK    1  A    between atoms: C_1  and  C_2
REMARK    2  A    between atoms: C_5  and  C_6
REMARK    3  A    between atoms: C_8  and  C_9
REMARK    4  A    between atoms: N_14  and  C_15
REMARK    5  A    between atoms: C_24  and  C_25
REMARK                            x       y       z     vdW  Elec       q    Type
REMARK                         _______ _______ _______ _____ _____    ______ ____
ROOT
ATOM      1  C   UNL     1       3.544   4.803  19.213  0.00  0.00    +0.000 C 
ATOM      2  O   UNL     1       3.460   3.735  19.822  0.00  0.00    +0.000 OA
ATOM      3  N   UNL     1       2.698   5.867  19.498  0.00  0.00    +0.000 N 
ATOM      4  C   UNL     1       1.845   5.770  20.686  0.00  0.00    +0.000 C 
ATOM      5  C   UNL     1       1.725   7.141  21.369  0.00  0.00    +0.000 C 
ATOM      6  N   UNL     1       1.204   8.125  20.399  0.00  0.00    +0.000 N 
ATOM      7  C   UNL     1       2.033   8.250  19.177  0.00  0.00    +0.000 C 
ATOM      8  C   UNL     1       2.231   6.862  18.524  0.00  0.00    +0.000 C 
ENDROOT
BRANCH   1  11
ATOM      9  C   UNL     1       5.669   4.827  16.186  0.00  0.00    +0.000 A 
ATOM     10  C   UNL     1       4.444   4.697  16.811  0.00  0.00    +0.000 A 
ATOM     11  C   UNL     1       4.600   4.976  18.209  0.00  0.00    +0.000 A 
ATOM     12  C   UNL     1       5.951   5.257  18.391  0.00  0.00    +0.000 A 
ATOM     13  C   UNL     1       6.795   5.480  19.591  0.00  0.00    +0.000 C 
ATOM     14  N   UNL     1       6.541   5.268  17.151  0.00  0.00    +0.000 N 
ATOM     15  H   UNL     1       7.516   5.473  16.982  0.00  0.00    +0.000 HD
BRANCH   9  20
ATOM     16  C   UNL     1       7.414   3.825  10.766  0.00  0.00    +0.000 C 
ATOM     17  C   UNL     1       6.948   4.070  12.170  0.00  0.00    +0.000 A 
ATOM     18  C   UNL     1       5.796   3.455  12.673  0.00  0.00    +0.000 A 
ATOM     19  C   UNL     1       5.376   3.696  13.986  0.00  0.00    +0.000 A 
ATOM     20  C   UNL     1       6.098   4.561  14.814  0.00  0.00    +0.000 A 
ATOM     21  C   UNL     1       7.260   5.161  14.310  0.00  0.00    +0.000 A 
ATOM     22  C   UNL     1       7.680   4.922  13.001  0.00  0.00    +0.000 A 
ENDBRANCH   9  20
ENDBRANCH   1  11
BRANCH   6  23
ATOM     23  C   UNL     1       0.618   9.296  20.870  0.00  0.00    +0.000 A 
ATOM     24  C   UNL     1       0.701  10.526  20.202  0.00  0.00    +0.000 A 
ATOM     25  C   UNL     1       0.173  11.694  20.762  0.00  0.00    +0.000 A 
ATOM     26  C   UNL     1      -0.448  11.647  22.007  0.00  0.00    +0.000 A 
ATOM     27 CL   UNL     1      -1.065  13.087  22.715  0.00  0.00    +0.000 Cl
ATOM     28  C   UNL     1      -0.558  10.440  22.686  0.00  0.00    +0.000 A 
ATOM     29  C   UNL     1      -0.033   9.279  22.116  0.00  0.00    +0.000 A 
ENDBRANCH   6  23
TORSDOF 3
ENDMDL
