MODEL 1
REMARK VINA RESULT:      -8.3      0.000      0.000
REMARK  Name = 
REMARK  11 active torsions:
REMARK  status: ('A' for Active; 'I' for Inactive)
REMARK    1  A    between atoms: C_1  and  O_2
REMARK    2  A    between atoms: O_2  and  C_3
REMARK    3  A    between atoms: C_3  and  C_5
REMARK    4  A    between atoms: C_11  and  C_12
REMARK    5  A    between atoms: C_15  and  C_16
REMARK    6  A    between atoms: C_16  and  C_17
REMARK    7  A    between atoms: C_16  and  N_18
REMARK    8  A    between atoms: N_18  and  C_19
REMARK    9  A    between atoms: C_25  and  N_26
REMARK   10  A    between atoms: C_27  and  C_29
REMARK   11  A    between atoms: C_29  and  C_30
REMARK                            x       y       z     vdW  Elec       q    Type
REMARK                         _______ _______ _______ _____ _____    ______ ____
ROOT
ATOM      1  C   UNL     1       3.022   6.843  18.064  0.00  0.00    +0.000 C 
ATOM      2  C   UNL     1       4.232   7.314  17.241  0.00  0.00    +0.000 C 
ENDROOT
BRANCH   1   6
ATOM      3  C   UNL     1       0.513  10.060  19.674  0.00  0.00    +0.000 A 
ATOM      4  C   UNL     1       0.941   8.975  20.462  0.00  0.00    +0.000 A 
ATOM      5  C   UNL     1       1.804   7.990  19.962  0.00  0.00    +0.000 A 
ATOM      6  C   UNL     1       2.242   8.027  18.634  0.00  0.00    +0.000 A 
ATOM      7  C   UNL     1       1.884   9.143  17.866  0.00  0.00    +0.000 A 
ATOM      8  C   UNL     1       1.061  10.148  18.388  0.00  0.00    +0.000 A 
BRANCH   3  15
ATOM      9  C   UNL     1      -1.679  11.434  19.557  0.00  0.00    +0.000 A 
ATOM     10  C   UNL     1      -2.507  12.419  20.119  0.00  0.00    +0.000 A 
ATOM     11  F   UNL     1      -3.667  12.761  19.545  0.00  0.00    +0.000 F 
ATOM     12  C   UNL     1      -2.171  13.052  21.304  0.00  0.00    +0.000 A 
ATOM     13  C   UNL     1      -0.997  12.700  21.959  0.00  0.00    +0.000 A 
ATOM     14  C   UNL     1      -0.152  11.734  21.407  0.00  0.00    +0.000 A 
ATOM     15  C   UNL     1      -0.456  11.069  20.189  0.00  0.00    +0.000 A 
BRANCH   9  16
ATOM     16  C   UNL     1      -2.191  10.747  18.343  0.00  0.00    +0.000 C 
ATOM     17  O   UNL     1      -2.532   9.581  18.303  0.00  0.00    +0.000 OA
BRANCH  16  19
ATOM     18  C   UNL     1      -2.520  11.001  16.032  0.00  0.00    +0.000 C 
ATOM     19  O   UNL     1      -2.160  11.598  17.284  0.00  0.00    +0.000 OA
ENDBRANCH  16  19
ENDBRANCH   9  16
ENDBRANCH   3  15
ENDBRANCH   1   6
BRANCH   1  20
ATOM     20  N   UNL     1       3.376   5.936  19.182  0.00  0.00    +0.000 N 
ATOM     21  H   UNL     1       4.390   5.872  19.275  0.00  0.00    +0.000 HD
BRANCH  20  22
ATOM     22  C   UNL     1       2.882   4.612  19.041  0.00  0.00    +0.000 A 
ATOM     23  N   UNL     1       1.558   4.420  19.251  0.00  0.00    +0.000 NA
ATOM     24  C   UNL     1       1.044   3.197  19.062  0.00  0.00    +0.000 A 
ATOM     25  C   UNL     1       1.806   2.113  18.708  0.00  0.00    +0.000 A 
ATOM     26  C   UNL     1       3.181   2.289  18.523  0.00  0.00    +0.000 A 
ATOM     27 CL   UNL     1       4.056   0.799  18.397  0.00  0.00    +0.000 Cl
ATOM     28  C   UNL     1       3.756   3.571  18.611  0.00  0.00    +0.000 A 
BRANCH  28  29
ATOM     29  N   UNL     1       5.136   3.925  18.393  0.00  0.00    +0.000 N 
ATOM     30  C   UNL     1       5.781   4.158  17.181  0.00  0.00    +0.000 C 
ATOM     31  O   UNL     1       5.249   4.141  16.072  0.00  0.00    +0.000 OA
ATOM     32  H   UNL     1       5.585   4.249  19.250  0.00  0.00    +0.000 HD
BRANCH  30  33
ATOM     33  C   UNL     1       7.236   4.625  17.270  0.00  0.00    +0.000 C 
BRANCH  33  34
ATOM     34  C   UNL     1       7.377   5.121  18.700  0.00  0.00    +0.000 C 
ATOM     35  N   UNL     1       7.494   5.534  19.886  0.00  0.00    +0.000 NA
ENDBRANCH  33  34
ENDBRANCH  30  33
ENDBRANCH  28  29
ENDBRANCH  20  22
ENDBRANCH   1  20
TORSDOF 9
ENDMDL
MODEL 2
REMARK VINA RESULT:      -8.3      0.862      1.037
REMARK  Name = 
REMARK  11 active torsions:
REMARK  status: ('A' for Active; 'I' for Inactive)
REMARK    1  A    between atoms: C_1  and  O_2
REMARK    2  A    between atoms: O_2  and  C_3
REMARK    3  A    between atoms: C_3  and  C_5
REMARK    4  A    between atoms: C_11  and  C_12
REMARK    5  A    between atoms: C_15  and  C_16
REMARK    6  A    between atoms: C_16  and  C_17
REMARK    7  A    between atoms: C_16  and  N_18
REMARK    8  A    between atoms: N_18  and  C_19
REMARK    9  A    between atoms: C_25  and  N_26
REMARK   10  A    between atoms: C_27  and  C_29
REMARK   11  A    between atoms: C_29  and  C_30
REMARK                            x       y       z     vdW  Elec       q    Type
REMARK                         _______ _______ _______ _____ _____    ______ ____
ROOT
ATOM      1  C   UNL     1       2.637   6.946  18.659  0.00  0.00    +0.000 C 
ATOM      2  C   UNL     1       3.756   7.454  17.735  0.00  0.00    +0.000 C 
ENDROOT
BRANCH   1   6
ATOM      3  C   UNL     1       0.195  10.109  20.468  0.00  0.00    +0.000 A 
ATOM      4  C   UNL     1       0.548   8.939  21.167  0.00  0.00    +0.000 A 
ATOM      5  C   UNL     1       1.391   7.968  20.610  0.00  0.00    +0.000 A 
ATOM      6  C   UNL     1       1.882   8.106  19.307  0.00  0.00    +0.000 A 
ATOM      7  C   UNL     1       1.599   9.301  18.633  0.00  0.00    +0.000 A 
ATOM      8  C   UNL     1       0.796  10.289  19.215  0.00  0.00    +0.000 A 
BRANCH   3  15
ATOM      9  C   UNL     1      -1.625  11.941  20.282  0.00  0.00    +0.000 A 
ATOM     10  C   UNL     1      -2.461  12.869  20.925  0.00  0.00    +0.000 A 
ATOM     11  F   UNL     1      -3.298  13.648  20.229  0.00  0.00    +0.000 F 
ATOM     12  C   UNL     1      -2.476  12.991  22.304  0.00  0.00    +0.000 A 
ATOM     13  C   UNL     1      -1.657  12.173  23.072  0.00  0.00    +0.000 A 
ATOM     14  C   UNL     1      -0.805  11.256  22.450  0.00  0.00    +0.000 A 
ATOM     15  C   UNL     1      -0.754  11.107  21.038  0.00  0.00    +0.000 A 
BRANCH   9  16
ATOM     16  C   UNL     1      -1.771  11.823  18.809  0.00  0.00    +0.000 C 
ATOM     17  O   UNL     1      -1.141  12.474  17.998  0.00  0.00    +0.000 OA
BRANCH  16  19
ATOM     18  C   UNL     1      -2.388   9.950  17.533  0.00  0.00    +0.000 C 
ATOM     19  O   UNL     1      -2.753  10.930  18.513  0.00  0.00    +0.000 OA
ENDBRANCH  16  19
ENDBRANCH   9  16
ENDBRANCH   3  15
ENDBRANCH   1   6
BRANCH   1  20
ATOM     20  N   UNL     1       3.113   6.042  19.733  0.00  0.00    +0.000 N 
ATOM     21  H   UNL     1       4.133   6.015  19.744  0.00  0.00    +0.000 HD
BRANCH  20  22
ATOM     22  C   UNL     1       2.658   4.701  19.613  0.00  0.00    +0.000 A 
ATOM     23  N   UNL     1       1.385   4.443  19.994  0.00  0.00    +0.000 NA
ATOM     24  C   UNL     1       0.900   3.204  19.833  0.00  0.00    +0.000 A 
ATOM     25  C   UNL     1       1.650   2.167  19.340  0.00  0.00    +0.000 A 
ATOM     26  C   UNL     1       2.978   2.410  18.976  0.00  0.00    +0.000 A 
ATOM     27 CL   UNL     1       3.888   0.966  18.679  0.00  0.00    +0.000 Cl
ATOM     28  C   UNL     1       3.507   3.714  19.031  0.00  0.00    +0.000 A 
BRANCH  28  29
ATOM     29  N   UNL     1       4.828   4.137  18.640  0.00  0.00    +0.000 N 
ATOM     30  C   UNL     1       5.337   4.279  17.352  0.00  0.00    +0.000 C 
ATOM     31  O   UNL     1       4.709   4.104  16.310  0.00  0.00    +0.000 OA
ATOM     32  H   UNL     1       5.328   4.583  19.410  0.00  0.00    +0.000 HD
BRANCH  30  33
ATOM     33  C   UNL     1       6.753   4.853  17.246  0.00  0.00    +0.000 C 
BRANCH  33  34
ATOM     34  C   UNL     1       7.122   5.189  18.682  0.00  0.00    +0.000 C 
ATOM     35  N   UNL     1       7.427   5.468  19.874  0.00  0.00    +0.000 NA
ENDBRANCH  33  34
ENDBRANCH  30  33
ENDBRANCH  28  29
ENDBRANCH  20  22
ENDBRANCH   1  20
TORSDOF 9
ENDMDL
MODEL 3
REMARK VINA RESULT:      -8.2      0.943      1.133
REMARK  Name = 
REMARK  11 active torsions:
REMARK  status: ('A' for Active; 'I' for Inactive)
REMARK    1  A    between atoms: C_1  and  O_2
REMARK    2  A    between atoms: O_2  and  C_3
REMARK    3  A    between atoms: C_3  and  C_5
REMARK    4  A    between atoms: C_11  and  C_12
REMARK    5  A    between atoms: C_15  and  C_16
REMARK    6  A    between atoms: C_16  and  C_17
REMARK    7  A    between atoms: C_16  and  N_18
REMARK    8  A    between atoms: N_18  and  C_19
REMARK    9  A    between atoms: C_25  and  N_26
REMARK   10  A    between atoms: C_27  and  C_29
REMARK   11  A    between atoms: C_29  and  C_30
REMARK                            x       y       z     vdW  Elec       q    Type
REMARK                         _______ _______ _______ _____ _____    ______ ____
ROOT
ATOM      1  C   UNL     1       2.990   6.874  18.311  0.00  0.00    +0.000 C 
ATOM      2  C   UNL     1       4.240   7.349  17.552  0.00  0.00    +0.000 C 
ENDROOT
BRANCH   1   6
ATOM      3  C   UNL     1       0.244  10.061  19.550  0.00  0.00    +0.000 A 
ATOM      4  C   UNL     1       0.704   9.076  20.444  0.00  0.00    +0.000 A 
ATOM      5  C   UNL     1       1.641   8.106  20.061  0.00  0.00    +0.000 A 
ATOM      6  C   UNL     1       2.123   8.053  18.749  0.00  0.00    +0.000 A 
ATOM      7  C   UNL     1       1.729   9.074  17.874  0.00  0.00    +0.000 A 
ATOM      8  C   UNL     1       0.831  10.069  18.278  0.00  0.00    +0.000 A 
BRANCH   3  15
ATOM      9  C   UNL     1      -1.988  11.330  19.208  0.00  0.00    +0.000 A 
ATOM     10  C   UNL     1      -2.893  12.304  19.659  0.00  0.00    +0.000 A 
ATOM     11  F   UNL     1      -4.022  12.567  18.989  0.00  0.00    +0.000 F 
ATOM     12  C   UNL     1      -2.669  13.008  20.831  0.00  0.00    +0.000 A 
ATOM     13  C   UNL     1      -1.533  12.740  21.585  0.00  0.00    +0.000 A 
ATOM     14  C   UNL     1      -0.612  11.786  21.143  0.00  0.00    +0.000 A 
ATOM     15  C   UNL     1      -0.801  11.050  19.943  0.00  0.00    +0.000 A 
BRANCH   9  16
ATOM     16  C   UNL     1      -2.383  10.564  17.999  0.00  0.00    +0.000 C 
ATOM     17  O   UNL     1      -2.850   9.441  18.016  0.00  0.00    +0.000 OA
BRANCH  16  19
ATOM     18  C   UNL     1      -2.843  10.911  15.722  0.00  0.00    +0.000 C 
ATOM     19  O   UNL     1      -2.085  11.279  16.882  0.00  0.00    +0.000 OA
ENDBRANCH  16  19
ENDBRANCH   9  16
ENDBRANCH   3  15
ENDBRANCH   1   6
BRANCH   1  20
ATOM     20  N   UNL     1       3.293   6.050  19.506  0.00  0.00    +0.000 N 
ATOM     21  H   UNL     1       4.302   5.999  19.651  0.00  0.00    +0.000 HD
BRANCH  20  22
ATOM     22  C   UNL     1       2.811   4.715  19.434  0.00  0.00    +0.000 A 
ATOM     23  N   UNL     1       1.515   4.507  19.764  0.00  0.00    +0.000 NA
ATOM     24  C   UNL     1       1.007   3.272  19.646  0.00  0.00    +0.000 A 
ATOM     25  C   UNL     1       1.753   2.194  19.246  0.00  0.00    +0.000 A 
ATOM     26  C   UNL     1       3.103   2.387  18.935  0.00  0.00    +0.000 A 
ATOM     27 CL   UNL     1       3.989   0.908  18.759  0.00  0.00    +0.000 Cl
ATOM     28  C   UNL     1       3.662   3.679  18.947  0.00  0.00    +0.000 A 
BRANCH  28  29
ATOM     29  N   UNL     1       5.011   4.050  18.600  0.00  0.00    +0.000 N 
ATOM     30  C   UNL     1       5.603   4.053  17.340  0.00  0.00    +0.000 C 
ATOM     31  O   UNL     1       5.039   3.774  16.284  0.00  0.00    +0.000 OA
ATOM     32  H   UNL     1       5.466   4.571  19.350  0.00  0.00    +0.000 HD
BRANCH  30  33
ATOM     33  C   UNL     1       7.029   4.603  17.266  0.00  0.00    +0.000 C 
BRANCH  33  34
ATOM     34  C   UNL     1       7.199   4.995  15.807  0.00  0.00    +0.000 C 
ATOM     35  N   UNL     1       7.338   5.319  14.596  0.00  0.00    +0.000 NA
ENDBRANCH  33  34
ENDBRANCH  30  33
ENDBRANCH  28  29
ENDBRANCH  20  22
ENDBRANCH   1  20
TORSDOF 9
ENDMDL
MODEL 4
REMARK VINA RESULT:      -8.1      2.099      2.661
REMARK  Name = 
REMARK  11 active torsions:
REMARK  status: ('A' for Active; 'I' for Inactive)
REMARK    1  A    between atoms: C_1  and  O_2
REMARK    2  A    between atoms: O_2  and  C_3
REMARK    3  A    between atoms: C_3  and  C_5
REMARK    4  A    between atoms: C_11  and  C_12
REMARK    5  A    between atoms: C_15  and  C_16
REMARK    6  A    between atoms: C_16  and  C_17
REMARK    7  A    between atoms: C_16  and  N_18
REMARK    8  A    between atoms: N_18  and  C_19
REMARK    9  A    between atoms: C_25  and  N_26
REMARK   10  A    between atoms: C_27  and  C_29
REMARK   11  A    between atoms: C_29  and  C_30
REMARK                            x       y       z     vdW  Elec       q    Type
REMARK                         _______ _______ _______ _____ _____    ______ ____
ROOT
ATOM      1  C   UNL     1       2.492   7.055  18.818  0.00  0.00    +0.000 C 
ATOM      2  C   UNL     1       3.551   7.690  17.901  0.00  0.00    +0.000 C 
ENDROOT
BRANCH   1   6
ATOM      3  C   UNL     1       0.434  10.310  20.918  0.00  0.00    +0.000 A 
ATOM      4  C   UNL     1       0.582  10.293  19.518  0.00  0.00    +0.000 A 
ATOM      5  C   UNL     1       1.173   9.214  18.847  0.00  0.00    +0.000 A 
ATOM      6  C   UNL     1       1.684   8.122  19.556  0.00  0.00    +0.000 A 
ATOM      7  C   UNL     1       1.474   8.094  20.940  0.00  0.00    +0.000 A 
ATOM      8  C   UNL     1       0.839   9.154  21.599  0.00  0.00    +0.000 A 
BRANCH   3  15
ATOM      9  C   UNL     1       0.384  12.812  21.581  0.00  0.00    +0.000 A 
ATOM     10  C   UNL     1      -0.219  13.844  22.318  0.00  0.00    +0.000 A 
ATOM     11  F   UNL     1       0.246  15.099  22.267  0.00  0.00    +0.000 F 
ATOM     12  C   UNL     1      -1.337  13.611  23.103  0.00  0.00    +0.000 A 
ATOM     13  C   UNL     1      -1.883  12.335  23.154  0.00  0.00    +0.000 A 
ATOM     14  C   UNL     1      -1.287  11.291  22.441  0.00  0.00    +0.000 A 
ATOM     15  C   UNL     1      -0.135  11.487  21.633  0.00  0.00    +0.000 A 
BRANCH   9  16
ATOM     16  C   UNL     1       1.509  13.200  20.692  0.00  0.00    +0.000 C 
ATOM     17  O   UNL     1       2.683  13.161  21.009  0.00  0.00    +0.000 OA
BRANCH  16  19
ATOM     18  C   UNL     1       1.629  14.875  19.051  0.00  0.00    +0.000 C 
ATOM     19  O   UNL     1       1.025  13.659  19.508  0.00  0.00    +0.000 OA
ENDBRANCH  16  19
ENDBRANCH   9  16
ENDBRANCH   3  15
ENDBRANCH   1   6
BRANCH   1  20
ATOM     20  N   UNL     1       3.055   6.119  19.821  0.00  0.00    +0.000 N 
ATOM     21  H   UNL     1       4.073   6.110  19.761  0.00  0.00    +0.000 HD
BRANCH  20  22
ATOM     22  C   UNL     1       2.613   4.777  19.681  0.00  0.00    +0.000 A 
ATOM     23  N   UNL     1       1.349   4.497  20.077  0.00  0.00    +0.000 NA
ATOM     24  C   UNL     1       0.875   3.256  19.899  0.00  0.00    +0.000 A 
ATOM     25  C   UNL     1       1.627   2.238  19.373  0.00  0.00    +0.000 A 
ATOM     26  C   UNL     1       2.946   2.503  18.992  0.00  0.00    +0.000 A 
ATOM     27 CL   UNL     1       3.867   1.075  18.650  0.00  0.00    +0.000 Cl
ATOM     28  C   UNL     1       3.462   3.811  19.065  0.00  0.00    +0.000 A 
BRANCH  28  29
ATOM     29  N   UNL     1       4.772   4.256  18.661  0.00  0.00    +0.000 N 
ATOM     30  C   UNL     1       5.244   4.475  17.369  0.00  0.00    +0.000 C 
ATOM     31  O   UNL     1       4.585   4.361  16.338  0.00  0.00    +0.000 OA
ATOM     32  H   UNL     1       5.295   4.656  19.441  0.00  0.00    +0.000 HD
BRANCH  30  33
ATOM     33  C   UNL     1       6.657   5.054  17.256  0.00  0.00    +0.000 C 
BRANCH  33  34
ATOM     34  C   UNL     1       7.073   5.294  18.698  0.00  0.00    +0.000 C 
ATOM     35  N   UNL     1       7.416   5.494  19.895  0.00  0.00    +0.000 NA
ENDBRANCH  33  34
ENDBRANCH  30  33
ENDBRANCH  28  29
ENDBRANCH  20  22
ENDBRANCH   1  20
TORSDOF 9
ENDMDL
MODEL 5
REMARK VINA RESULT:      -8.1      4.815      9.485
REMARK  Name = 
REMARK  11 active torsions:
REMARK  status: ('A' for Active; 'I' for Inactive)
REMARK    1  A    between atoms: C_1  and  O_2
REMARK    2  A    between atoms: O_2  and  C_3
REMARK    3  A    between atoms: C_3  and  C_5
REMARK    4  A    between atoms: C_11  and  C_12
REMARK    5  A    between atoms: C_15  and  C_16
REMARK    6  A    between atoms: C_16  and  C_17
REMARK    7  A    between atoms: C_16  and  N_18
REMARK    8  A    between atoms: N_18  and  C_19
REMARK    9  A    between atoms: C_25  and  N_26
REMARK   10  A    between atoms: C_27  and  C_29
REMARK   11  A    between atoms: C_29  and  C_30
REMARK                            x       y       z     vdW  Elec       q    Type
REMARK                         _______ _______ _______ _____ _____    ______ ____
ROOT
ATOM      1  C   UNL     1      -0.219  10.280  19.856  0.00  0.00    +0.000 C 
ATOM      2  C   UNL     1       0.154  10.991  21.166  0.00  0.00    +0.000 C 
ENDROOT
BRANCH   1   6
ATOM      3  C   UNL     1       2.704   7.338  18.428  0.00  0.00    +0.000 A 
ATOM      4  C   UNL     1       2.247   8.396  17.620  0.00  0.00    +0.000 A 
ATOM      5  C   UNL     1       1.371   9.377  18.107  0.00  0.00    +0.000 A 
ATOM      6  C   UNL     1       0.878   9.313  19.415  0.00  0.00    +0.000 A 
ATOM      7  C   UNL     1       1.386   8.308  20.249  0.00  0.00    +0.000 A 
ATOM      8  C   UNL     1       2.299   7.360  19.769  0.00  0.00    +0.000 A 
BRANCH   3  15
ATOM      9  C   UNL     1       3.219   4.892  17.752  0.00  0.00    +0.000 A 
ATOM     10  C   UNL     1       4.139   3.955  17.253  0.00  0.00    +0.000 A 
ATOM     11  F   UNL     1       3.807   2.667  17.105  0.00  0.00    +0.000 F 
ATOM     12  C   UNL     1       5.414   4.333  16.866  0.00  0.00    +0.000 A 
ATOM     13  C   UNL     1       5.790   5.667  16.961  0.00  0.00    +0.000 A 
ATOM     14  C   UNL     1       4.895   6.611  17.471  0.00  0.00    +0.000 A 
ATOM     15  C   UNL     1       3.582   6.262  17.887  0.00  0.00    +0.000 A 
BRANCH   9  16
ATOM     16  C   UNL     1       1.848   4.393  18.034  0.00  0.00    +0.000 C 
ATOM     17  O   UNL     1       0.928   4.422  17.240  0.00  0.00    +0.000 OA
BRANCH  16  19
ATOM     18  C   UNL     1       1.163   2.675  19.482  0.00  0.00    +0.000 C 
ATOM     19  O   UNL     1       1.769   3.964  19.322  0.00  0.00    +0.000 OA
ENDBRANCH  16  19
ENDBRANCH   9  16
ENDBRANCH   3  15
ENDBRANCH   1   6
BRANCH   1  20
ATOM     20  N   UNL     1      -0.503  11.206  18.733  0.00  0.00    +0.000 N 
ATOM     21  H   UNL     1      -0.460  12.173  19.055  0.00  0.00    +0.000 HD
BRANCH  20  22
ATOM     22  C   UNL     1      -1.774  11.020  18.127  0.00  0.00    +0.000 A 
ATOM     23  N   UNL     1      -1.890  10.018  17.225  0.00  0.00    +0.000 NA
ATOM     24  C   UNL     1      -3.090   9.770  16.682  0.00  0.00    +0.000 A 
ATOM     25  C   UNL     1      -4.205  10.516  16.966  0.00  0.00    +0.000 A 
ATOM     26  C   UNL     1      -4.093  11.577  17.869  0.00  0.00    +0.000 A 
ATOM     27 CL   UNL     1      -5.479  12.617  17.887  0.00  0.00    +0.000 Cl
ATOM     28  C   UNL     1      -2.881  11.818  18.543  0.00  0.00    +0.000 A 
BRANCH  28  29
ATOM     29  N   UNL     1      -2.621  12.829  19.537  0.00  0.00    +0.000 N 
ATOM     30  C   UNL     1      -3.319  13.070  20.718  0.00  0.00    +0.000 C 
ATOM     31  O   UNL     1      -4.270  12.412  21.134  0.00  0.00    +0.000 OA
ATOM     32  H   UNL     1      -1.688  13.231  19.435  0.00  0.00    +0.000 HD
BRANCH  30  33
ATOM     33  C   UNL     1      -2.740  14.151  21.635  0.00  0.00    +0.000 C 
BRANCH  33  34
ATOM     34  C   UNL     1      -1.365  14.431  21.050  0.00  0.00    +0.000 C 
ATOM     35  N   UNL     1      -0.223  14.663  20.566  0.00  0.00    +0.000 NA
ENDBRANCH  33  34
ENDBRANCH  30  33
ENDBRANCH  28  29
ENDBRANCH  20  22
ENDBRANCH   1  20
TORSDOF 9
ENDMDL
MODEL 6
REMARK VINA RESULT:      -8.1      4.736      9.327
REMARK  Name = 
REMARK  11 active torsions:
REMARK  status: ('A' for Active; 'I' for Inactive)
REMARK    1  A    between atoms: C_1  and  O_2
REMARK    2  A    between atoms: O_2  and  C_3
REMARK    3  A    between atoms: C_3  and  C_5
REMARK    4  A    between atoms: C_11  and  C_12
REMARK    5  A    between atoms: C_15  and  C_16
REMARK    6  A    between atoms: C_16  and  C_17
REMARK    7  A    between atoms: C_16  and  N_18
REMARK    8  A    between atoms: N_18  and  C_19
REMARK    9  A    between atoms: C_25  and  N_26
REMARK   10  A    between atoms: C_27  and  C_29
REMARK   11  A    between atoms: C_29  and  C_30
REMARK                            x       y       z     vdW  Elec       q    Type
REMARK                         _______ _______ _______ _____ _____    ______ ____
ROOT
ATOM      1  C   UNL     1       0.270  10.809  19.738  0.00  0.00    +0.000 C 
ATOM      2  C   UNL     1       1.257  11.821  20.341  0.00  0.00    +0.000 C 
ENDROOT
BRANCH   1   6
ATOM      3  C   UNL     1       2.627   7.386  18.336  0.00  0.00    +0.000 A 
ATOM      4  C   UNL     1       2.151   7.480  19.657  0.00  0.00    +0.000 A 
ATOM      5  C   UNL     1       1.335   8.539  20.078  0.00  0.00    +0.000 A 
ATOM      6  C   UNL     1       0.996   9.576  19.202  0.00  0.00    +0.000 A 
ATOM      7  C   UNL     1       1.401   9.452  17.867  0.00  0.00    +0.000 A 
ATOM      8  C   UNL     1       2.176   8.366  17.442  0.00  0.00    +0.000 A 
BRANCH   3  15
ATOM      9  C   UNL     1       3.215   4.911  17.852  0.00  0.00    +0.000 A 
ATOM     10  C   UNL     1       4.173   3.962  17.460  0.00  0.00    +0.000 A 
ATOM     11  F   UNL     1       3.871   2.660  17.384  0.00  0.00    +0.000 F 
ATOM     12  C   UNL     1       5.458   4.339  17.106  0.00  0.00    +0.000 A 
ATOM     13  C   UNL     1       5.807   5.684  17.127  0.00  0.00    +0.000 A 
ATOM     14  C   UNL     1       4.873   6.641  17.531  0.00  0.00    +0.000 A 
ATOM     15  C   UNL     1       3.548   6.294  17.910  0.00  0.00    +0.000 A 
BRANCH   9  16
ATOM     16  C   UNL     1       1.842   4.405  18.104  0.00  0.00    +0.000 C 
ATOM     17  O   UNL     1       0.957   4.367  17.271  0.00  0.00    +0.000 OA
BRANCH  16  19
ATOM     18  C   UNL     1       0.898   2.897  19.638  0.00  0.00    +0.000 C 
ATOM     19  O   UNL     1       1.712   4.054  19.411  0.00  0.00    +0.000 OA
ENDBRANCH  16  19
ENDBRANCH   9  16
ENDBRANCH   3  15
ENDBRANCH   1   6
BRANCH   1  20
ATOM     20  N   UNL     1      -0.567  11.367  18.648  0.00  0.00    +0.000 N 
ATOM     21  H   UNL     1      -0.139  12.215  18.276  0.00  0.00    +0.000 HD
BRANCH  20  22
ATOM     22  C   UNL     1      -1.891  11.700  19.039  0.00  0.00    +0.000 A 
ATOM     23  N   UNL     1      -2.034  12.486  20.132  0.00  0.00    +0.000 NA
ATOM     24  C   UNL     1      -3.265  12.875  20.492  0.00  0.00    +0.000 A 
ATOM     25  C   UNL     1      -4.398  12.477  19.829  0.00  0.00    +0.000 A 
ATOM     26  C   UNL     1      -4.268  11.636  18.720  0.00  0.00    +0.000 A 
ATOM     27 CL   UNL     1      -5.772  10.963  18.184  0.00  0.00    +0.000 Cl
ATOM     28  C   UNL     1      -2.994  11.278  18.239  0.00  0.00    +0.000 A 
BRANCH  28  29
ATOM     29  N   UNL     1      -2.692  10.471  17.083  0.00  0.00    +0.000 N 
ATOM     30  C   UNL     1      -3.075  10.688  15.762  0.00  0.00    +0.000 C 
ATOM     31  O   UNL     1      -3.714  11.654  15.352  0.00  0.00    +0.000 OA
ATOM     32  H   UNL     1      -1.931   9.816  17.266  0.00  0.00    +0.000 HD
BRANCH  30  33
ATOM     33  C   UNL     1      -2.510   9.711  14.728  0.00  0.00    +0.000 C 
BRANCH  33  34
ATOM     34  C   UNL     1      -3.448   9.850  13.539  0.00  0.00    +0.000 C 
ATOM     35  N   UNL     1      -4.227   9.966  12.554  0.00  0.00    +0.000 NA
ENDBRANCH  33  34
ENDBRANCH  30  33
ENDBRANCH  28  29
ENDBRANCH  20  22
ENDBRANCH   1  20
TORSDOF 9
ENDMDL
MODEL 7
REMARK VINA RESULT:      -8.1      4.669      9.390
REMARK  Name = 
REMARK  11 active torsions:
REMARK  status: ('A' for Active; 'I' for Inactive)
REMARK    1  A    between atoms: C_1  and  O_2
REMARK    2  A    between atoms: O_2  and  C_3
REMARK    3  A    between atoms: C_3  and  C_5
REMARK    4  A    between atoms: C_11  and  C_12
REMARK    5  A    between atoms: C_15  and  C_16
REMARK    6  A    between atoms: C_16  and  C_17
REMARK    7  A    between atoms: C_16  and  N_18
REMARK    8  A    between atoms: N_18  and  C_19
REMARK    9  A    between atoms: C_25  and  N_26
REMARK   10  A    between atoms: C_27  and  C_29
REMARK   11  A    between atoms: C_29  and  C_30
REMARK                            x       y       z     vdW  Elec       q    Type
REMARK                         _______ _______ _______ _____ _____    ______ ____
ROOT
ATOM      1  C   UNL     1       0.314   9.942  21.066  0.00  0.00    +0.000 C 
ATOM      2  C   UNL     1       0.520   9.582  22.546  0.00  0.00    +0.000 C 
ENDROOT
BRANCH   1   6
ATOM      3  C   UNL     1       2.668   7.214  18.565  0.00  0.00    +0.000 A 
ATOM      4  C   UNL     1       2.352   6.921  19.905  0.00  0.00    +0.000 A 
ATOM      5  C   UNL     1       1.536   7.761  20.676  0.00  0.00    +0.000 A 
ATOM      6  C   UNL     1       1.037   8.957  20.148  0.00  0.00    +0.000 A 
ATOM      7  C   UNL     1       1.282   9.219  18.794  0.00  0.00    +0.000 A 
ATOM      8  C   UNL     1       2.058   8.350  18.017  0.00  0.00    +0.000 A 
BRANCH   3  15
ATOM      9  C   UNL     1       3.425   4.956  17.549  0.00  0.00    +0.000 A 
ATOM     10  C   UNL     1       4.372   4.236  16.803  0.00  0.00    +0.000 A 
ATOM     11  F   UNL     1       4.224   2.925  16.572  0.00  0.00    +0.000 F 
ATOM     12  C   UNL     1       5.480   4.858  16.251  0.00  0.00    +0.000 A 
ATOM     13  C   UNL     1       5.655   6.226  16.427  0.00  0.00    +0.000 A 
ATOM     14  C   UNL     1       4.732   6.956  17.180  0.00  0.00    +0.000 A 
ATOM     15  C   UNL     1       3.589   6.353  17.770  0.00  0.00    +0.000 A 
BRANCH   9  16
ATOM     16  C   UNL     1       2.224   4.207  18.000  0.00  0.00    +0.000 C 
ATOM     17  O   UNL     1       1.156   4.203  17.419  0.00  0.00    +0.000 OA
BRANCH  16  19
ATOM     18  C   UNL     1       2.255   2.173  19.174  0.00  0.00    +0.000 C 
ATOM     19  O   UNL     1       2.484   3.588  19.182  0.00  0.00    +0.000 OA
ENDBRANCH  16  19
ENDBRANCH   9  16
ENDBRANCH   3  15
ENDBRANCH   1   6
BRANCH   1  20
ATOM     20  N   UNL     1       0.757  11.314  20.718  0.00  0.00    +0.000 N 
ATOM     21  H   UNL     1       1.651  11.518  21.165  0.00  0.00    +0.000 HD
BRANCH  20  22
ATOM     22  C   UNL     1      -0.150  12.337  21.103  0.00  0.00    +0.000 A 
ATOM     23  N   UNL     1       0.300  13.264  21.982  0.00  0.00    +0.000 NA
ATOM     24  C   UNL     1      -0.505  14.282  22.317  0.00  0.00    +0.000 A 
ATOM     25  C   UNL     1      -1.786  14.407  21.846  0.00  0.00    +0.000 A 
ATOM     26  C   UNL     1      -2.277  13.438  20.965  0.00  0.00    +0.000 A 
ATOM     27 CL   UNL     1      -3.987  13.543  20.707  0.00  0.00    +0.000 Cl
ATOM     28  C   UNL     1      -1.441  12.403  20.502  0.00  0.00    +0.000 A 
BRANCH  28  29
ATOM     29  N   UNL     1      -1.776  11.368  19.557  0.00  0.00    +0.000 N 
ATOM     30  C   UNL     1      -1.733  11.429  18.167  0.00  0.00    +0.000 C 
ATOM     31  O   UNL     1      -1.349  12.391  17.504  0.00  0.00    +0.000 OA
ATOM     32  H   UNL     1      -1.822  10.450  20.000  0.00  0.00    +0.000 HD
BRANCH  30  33
ATOM     33  C   UNL     1      -2.046  10.127  17.424  0.00  0.00    +0.000 C 
BRANCH  33  34
ATOM     34  C   UNL     1      -2.646  10.589  16.106  0.00  0.00    +0.000 C 
ATOM     35  N   UNL     1      -3.145  10.973  15.014  0.00  0.00    +0.000 NA
ENDBRANCH  33  34
ENDBRANCH  30  33
ENDBRANCH  28  29
ENDBRANCH  20  22
ENDBRANCH   1  20
TORSDOF 9
ENDMDL
MODEL 8
REMARK VINA RESULT:      -8.0      2.134      2.754
REMARK  Name = 
REMARK  11 active torsions:
REMARK  status: ('A' for Active; 'I' for Inactive)
REMARK    1  A    between atoms: C_1  and  O_2
REMARK    2  A    between atoms: O_2  and  C_3
REMARK    3  A    between atoms: C_3  and  C_5
REMARK    4  A    between atoms: C_11  and  C_12
REMARK    5  A    between atoms: C_15  and  C_16
REMARK    6  A    between atoms: C_16  and  C_17
REMARK    7  A    between atoms: C_16  and  N_18
REMARK    8  A    between atoms: N_18  and  C_19
REMARK    9  A    between atoms: C_25  and  N_26
REMARK   10  A    between atoms: C_27  and  C_29
REMARK   11  A    between atoms: C_29  and  C_30
REMARK                            x       y       z     vdW  Elec       q    Type
REMARK                         _______ _______ _______ _____ _____    ______ ____
ROOT
ATOM      1  C   UNL     1       2.211   7.218  19.012  0.00  0.00    +0.000 C 
ATOM      2  C   UNL     1       3.144   7.639  17.865  0.00  0.00    +0.000 C 
ENDROOT
BRANCH   1   6
ATOM      3  C   UNL     1       0.337  10.542  21.174  0.00  0.00    +0.000 A 
ATOM      4  C   UNL     1       0.885   9.427  21.838  0.00  0.00    +0.000 A 
ATOM      5  C   UNL     1       1.549   8.405  21.146  0.00  0.00    +0.000 A 
ATOM      6  C   UNL     1       1.655   8.434  19.751  0.00  0.00    +0.000 A 
ATOM      7  C   UNL     1       1.182   9.575  19.090  0.00  0.00    +0.000 A 
ATOM      8  C   UNL     1       0.562  10.615  19.794  0.00  0.00    +0.000 A 
BRANCH   3  15
ATOM      9  C   UNL     1      -0.142  12.988  21.877  0.00  0.00    +0.000 A 
ATOM     10  C   UNL     1      -0.913  13.889  22.629  0.00  0.00    +0.000 A 
ATOM     11  F   UNL     1      -0.670  15.205  22.599  0.00  0.00    +0.000 F 
ATOM     12  C   UNL     1      -1.975  13.455  23.406  0.00  0.00    +0.000 A 
ATOM     13  C   UNL     1      -2.294  12.103  23.435  0.00  0.00    +0.000 A 
ATOM     14  C   UNL     1      -1.528  11.189  22.707  0.00  0.00    +0.000 A 
ATOM     15  C   UNL     1      -0.426  11.593  21.906  0.00  0.00    +0.000 A 
BRANCH   9  16
ATOM     16  C   UNL     1       0.901  13.577  20.998  0.00  0.00    +0.000 C 
ATOM     17  O   UNL     1       0.697  14.009  19.880  0.00  0.00    +0.000 OA
BRANCH  16  19
ATOM     18  C   UNL     1       3.214  13.925  20.793  0.00  0.00    +0.000 C 
ATOM     19  O   UNL     1       2.114  13.500  21.607  0.00  0.00    +0.000 OA
ENDBRANCH  16  19
ENDBRANCH   9  16
ENDBRANCH   3  15
ENDBRANCH   1   6
BRANCH   1  20
ATOM     20  N   UNL     1       2.852   6.322  20.005  0.00  0.00    +0.000 N 
ATOM     21  H   UNL     1       3.867   6.364  19.913  0.00  0.00    +0.000 HD
BRANCH  20  22
ATOM     22  C   UNL     1       2.474   4.957  19.891  0.00  0.00    +0.000 A 
ATOM     23  N   UNL     1       1.233   4.621  20.315  0.00  0.00    +0.000 NA
ATOM     24  C   UNL     1       0.818   3.356  20.162  0.00  0.00    +0.000 A 
ATOM     25  C   UNL     1       1.611   2.369  19.634  0.00  0.00    +0.000 A 
ATOM     26  C   UNL     1       2.907   2.694  19.224  0.00  0.00    +0.000 A 
ATOM     27 CL   UNL     1       3.891   1.309  18.882  0.00  0.00    +0.000 Cl
ATOM     28  C   UNL     1       3.359   4.026  19.270  0.00  0.00    +0.000 A 
BRANCH  28  29
ATOM     29  N   UNL     1       4.638   4.530  18.836  0.00  0.00    +0.000 N 
ATOM     30  C   UNL     1       5.138   4.595  17.538  0.00  0.00    +0.000 C 
ATOM     31  O   UNL     1       4.534   4.263  16.520  0.00  0.00    +0.000 OA
ATOM     32  H   UNL     1       5.089   5.093  19.557  0.00  0.00    +0.000 HD
BRANCH  30  33
ATOM     33  C   UNL     1       6.495   5.284  17.372  0.00  0.00    +0.000 C 
BRANCH  33  34
ATOM     34  C   UNL     1       7.034   5.383  18.790  0.00  0.00    +0.000 C 
ATOM     35  N   UNL     1       7.483   5.465  19.966  0.00  0.00    +0.000 NA
ENDBRANCH  33  34
ENDBRANCH  30  33
ENDBRANCH  28  29
ENDBRANCH  20  22
ENDBRANCH   1  20
TORSDOF 9
ENDMDL
MODEL 9
REMARK VINA RESULT:      -8.0      1.263      1.589
REMARK  Name = 
REMARK  11 active torsions:
REMARK  status: ('A' for Active; 'I' for Inactive)
REMARK    1  A    between atoms: C_1  and  O_2
REMARK    2  A    between atoms: O_2  and  C_3
REMARK    3  A    between atoms: C_3  and  C_5
REMARK    4  A    between atoms: C_11  and  C_12
REMARK    5  A    between atoms: C_15  and  C_16
REMARK    6  A    between atoms: C_16  and  C_17
REMARK    7  A    between atoms: C_16  and  N_18
REMARK    8  A    between atoms: N_18  and  C_19
REMARK    9  A    between atoms: C_25  and  N_26
REMARK   10  A    between atoms: C_27  and  C_29
REMARK   11  A    between atoms: C_29  and  C_30
REMARK                            x       y       z     vdW  Elec       q    Type
REMARK                         _______ _______ _______ _____ _____    ______ ____
ROOT
ATOM      1  C   UNL     1       2.736   6.939  18.509  0.00  0.00    +0.000 C 
ATOM      2  C   UNL     1       3.733   7.447  17.455  0.00  0.00    +0.000 C 
ENDROOT
BRANCH   1   6
ATOM      3  C   UNL     1       0.298  10.087  20.348  0.00  0.00    +0.000 A 
ATOM      4  C   UNL     1       0.692   8.934  21.053  0.00  0.00    +0.000 A 
ATOM      5  C   UNL     1       1.534   7.968  20.483  0.00  0.00    +0.000 A 
ATOM      6  C   UNL     1       1.982   8.095  19.164  0.00  0.00    +0.000 A 
ATOM      7  C   UNL     1       1.658   9.276  18.482  0.00  0.00    +0.000 A 
ATOM      8  C   UNL     1       0.856  10.258  19.075  0.00  0.00    +0.000 A 
BRANCH   3  15
ATOM      9  C   UNL     1      -1.572  11.872  20.195  0.00  0.00    +0.000 A 
ATOM     10  C   UNL     1      -2.403  12.796  20.849  0.00  0.00    +0.000 A 
ATOM     11  F   UNL     1      -3.286  13.538  20.171  0.00  0.00    +0.000 F 
ATOM     12  C   UNL     1      -2.363  12.952  22.225  0.00  0.00    +0.000 A 
ATOM     13  C   UNL     1      -1.493  12.173  22.978  0.00  0.00    +0.000 A 
ATOM     14  C   UNL     1      -0.646  11.260  22.343  0.00  0.00    +0.000 A 
ATOM     15  C   UNL     1      -0.650  11.077  20.934  0.00  0.00    +0.000 A 
BRANCH   9  16
ATOM     16  C   UNL     1      -1.777  11.712  18.733  0.00  0.00    +0.000 C 
ATOM     17  O   UNL     1      -1.327  12.462  17.887  0.00  0.00    +0.000 OA
BRANCH  16  19
ATOM     18  C   UNL     1      -2.416  10.048  17.204  0.00  0.00    +0.000 C 
ATOM     19  O   UNL     1      -2.588  10.648  18.494  0.00  0.00    +0.000 OA
ENDBRANCH  16  19
ENDBRANCH   9  16
ENDBRANCH   3  15
ENDBRANCH   1   6
BRANCH   1  20
ATOM     20  N   UNL     1       3.361   6.125  19.579  0.00  0.00    +0.000 N 
ATOM     21  H   UNL     1       4.372   6.087  19.446  0.00  0.00    +0.000 HD
BRANCH  20  22
ATOM     22  C   UNL     1       2.894   4.785  19.643  0.00  0.00    +0.000 A 
ATOM     23  N   UNL     1       1.781   4.552  20.378  0.00  0.00    +0.000 NA
ATOM     24  C   UNL     1       1.273   3.312  20.408  0.00  0.00    +0.000 A 
ATOM     25  C   UNL     1       1.854   2.252  19.762  0.00  0.00    +0.000 A 
ATOM     26  C   UNL     1       3.023   2.470  19.027  0.00  0.00    +0.000 A 
ATOM     27 CL   UNL     1       3.814   1.008  18.538  0.00  0.00    +0.000 Cl
ATOM     28  C   UNL     1       3.544   3.770  18.881  0.00  0.00    +0.000 A 
BRANCH  28  29
ATOM     29  N   UNL     1       4.699   4.166  18.116  0.00  0.00    +0.000 N 
ATOM     30  C   UNL     1       5.924   4.630  18.590  0.00  0.00    +0.000 C 
ATOM     31  O   UNL     1       6.240   4.736  19.773  0.00  0.00    +0.000 OA
ATOM     32  H   UNL     1       4.646   3.841  17.150  0.00  0.00    +0.000 HD
BRANCH  30  33
ATOM     33  C   UNL     1       7.006   4.874  17.534  0.00  0.00    +0.000 C 
BRANCH  33  34
ATOM     34  C   UNL     1       6.240   4.908  16.222  0.00  0.00    +0.000 C 
ATOM     35  N   UNL     1       5.604   4.938  15.133  0.00  0.00    +0.000 NA
ENDBRANCH  33  34
ENDBRANCH  30  33
ENDBRANCH  28  29
ENDBRANCH  20  22
ENDBRANCH   1  20
TORSDOF 9
ENDMDL
