MODEL 1
REMARK VINA RESULT:      -6.4      0.000      0.000
REMARK  Name = 
REMARK  3 active torsions:
REMARK  status: ('A' for Active; 'I' for Inactive)
REMARK    1  A    between atoms: N_1  and  C_2
REMARK    2  A    between atoms: C_2  and  C_3
REMARK    3  A    between atoms: C_6  and  C_7
REMARK                            x       y       z     vdW  Elec       q    Type
REMARK                         _______ _______ _______ _____ _____    ______ ____
ROOT
ATOM      1  C   UNL     1       5.856   4.813  15.326  0.00  0.00    +0.000 A 
ATOM      2  C   UNL     1       5.484   3.575  15.872  0.00  0.00    +0.000 A 
ATOM      3  C   UNL     1       4.570   3.513  16.919  0.00  0.00    +0.000 A 
ATOM      4  C   UNL     1       3.981   4.684  17.441  0.00  0.00    +0.000 A 
ATOM      5  C   UNL     1       4.375   5.924  16.894  0.00  0.00    +0.000 A 
ATOM      6  C   UNL     1       5.310   5.986  15.860  0.00  0.00    +0.000 A 
ENDROOT
BRANCH   4   7
ATOM      7  C   UNL     1       2.943   4.608  18.517  0.00  0.00    +0.000 A 
ATOM      8  C   UNL     1       2.902   5.553  19.565  0.00  0.00    +0.000 A 
ATOM      9  C   UNL     1       1.943   5.457  20.578  0.00  0.00    +0.000 A 
ATOM     10  C   UNL     1       1.020   4.411  20.573  0.00  0.00    +0.000 A 
ATOM     11  C   UNL     1       1.047   3.465  19.551  0.00  0.00    +0.000 A 
ATOM     12  C   UNL     1       1.990   3.563  18.526  0.00  0.00    +0.000 A 
ENDBRANCH   4   7
BRANCH   1  13
ATOM     13  C   UNL     1       6.811   4.884  14.167  0.00  0.00    +0.000 C 
BRANCH  13  14
ATOM     14  N   UNL     1       6.571   3.764  13.261  0.00  0.00    +0.000 NA
ATOM     15  H   UNL     1       6.258   2.938  13.821  0.00  0.00    +0.000 HD
ATOM     16  H   UNL     1       5.807   4.007  12.588  0.00  0.00    +0.000 HD
ENDBRANCH  13  14
ENDBRANCH   1  13
TORSDOF 3
ENDMDL
MODEL 2
REMARK VINA RESULT:      -6.3      0.124      1.297
REMARK  Name = 
REMARK  3 active torsions:
REMARK  status: ('A' for Active; 'I' for Inactive)
REMARK    1  A    between atoms: N_1  and  C_2
REMARK    2  A    between atoms: C_2  and  C_3
REMARK    3  A    between atoms: C_6  and  C_7
REMARK                            x       y       z     vdW  Elec       q    Type
REMARK                         _______ _______ _______ _____ _____    ______ ____
ROOT
ATOM      1  C   UNL     1       5.919   4.891  15.387  0.00  0.00    +0.000 A 
ATOM      2  C   UNL     1       5.587   3.634  15.912  0.00  0.00    +0.000 A 
ATOM      3  C   UNL     1       4.664   3.523  16.948  0.00  0.00    +0.000 A 
ATOM      4  C   UNL     1       4.025   4.665  17.477  0.00  0.00    +0.000 A 
ATOM      5  C   UNL     1       4.379   5.926  16.950  0.00  0.00    +0.000 A 
ATOM      6  C   UNL     1       5.322   6.036  15.929  0.00  0.00    +0.000 A 
ENDROOT
BRANCH   4   7
ATOM      7  C   UNL     1       2.978   4.536  18.539  0.00  0.00    +0.000 A 
ATOM      8  C   UNL     1       1.977   3.543  18.466  0.00  0.00    +0.000 A 
ATOM      9  C   UNL     1       0.990   3.449  19.451  0.00  0.00    +0.000 A 
ATOM     10  C   UNL     1       0.973   4.350  20.516  0.00  0.00    +0.000 A 
ATOM     11  C   UNL     1       1.949   5.340  20.604  0.00  0.00    +0.000 A 
ATOM     12  C   UNL     1       2.949   5.431  19.633  0.00  0.00    +0.000 A 
ENDBRANCH   4   7
BRANCH   1  13
ATOM     13  C   UNL     1       6.884   5.013  14.240  0.00  0.00    +0.000 C 
BRANCH  13  14
ATOM     14  N   UNL     1       6.568   4.013  13.222  0.00  0.00    +0.000 NA
ATOM     15  H   UNL     1       7.154   4.198  12.375  0.00  0.00    +0.000 HD
ATOM     16  H   UNL     1       6.802   3.057  13.577  0.00  0.00    +0.000 HD
ENDBRANCH  13  14
ENDBRANCH   1  13
TORSDOF 3
ENDMDL
MODEL 3
REMARK VINA RESULT:      -6.3      0.201      1.305
REMARK  Name = 
REMARK  3 active torsions:
REMARK  status: ('A' for Active; 'I' for Inactive)
REMARK    1  A    between atoms: N_1  and  C_2
REMARK    2  A    between atoms: C_2  and  C_3
REMARK    3  A    between atoms: C_6  and  C_7
REMARK                            x       y       z     vdW  Elec       q    Type
REMARK                         _______ _______ _______ _____ _____    ______ ____
ROOT
ATOM      1  C   UNL     1       5.928   4.960  15.438  0.00  0.00    +0.000 A 
ATOM      2  C   UNL     1       5.379   6.108  16.027  0.00  0.00    +0.000 A 
ATOM      3  C   UNL     1       4.380   5.997  16.990  0.00  0.00    +0.000 A 
ATOM      4  C   UNL     1       3.913   4.734  17.411  0.00  0.00    +0.000 A 
ATOM      5  C   UNL     1       4.463   3.587  16.800  0.00  0.00    +0.000 A 
ATOM      6  C   UNL     1       5.448   3.701  15.818  0.00  0.00    +0.000 A 
ENDROOT
BRANCH   4   7
ATOM      7  C   UNL     1       2.892   4.616  18.499  0.00  0.00    +0.000 A 
ATOM      8  C   UNL     1       2.811   5.570  19.537  0.00  0.00    +0.000 A 
ATOM      9  C   UNL     1       1.870   5.436  20.561  0.00  0.00    +0.000 A 
ATOM     10  C   UNL     1       1.004   4.342  20.579  0.00  0.00    +0.000 A 
ATOM     11  C   UNL     1       1.071   3.386  19.568  0.00  0.00    +0.000 A 
ATOM     12  C   UNL     1       1.997   3.522  18.532  0.00  0.00    +0.000 A 
ENDBRANCH   4   7
BRANCH   1  13
ATOM     13  C   UNL     1       7.037   5.072  14.429  0.00  0.00    +0.000 C 
BRANCH  13  14
ATOM     14  N   UNL     1       6.766   4.184  13.300  0.00  0.00    +0.000 NA
ATOM     15  H   UNL     1       6.032   3.495  13.581  0.00  0.00    +0.000 HD
ATOM     16  H   UNL     1       6.399   4.738  12.491  0.00  0.00    +0.000 HD
ENDBRANCH  13  14
ENDBRANCH   1  13
TORSDOF 3
ENDMDL
MODEL 4
REMARK VINA RESULT:      -6.2      3.044      6.081
REMARK  Name = 
REMARK  3 active torsions:
REMARK  status: ('A' for Active; 'I' for Inactive)
REMARK    1  A    between atoms: N_1  and  C_2
REMARK    2  A    between atoms: C_2  and  C_3
REMARK    3  A    between atoms: C_6  and  C_7
REMARK                            x       y       z     vdW  Elec       q    Type
REMARK                         _______ _______ _______ _____ _____    ______ ____
ROOT
ATOM      1  C   UNL     1       2.091   3.398  19.911  0.00  0.00    +0.000 A 
ATOM      2  C   UNL     1       1.782   4.214  18.813  0.00  0.00    +0.000 A 
ATOM      3  C   UNL     1       2.762   4.540  17.880  0.00  0.00    +0.000 A 
ATOM      4  C   UNL     1       4.077   4.043  18.001  0.00  0.00    +0.000 A 
ATOM      5  C   UNL     1       4.378   3.235  19.119  0.00  0.00    +0.000 A 
ATOM      6  C   UNL     1       3.401   2.929  20.066  0.00  0.00    +0.000 A 
ENDROOT
BRANCH   4   7
ATOM      7  C   UNL     1       5.108   4.334  16.957  0.00  0.00    +0.000 A 
ATOM      8  C   UNL     1       4.780   4.339  15.583  0.00  0.00    +0.000 A 
ATOM      9  C   UNL     1       5.757   4.589  14.616  0.00  0.00    +0.000 A 
ATOM     10  C   UNL     1       7.079   4.821  14.997  0.00  0.00    +0.000 A 
ATOM     11  C   UNL     1       7.424   4.815  16.347  0.00  0.00    +0.000 A 
ATOM     12  C   UNL     1       6.451   4.584  17.321  0.00  0.00    +0.000 A 
ENDBRANCH   4   7
BRANCH   1  13
ATOM     13  C   UNL     1       1.027   3.007  20.900  0.00  0.00    +0.000 C 
BRANCH  13  14
ATOM     14  N   UNL     1       1.651   2.583  22.152  0.00  0.00    +0.000 NA
ATOM     15  H   UNL     1       0.948   2.661  22.922  0.00  0.00    +0.000 HD
ATOM     16  H   UNL     1       1.946   1.582  22.082  0.00  0.00    +0.000 HD
ENDBRANCH  13  14
ENDBRANCH   1  13
TORSDOF 3
ENDMDL
MODEL 5
REMARK VINA RESULT:      -6.2      1.600      1.877
REMARK  Name = 
REMARK  3 active torsions:
REMARK  status: ('A' for Active; 'I' for Inactive)
REMARK    1  A    between atoms: N_1  and  C_2
REMARK    2  A    between atoms: C_2  and  C_3
REMARK    3  A    between atoms: C_6  and  C_7
REMARK                            x       y       z     vdW  Elec       q    Type
REMARK                         _______ _______ _______ _____ _____    ______ ____
ROOT
ATOM      1  C   UNL     1       6.120   4.526  16.392  0.00  0.00    +0.000 A 
ATOM      2  C   UNL     1       6.425   4.678  17.753  0.00  0.00    +0.000 A 
ATOM      3  C   UNL     1       5.463   4.417  18.724  0.00  0.00    +0.000 A 
ATOM      4  C   UNL     1       4.172   3.975  18.369  0.00  0.00    +0.000 A 
ATOM      5  C   UNL     1       3.872   3.841  16.996  0.00  0.00    +0.000 A 
ATOM      6  C   UNL     1       4.831   4.126  16.023  0.00  0.00    +0.000 A 
ENDROOT
BRANCH   4   7
ATOM      7  C   UNL     1       3.164   3.625  19.418  0.00  0.00    +0.000 A 
ATOM      8  C   UNL     1       1.854   4.151  19.382  0.00  0.00    +0.000 A 
ATOM      9  C   UNL     1       0.929   3.836  20.381  0.00  0.00    +0.000 A 
ATOM     10  C   UNL     1       1.296   3.006  21.441  0.00  0.00    +0.000 A 
ATOM     11  C   UNL     1       2.585   2.481  21.499  0.00  0.00    +0.000 A 
ATOM     12  C   UNL     1       3.510   2.777  20.495  0.00  0.00    +0.000 A 
ENDBRANCH   4   7
BRANCH   1  13
ATOM     13  C   UNL     1       7.167   4.765  15.340  0.00  0.00    +0.000 C 
BRANCH  13  14
ATOM     14  N   UNL     1       6.653   4.359  14.033  0.00  0.00    +0.000 NA
ATOM     15  H   UNL     1       7.160   4.893  13.290  0.00  0.00    +0.000 HD
ATOM     16  H   UNL     1       6.834   3.340  13.880  0.00  0.00    +0.000 HD
ENDBRANCH  13  14
ENDBRANCH   1  13
TORSDOF 3
ENDMDL
MODEL 6
REMARK VINA RESULT:      -6.2      0.184      1.836
REMARK  Name = 
REMARK  3 active torsions:
REMARK  status: ('A' for Active; 'I' for Inactive)
REMARK    1  A    between atoms: N_1  and  C_2
REMARK    2  A    between atoms: C_2  and  C_3
REMARK    3  A    between atoms: C_6  and  C_7
REMARK                            x       y       z     vdW  Elec       q    Type
REMARK                         _______ _______ _______ _____ _____    ______ ____
ROOT
ATOM      1  C   UNL     1       5.937   4.961  15.415  0.00  0.00    +0.000 A 
ATOM      2  C   UNL     1       5.344   6.099  15.980  0.00  0.00    +0.000 A 
ATOM      3  C   UNL     1       4.363   5.971  16.960  0.00  0.00    +0.000 A 
ATOM      4  C   UNL     1       3.958   4.700  17.421  0.00  0.00    +0.000 A 
ATOM      5  C   UNL     1       4.550   3.562  16.832  0.00  0.00    +0.000 A 
ATOM      6  C   UNL     1       5.516   3.693  15.834  0.00  0.00    +0.000 A 
ENDROOT
BRANCH   4   7
ATOM      7  C   UNL     1       2.957   4.568  18.525  0.00  0.00    +0.000 A 
ATOM      8  C   UNL     1       1.974   3.555  18.507  0.00  0.00    +0.000 A 
ATOM      9  C   UNL     1       1.029   3.456  19.532  0.00  0.00    +0.000 A 
ATOM     10  C   UNL     1       1.036   4.372  20.583  0.00  0.00    +0.000 A 
ATOM     11  C   UNL     1       1.995   5.383  20.618  0.00  0.00    +0.000 A 
ATOM     12  C   UNL     1       2.953   5.478  19.607  0.00  0.00    +0.000 A 
ENDBRANCH   4   7
BRANCH   1  13
ATOM     13  C   UNL     1       7.026   5.093  14.387  0.00  0.00    +0.000 C 
BRANCH  13  14
ATOM     14  N   UNL     1       6.766   4.183  13.273  0.00  0.00    +0.000 NA
ATOM     15  H   UNL     1       7.351   4.474  12.456  0.00  0.00    +0.000 HD
ATOM     16  H   UNL     1       7.039   3.209  13.538  0.00  0.00    +0.000 HD
ENDBRANCH  13  14
ENDBRANCH   1  13
TORSDOF 3
ENDMDL
MODEL 7
REMARK VINA RESULT:      -6.2      2.648      3.006
REMARK  Name = 
REMARK  3 active torsions:
REMARK  status: ('A' for Active; 'I' for Inactive)
REMARK    1  A    between atoms: N_1  and  C_2
REMARK    2  A    between atoms: C_2  and  C_3
REMARK    3  A    between atoms: C_6  and  C_7
REMARK                            x       y       z     vdW  Elec       q    Type
REMARK                         _______ _______ _______ _____ _____    ______ ____
ROOT
ATOM      1  C   UNL     1       6.503   6.661  17.809  0.00  0.00    +0.000 A 
ATOM      2  C   UNL     1       5.273   6.879  17.171  0.00  0.00    +0.000 A 
ATOM      3  C   UNL     1       4.151   6.139  17.532  0.00  0.00    +0.000 A 
ATOM      4  C   UNL     1       4.216   5.172  18.557  0.00  0.00    +0.000 A 
ATOM      5  C   UNL     1       5.463   4.951  19.180  0.00  0.00    +0.000 A 
ATOM      6  C   UNL     1       6.592   5.677  18.801  0.00  0.00    +0.000 A 
ENDROOT
BRANCH   4   7
ATOM      7  C   UNL     1       2.991   4.431  18.993  0.00  0.00    +0.000 A 
ATOM      8  C   UNL     1       2.520   4.510  20.322  0.00  0.00    +0.000 A 
ATOM      9  C   UNL     1       1.389   3.794  20.723  0.00  0.00    +0.000 A 
ATOM     10  C   UNL     1       0.718   2.974  19.815  0.00  0.00    +0.000 A 
ATOM     11  C   UNL     1       1.170   2.878  18.501  0.00  0.00    +0.000 A 
ATOM     12  C   UNL     1       2.289   3.604  18.087  0.00  0.00    +0.000 A 
ENDBRANCH   4   7
BRANCH   1  13
ATOM     13  C   UNL     1       7.709   7.486  17.453  0.00  0.00    +0.000 C 
BRANCH  13  14
ATOM     14  N   UNL     1       8.457   7.812  18.665  0.00  0.00    +0.000 NA
ATOM     15  H   UNL     1       7.966   8.587  19.167  0.00  0.00    +0.000 HD
ATOM     16  H   UNL     1       8.486   6.981  19.300  0.00  0.00    +0.000 HD
ENDBRANCH  13  14
ENDBRANCH   1  13
TORSDOF 3
ENDMDL
MODEL 8
REMARK VINA RESULT:      -6.2      1.577      1.833
REMARK  Name = 
REMARK  3 active torsions:
REMARK  status: ('A' for Active; 'I' for Inactive)
REMARK    1  A    between atoms: N_1  and  C_2
REMARK    2  A    between atoms: C_2  and  C_3
REMARK    3  A    between atoms: C_6  and  C_7
REMARK                            x       y       z     vdW  Elec       q    Type
REMARK                         _______ _______ _______ _____ _____    ______ ____
ROOT
ATOM      1  C   UNL     1       6.094   4.511  16.345  0.00  0.00    +0.000 A 
ATOM      2  C   UNL     1       6.432   4.614  17.703  0.00  0.00    +0.000 A 
ATOM      3  C   UNL     1       5.478   4.369  18.687  0.00  0.00    +0.000 A 
ATOM      4  C   UNL     1       4.162   3.991  18.347  0.00  0.00    +0.000 A 
ATOM      5  C   UNL     1       3.831   3.905  16.977  0.00  0.00    +0.000 A 
ATOM      6  C   UNL     1       4.781   4.175  15.992  0.00  0.00    +0.000 A 
ENDROOT
BRANCH   4   7
ATOM      7  C   UNL     1       3.161   3.656  19.408  0.00  0.00    +0.000 A 
ATOM      8  C   UNL     1       3.506   2.849  20.514  0.00  0.00    +0.000 A 
ATOM      9  C   UNL     1       2.556   2.522  21.485  0.00  0.00    +0.000 A 
ATOM     10  C   UNL     1       1.243   2.979  21.364  0.00  0.00    +0.000 A 
ATOM     11  C   UNL     1       0.881   3.772  20.277  0.00  0.00    +0.000 A 
ATOM     12  C   UNL     1       1.828   4.117  19.311  0.00  0.00    +0.000 A 
ENDBRANCH   4   7
BRANCH   1  13
ATOM     13  C   UNL     1       7.129   4.733  15.278  0.00  0.00    +0.000 C 
BRANCH  13  14
ATOM     14  N   UNL     1       6.652   4.189  14.008  0.00  0.00    +0.000 NA
ATOM     15  H   UNL     1       5.960   3.430  14.205  0.00  0.00    +0.000 HD
ATOM     16  H   UNL     1       6.167   4.936  13.460  0.00  0.00    +0.000 HD
ENDBRANCH  13  14
ENDBRANCH   1  13
TORSDOF 3
ENDMDL
MODEL 9
REMARK VINA RESULT:      -6.2      1.685      1.889
REMARK  Name = 
REMARK  3 active torsions:
REMARK  status: ('A' for Active; 'I' for Inactive)
REMARK    1  A    between atoms: N_1  and  C_2
REMARK    2  A    between atoms: C_2  and  C_3
REMARK    3  A    between atoms: C_6  and  C_7
REMARK                            x       y       z     vdW  Elec       q    Type
REMARK                         _______ _______ _______ _____ _____    ______ ____
ROOT
ATOM      1  C   UNL     1       6.311   4.545  16.585  0.00  0.00    +0.000 A 
ATOM      2  C   UNL     1       5.101   3.989  16.146  0.00  0.00    +0.000 A 
ATOM      3  C   UNL     1       4.110   3.645  17.061  0.00  0.00    +0.000 A 
ATOM      4  C   UNL     1       4.288   3.866  18.443  0.00  0.00    +0.000 A 
ATOM      5  C   UNL     1       5.516   4.413  18.874  0.00  0.00    +0.000 A 
ATOM      6  C   UNL     1       6.517   4.734  17.957  0.00  0.00    +0.000 A 
ENDROOT
BRANCH   4   7
ATOM      7  C   UNL     1       3.192   3.564  19.416  0.00  0.00    +0.000 A 
ATOM      8  C   UNL     1       1.890   4.081  19.239  0.00  0.00    +0.000 A 
ATOM      9  C   UNL     1       0.881   3.812  20.168  0.00  0.00    +0.000 A 
ATOM     10  C   UNL     1       1.154   3.040  21.297  0.00  0.00    +0.000 A 
ATOM     11  C   UNL     1       2.434   2.526  21.494  0.00  0.00    +0.000 A 
ATOM     12  C   UNL     1       3.443   2.775  20.562  0.00  0.00    +0.000 A 
ENDBRANCH   4   7
BRANCH   1  13
ATOM     13  C   UNL     1       7.369   4.958  15.599  0.00  0.00    +0.000 C 
BRANCH  13  14
ATOM     14  N   UNL     1       6.752   5.234  14.303  0.00  0.00    +0.000 NA
ATOM     15  H   UNL     1       6.213   6.128  14.369  0.00  0.00    +0.000 HD
ATOM     16  H   UNL     1       7.494   5.355  13.574  0.00  0.00    +0.000 HD
ENDBRANCH  13  14
ENDBRANCH   1  13
TORSDOF 3
ENDMDL
