MODEL 1
REMARK VINA RESULT:      -7.3      0.000      0.000
REMARK  Name = 
REMARK  11 active torsions:
REMARK  status: ('A' for Active; 'I' for Inactive)
REMARK    1  A    between atoms: C_1  and  O_2
REMARK    2  A    between atoms: O_2  and  C_3
REMARK    3  A    between atoms: C_3  and  C_4
REMARK    4  A    between atoms: C_4  and  N_5
REMARK    5  A    between atoms: N_5  and  C_6
REMARK    6  A    between atoms: C_7  and  C_8
REMARK    7  A    between atoms: C_8  and  C_9
REMARK    8  A    between atoms: C_8  and  C_10
REMARK    9  A    between atoms: C_15  and  C_16
REMARK   10  A    between atoms: C_17  and  C_18
REMARK   11  A    between atoms: N_20  and  O_21
REMARK                            x       y       z     vdW  Elec       q    Type
REMARK                         _______ _______ _______ _____ _____    ______ ____
ROOT
ATOM      1  C   UNL     1       4.164   3.934  18.844  0.00  0.00    +0.000 A 
ATOM      2  C   UNL     1       3.495   4.884  19.615  0.00  0.00    +0.000 A 
ATOM      3  N   UNL     1       3.552   6.127  19.025  0.00  0.00    +0.000 NA
ATOM      4  C   UNL     1       4.196   5.957  17.898  0.00  0.00    +0.000 A 
ATOM      5  C   UNL     1       4.516   6.889  16.873  0.00  0.00    +0.000 A 
ATOM      6  C   UNL     1       5.173   6.484  15.771  0.00  0.00    +0.000 A 
ATOM      7  C   UNL     1       5.597   5.093  15.578  0.00  0.00    +0.000 A 
ATOM      8  C   UNL     1       5.235   4.216  16.539  0.00  0.00    +0.000 A 
ATOM      9  N   UNL     1       4.580   4.633  17.703  0.00  0.00    +0.000 N 
ENDROOT
BRANCH   2  10
ATOM     10  C   UNL     1       2.785   4.765  20.938  0.00  0.00    +0.000 C 
ATOM     11  C   UNL     1       1.470   5.541  20.973  0.00  0.00    +0.000 C 
ATOM     12  C   UNL     1       2.575   3.315  21.373  0.00  0.00    +0.000 C 
ENDBRANCH   2  10
BRANCH   1  13
ATOM     13  N   UNL     1       4.359   2.606  19.087  0.00  0.00    +0.000 N 
ATOM     14  H   UNL     1       5.194   2.299  19.584  0.00  0.00    +0.000 HD
BRANCH  13  15
ATOM     15  C   UNL     1       3.658   1.522  18.408  0.00  0.00    +0.000 C 
BRANCH  15  16
ATOM     16  C   UNL     1       2.358   2.004  17.758  0.00  0.00    +0.000 C 
BRANCH  16  18
ATOM     17  C   UNL     1       0.387   2.847  18.738  0.00  0.00    +0.000 C 
ATOM     18  O   UNL     1       1.265   1.735  18.639  0.00  0.00    +0.000 OA
ENDBRANCH  16  18
ENDBRANCH  15  16
ENDBRANCH  13  15
ENDBRANCH   1  13
BRANCH   7  19
ATOM     19  C   UNL     1       6.311   4.587  14.413  0.00  0.00    +0.000 C 
ATOM     20  C   UNL     1       5.758   3.797  13.478  0.00  0.00    +0.000 C 
BRANCH  20  21
ATOM     21  C   UNL     1       6.539   3.371  12.294  0.00  0.00    +0.000 C 
ATOM     22  O   UNL     1       7.335   4.098  11.708  0.00  0.00    +0.000 OA
ATOM     23  N   UNL     1       6.275   2.086  11.908  0.00  0.00    +0.000 N 
ATOM     24  H   UNL     1       5.619   1.454  12.347  0.00  0.00    +0.000 HD
BRANCH  23  25
ATOM     25  O   UNL     1       6.969   1.605  10.776  0.00  0.00    +0.000 OA
ATOM     26  H   UNL     1       7.870   1.448  11.133  0.00  0.00    +0.000 HD
ENDBRANCH  23  25
ENDBRANCH  20  21
ENDBRANCH   7  19
TORSDOF 8
ENDMDL
MODEL 2
REMARK VINA RESULT:      -7.2      1.605      2.069
REMARK  Name = 
REMARK  11 active torsions:
REMARK  status: ('A' for Active; 'I' for Inactive)
REMARK    1  A    between atoms: C_1  and  O_2
REMARK    2  A    between atoms: O_2  and  C_3
REMARK    3  A    between atoms: C_3  and  C_4
REMARK    4  A    between atoms: C_4  and  N_5
REMARK    5  A    between atoms: N_5  and  C_6
REMARK    6  A    between atoms: C_7  and  C_8
REMARK    7  A    between atoms: C_8  and  C_9
REMARK    8  A    between atoms: C_8  and  C_10
REMARK    9  A    between atoms: C_15  and  C_16
REMARK   10  A    between atoms: C_17  and  C_18
REMARK   11  A    between atoms: N_20  and  O_21
REMARK                            x       y       z     vdW  Elec       q    Type
REMARK                         _______ _______ _______ _____ _____    ______ ____
ROOT
ATOM      1  C   UNL     1       3.297   4.054  18.597  0.00  0.00    +0.000 A 
ATOM      2  C   UNL     1       2.868   5.184  19.292  0.00  0.00    +0.000 A 
ATOM      3  N   UNL     1       3.391   6.331  18.738  0.00  0.00    +0.000 NA
ATOM      4  C   UNL     1       4.089   5.940  17.701  0.00  0.00    +0.000 A 
ATOM      5  C   UNL     1       4.816   6.699  16.744  0.00  0.00    +0.000 A 
ATOM      6  C   UNL     1       5.448   6.081  15.729  0.00  0.00    +0.000 A 
ATOM      7  C   UNL     1       5.431   4.624  15.567  0.00  0.00    +0.000 A 
ATOM      8  C   UNL     1       4.690   3.929  16.456  0.00  0.00    +0.000 A 
ATOM      9  N   UNL     1       4.055   4.559  17.533  0.00  0.00    +0.000 N 
ENDROOT
BRANCH   2  10
ATOM     10  C   UNL     1       1.992   5.326  20.509  0.00  0.00    +0.000 C 
ATOM     11  C   UNL     1       1.560   6.770  20.759  0.00  0.00    +0.000 C 
ATOM     12  C   UNL     1       0.784   4.391  20.486  0.00  0.00    +0.000 C 
ENDBRANCH   2  10
BRANCH   1  13
ATOM     13  N   UNL     1       3.028   2.738  18.838  0.00  0.00    +0.000 N 
ATOM     14  H   UNL     1       2.331   2.252  18.275  0.00  0.00    +0.000 HD
BRANCH  13  15
ATOM     15  C   UNL     1       3.394   2.020  20.054  0.00  0.00    +0.000 C 
BRANCH  15  16
ATOM     16  C   UNL     1       4.902   1.772  20.137  0.00  0.00    +0.000 C 
BRANCH  16  18
ATOM     17  C   UNL     1       5.821   0.274  21.708  0.00  0.00    +0.000 C 
ATOM     18  O   UNL     1       5.269   1.566  21.504  0.00  0.00    +0.000 OA
ENDBRANCH  16  18
ENDBRANCH  15  16
ENDBRANCH  13  15
ENDBRANCH   1  13
BRANCH   7  19
ATOM     19  C   UNL     1       6.093   3.891  14.495  0.00  0.00    +0.000 C 
ATOM     20  C   UNL     1       5.696   3.917  13.212  0.00  0.00    +0.000 C 
BRANCH  20  21
ATOM     21  C   UNL     1       6.459   3.187  12.174  0.00  0.00    +0.000 C 
ATOM     22  O   UNL     1       7.415   3.664  11.569  0.00  0.00    +0.000 OA
ATOM     23  N   UNL     1       5.984   1.925  11.944  0.00  0.00    +0.000 N 
ATOM     24  H   UNL     1       5.194   1.492  12.403  0.00  0.00    +0.000 HD
BRANCH  23  25
ATOM     25  O   UNL     1       6.647   1.163  10.957  0.00  0.00    +0.000 OA
ATOM     26  H   UNL     1       6.598   1.751  10.171  0.00  0.00    +0.000 HD
ENDBRANCH  23  25
ENDBRANCH  20  21
ENDBRANCH   7  19
TORSDOF 8
ENDMDL
MODEL 3
REMARK VINA RESULT:      -7.2      1.201      1.749
REMARK  Name = 
REMARK  11 active torsions:
REMARK  status: ('A' for Active; 'I' for Inactive)
REMARK    1  A    between atoms: C_1  and  O_2
REMARK    2  A    between atoms: O_2  and  C_3
REMARK    3  A    between atoms: C_3  and  C_4
REMARK    4  A    between atoms: C_4  and  N_5
REMARK    5  A    between atoms: N_5  and  C_6
REMARK    6  A    between atoms: C_7  and  C_8
REMARK    7  A    between atoms: C_8  and  C_9
REMARK    8  A    between atoms: C_8  and  C_10
REMARK    9  A    between atoms: C_15  and  C_16
REMARK   10  A    between atoms: C_17  and  C_18
REMARK   11  A    between atoms: N_20  and  O_21
REMARK                            x       y       z     vdW  Elec       q    Type
REMARK                         _______ _______ _______ _____ _____    ______ ____
ROOT
ATOM      1  C   UNL     1       2.958   4.624  17.854  0.00  0.00    +0.000 A 
ATOM      2  C   UNL     1       2.898   5.395  19.014  0.00  0.00    +0.000 A 
ATOM      3  N   UNL     1       4.020   6.183  19.141  0.00  0.00    +0.000 NA
ATOM      4  C   UNL     1       4.742   5.951  18.072  0.00  0.00    +0.000 A 
ATOM      5  C   UNL     1       5.982   6.510  17.661  0.00  0.00    +0.000 A 
ATOM      6  C   UNL     1       6.539   6.138  16.494  0.00  0.00    +0.000 A 
ATOM      7  C   UNL     1       5.917   5.147  15.611  0.00  0.00    +0.000 A 
ATOM      8  C   UNL     1       4.714   4.669  15.996  0.00  0.00    +0.000 A 
ATOM      9  N   UNL     1       4.142   5.026  17.222  0.00  0.00    +0.000 N 
ENDROOT
BRANCH   2  10
ATOM     10  C   UNL     1       1.861   5.467  20.104  0.00  0.00    +0.000 C 
ATOM     11  C   UNL     1       2.129   4.481  21.239  0.00  0.00    +0.000 C 
ATOM     12  C   UNL     1       1.663   6.883  20.645  0.00  0.00    +0.000 C 
ENDBRANCH   2  10
BRANCH   1  13
ATOM     13  N   UNL     1       2.067   3.705  17.380  0.00  0.00    +0.000 N 
ATOM     14  H   UNL     1       1.250   4.016  16.856  0.00  0.00    +0.000 HD
BRANCH  13  15
ATOM     15  C   UNL     1       1.974   2.323  17.834  0.00  0.00    +0.000 C 
BRANCH  15  16
ATOM     16  C   UNL     1       3.343   1.756  18.218  0.00  0.00    +0.000 C 
BRANCH  16  18
ATOM     17  C   UNL     1       4.690   2.173  20.107  0.00  0.00    +0.000 C 
ATOM     18  O   UNL     1       3.439   1.687  19.643  0.00  0.00    +0.000 OA
ENDBRANCH  16  18
ENDBRANCH  15  16
ENDBRANCH  13  15
ENDBRANCH   1  13
BRANCH   7  19
ATOM     19  C   UNL     1       6.465   4.697  14.337  0.00  0.00    +0.000 C 
ATOM     20  C   UNL     1       5.988   3.650  13.643  0.00  0.00    +0.000 C 
BRANCH  20  21
ATOM     21  C   UNL     1       6.568   3.293  12.328  0.00  0.00    +0.000 C 
ATOM     22  O   UNL     1       7.289   4.042  11.676  0.00  0.00    +0.000 OA
ATOM     23  N   UNL     1       6.210   2.044  11.902  0.00  0.00    +0.000 N 
ATOM     24  H   UNL     1       5.608   1.396  12.393  0.00  0.00    +0.000 HD
BRANCH  23  25
ATOM     25  O   UNL     1       6.709   1.629  10.648  0.00  0.00    +0.000 OA
ATOM     26  H   UNL     1       6.760   2.475  10.152  0.00  0.00    +0.000 HD
ENDBRANCH  23  25
ENDBRANCH  20  21
ENDBRANCH   7  19
TORSDOF 8
ENDMDL
MODEL 4
REMARK VINA RESULT:      -7.0      4.165      5.766
REMARK  Name = 
REMARK  11 active torsions:
REMARK  status: ('A' for Active; 'I' for Inactive)
REMARK    1  A    between atoms: C_1  and  O_2
REMARK    2  A    between atoms: O_2  and  C_3
REMARK    3  A    between atoms: C_3  and  C_4
REMARK    4  A    between atoms: C_4  and  N_5
REMARK    5  A    between atoms: N_5  and  C_6
REMARK    6  A    between atoms: C_7  and  C_8
REMARK    7  A    between atoms: C_8  and  C_9
REMARK    8  A    between atoms: C_8  and  C_10
REMARK    9  A    between atoms: C_15  and  C_16
REMARK   10  A    between atoms: C_17  and  C_18
REMARK   11  A    between atoms: N_20  and  O_21
REMARK                            x       y       z     vdW  Elec       q    Type
REMARK                         _______ _______ _______ _____ _____    ______ ____
ROOT
ATOM      1  C   UNL     1       4.351   4.680  18.474  0.00  0.00    +0.000 A 
ATOM      2  C   UNL     1       3.910   3.783  17.502  0.00  0.00    +0.000 A 
ATOM      3  N   UNL     1       4.641   3.914  16.342  0.00  0.00    +0.000 NA
ATOM      4  C   UNL     1       5.543   4.832  16.590  0.00  0.00    +0.000 A 
ATOM      5  C   UNL     1       6.582   5.345  15.768  0.00  0.00    +0.000 A 
ATOM      6  C   UNL     1       7.422   6.282  16.245  0.00  0.00    +0.000 A 
ATOM      7  C   UNL     1       7.303   6.822  17.603  0.00  0.00    +0.000 A 
ATOM      8  C   UNL     1       6.343   6.281  18.383  0.00  0.00    +0.000 A 
ATOM      9  N   UNL     1       5.445   5.329  17.887  0.00  0.00    +0.000 N 
ENDROOT
BRANCH   2  10
ATOM     10  C   UNL     1       2.796   2.770  17.520  0.00  0.00    +0.000 C 
ATOM     11  C   UNL     1       3.069   1.611  18.478  0.00  0.00    +0.000 C 
ATOM     12  C   UNL     1       1.428   3.393  17.793  0.00  0.00    +0.000 C 
ENDBRANCH   2  10
BRANCH   1  13
ATOM     13  N   UNL     1       3.880   4.885  19.738  0.00  0.00    +0.000 N 
ATOM     14  H   UNL     1       4.117   4.228  20.480  0.00  0.00    +0.000 HD
BRANCH  13  15
ATOM     15  C   UNL     1       2.777   5.775  20.084  0.00  0.00    +0.000 C 
BRANCH  15  16
ATOM     16  C   UNL     1       1.666   5.039  20.837  0.00  0.00    +0.000 C 
BRANCH  16  18
ATOM     17  C   UNL     1       1.407   2.807  21.548  0.00  0.00    +0.000 C 
ATOM     18  O   UNL     1       2.238   3.958  21.578  0.00  0.00    +0.000 OA
ENDBRANCH  16  18
ENDBRANCH  15  16
ENDBRANCH  13  15
ENDBRANCH   1  13
BRANCH   7  19
ATOM     19  C   UNL     1       8.175   7.836  18.182  0.00  0.00    +0.000 C 
ATOM     20  C   UNL     1       8.071   9.151  17.925  0.00  0.00    +0.000 C 
BRANCH  20  21
ATOM     21  C   UNL     1       8.963  10.122  18.598  0.00  0.00    +0.000 C 
ATOM     22  O   UNL     1       9.334  10.012  19.763  0.00  0.00    +0.000 OA
ATOM     23  N   UNL     1       9.325  11.168  17.795  0.00  0.00    +0.000 N 
ATOM     24  H   UNL     1       9.034  11.314  16.837  0.00  0.00    +0.000 HD
BRANCH  23  25
ATOM     25  O   UNL     1      10.165  12.150  18.365  0.00  0.00    +0.000 OA
ATOM     26  H   UNL     1      10.574  11.666  19.115  0.00  0.00    +0.000 HD
ENDBRANCH  23  25
ENDBRANCH  20  21
ENDBRANCH   7  19
TORSDOF 8
ENDMDL
MODEL 5
REMARK VINA RESULT:      -7.0      3.746      7.697
REMARK  Name = 
REMARK  11 active torsions:
REMARK  status: ('A' for Active; 'I' for Inactive)
REMARK    1  A    between atoms: C_1  and  O_2
REMARK    2  A    between atoms: O_2  and  C_3
REMARK    3  A    between atoms: C_3  and  C_4
REMARK    4  A    between atoms: C_4  and  N_5
REMARK    5  A    between atoms: N_5  and  C_6
REMARK    6  A    between atoms: C_7  and  C_8
REMARK    7  A    between atoms: C_8  and  C_9
REMARK    8  A    between atoms: C_8  and  C_10
REMARK    9  A    between atoms: C_15  and  C_16
REMARK   10  A    between atoms: C_17  and  C_18
REMARK   11  A    between atoms: N_20  and  O_21
REMARK                            x       y       z     vdW  Elec       q    Type
REMARK                         _______ _______ _______ _____ _____    ______ ____
ROOT
ATOM      1  C   UNL     1       4.402   4.828  18.519  0.00  0.00    +0.000 A 
ATOM      2  C   UNL     1       5.058   5.012  17.302  0.00  0.00    +0.000 A 
ATOM      3  N   UNL     1       4.661   6.185  16.700  0.00  0.00    +0.000 NA
ATOM      4  C   UNL     1       3.816   6.744  17.530  0.00  0.00    +0.000 A 
ATOM      5  C   UNL     1       3.119   7.980  17.440  0.00  0.00    +0.000 A 
ATOM      6  C   UNL     1       2.308   8.374  18.438  0.00  0.00    +0.000 A 
ATOM      7  C   UNL     1       2.093   7.562  19.640  0.00  0.00    +0.000 A 
ATOM      8  C   UNL     1       2.806   6.418  19.728  0.00  0.00    +0.000 A 
ATOM      9  N   UNL     1       3.627   5.984  18.682  0.00  0.00    +0.000 N 
ENDROOT
BRANCH   2  10
ATOM     10  C   UNL     1       6.059   4.152  16.576  0.00  0.00    +0.000 C 
ATOM     11  C   UNL     1       5.833   4.131  15.066  0.00  0.00    +0.000 C 
ATOM     12  C   UNL     1       7.507   4.514  16.907  0.00  0.00    +0.000 C 
ENDBRANCH   2  10
BRANCH   1  13
ATOM     13  N   UNL     1       4.495   3.793  19.403  0.00  0.00    +0.000 N 
ATOM     14  H   UNL     1       5.354   3.653  19.931  0.00  0.00    +0.000 HD
BRANCH  13  15
ATOM     15  C   UNL     1       3.602   2.640  19.433  0.00  0.00    +0.000 C 
BRANCH  15  16
ATOM     16  C   UNL     1       2.658   2.681  20.638  0.00  0.00    +0.000 C 
BRANCH  16  18
ATOM     17  C   UNL     1       1.094   2.820  18.880  0.00  0.00    +0.000 C 
ATOM     18  O   UNL     1       1.387   3.186  20.220  0.00  0.00    +0.000 OA
ENDBRANCH  16  18
ENDBRANCH  15  16
ENDBRANCH  13  15
ENDBRANCH   1  13
BRANCH   7  19
ATOM     19  C   UNL     1       1.229   7.926  20.755  0.00  0.00    +0.000 C 
ATOM     20  C   UNL     1       0.685   9.144  20.916  0.00  0.00    +0.000 C 
BRANCH  20  21
ATOM     21  C   UNL     1      -0.228   9.417  22.050  0.00  0.00    +0.000 C 
ATOM     22  O   UNL     1      -0.868   8.547  22.633  0.00  0.00    +0.000 OA
ATOM     23  N   UNL     1      -0.299  10.742  22.377  0.00  0.00    +0.000 N 
ATOM     24  H   UNL     1       0.194  11.498  21.920  0.00  0.00    +0.000 HD
BRANCH  23  25
ATOM     25  O   UNL     1      -1.160  11.092  23.441  0.00  0.00    +0.000 OA
ATOM     26  H   UNL     1      -1.991  10.627  23.200  0.00  0.00    +0.000 HD
ENDBRANCH  23  25
ENDBRANCH  20  21
ENDBRANCH   7  19
TORSDOF 8
ENDMDL
MODEL 6
REMARK VINA RESULT:      -6.9      4.585      7.391
REMARK  Name = 
REMARK  11 active torsions:
REMARK  status: ('A' for Active; 'I' for Inactive)
REMARK    1  A    between atoms: C_1  and  O_2
REMARK    2  A    between atoms: O_2  and  C_3
REMARK    3  A    between atoms: C_3  and  C_4
REMARK    4  A    between atoms: C_4  and  N_5
REMARK    5  A    between atoms: N_5  and  C_6
REMARK    6  A    between atoms: C_7  and  C_8
REMARK    7  A    between atoms: C_8  and  C_9
REMARK    8  A    between atoms: C_8  and  C_10
REMARK    9  A    between atoms: C_15  and  C_16
REMARK   10  A    between atoms: C_17  and  C_18
REMARK   11  A    between atoms: N_20  and  O_21
REMARK                            x       y       z     vdW  Elec       q    Type
REMARK                         _______ _______ _______ _____ _____    ______ ____
ROOT
ATOM      1  C   UNL     1       3.651   5.190  18.026  0.00  0.00    +0.000 A 
ATOM      2  C   UNL     1       3.662   4.142  18.946  0.00  0.00    +0.000 A 
ATOM      3  N   UNL     1       3.036   4.508  20.117  0.00  0.00    +0.000 NA
ATOM      4  C   UNL     1       2.605   5.730  19.925  0.00  0.00    +0.000 A 
ATOM      5  C   UNL     1       1.863   6.589  20.781  0.00  0.00    +0.000 A 
ATOM      6  C   UNL     1       1.500   7.814  20.361  0.00  0.00    +0.000 A 
ATOM      7  C   UNL     1       1.853   8.323  19.031  0.00  0.00    +0.000 A 
ATOM      8  C   UNL     1       2.510   7.470  18.217  0.00  0.00    +0.000 A 
ATOM      9  N   UNL     1       2.920   6.206  18.655  0.00  0.00    +0.000 N 
ENDROOT
BRANCH   2  10
ATOM     10  C   UNL     1       4.250   2.758  18.865  0.00  0.00    +0.000 C 
ATOM     11  C   UNL     1       4.508   2.146  20.241  0.00  0.00    +0.000 C 
ATOM     12  C   UNL     1       3.427   1.811  17.992  0.00  0.00    +0.000 C 
ENDBRANCH   2  10
BRANCH   1  13
ATOM     13  N   UNL     1       4.183   5.243  16.771  0.00  0.00    +0.000 N 
ATOM     14  H   UNL     1       3.701   4.788  15.997  0.00  0.00    +0.000 HD
BRANCH  13  15
ATOM     15  C   UNL     1       5.563   5.600  16.463  0.00  0.00    +0.000 C 
BRANCH  15  16
ATOM     16  C   UNL     1       6.425   4.365  16.191  0.00  0.00    +0.000 C 
BRANCH  16  18
ATOM     17  C   UNL     1       7.647   4.945  18.121  0.00  0.00    +0.000 C 
ATOM     18  O   UNL     1       7.723   4.565  16.755  0.00  0.00    +0.000 OA
ENDBRANCH  16  18
ENDBRANCH  15  16
ENDBRANCH  13  15
ENDBRANCH   1  13
BRANCH   7  19
ATOM     19  C   UNL     1       1.494   9.637  18.514  0.00  0.00    +0.000 C 
ATOM     20  C   UNL     1       1.028  10.642  19.275  0.00  0.00    +0.000 C 
BRANCH  20  21
ATOM     21  C   UNL     1       0.739  11.966  18.678  0.00  0.00    +0.000 C 
ATOM     22  O   UNL     1       1.511  12.919  18.729  0.00  0.00    +0.000 OA
ATOM     23  N   UNL     1      -0.485  12.028  18.071  0.00  0.00    +0.000 N 
ATOM     24  H   UNL     1      -1.162  11.278  18.015  0.00  0.00    +0.000 HD
BRANCH  23  25
ATOM     25  O   UNL     1      -0.846  13.262  17.487  0.00  0.00    +0.000 OA
ATOM     26  H   UNL     1       0.016  13.729  17.435  0.00  0.00    +0.000 HD
ENDBRANCH  23  25
ENDBRANCH  20  21
ENDBRANCH   7  19
TORSDOF 8
ENDMDL
MODEL 7
REMARK VINA RESULT:      -6.9      4.614      7.170
REMARK  Name = 
REMARK  11 active torsions:
REMARK  status: ('A' for Active; 'I' for Inactive)
REMARK    1  A    between atoms: C_1  and  O_2
REMARK    2  A    between atoms: O_2  and  C_3
REMARK    3  A    between atoms: C_3  and  C_4
REMARK    4  A    between atoms: C_4  and  N_5
REMARK    5  A    between atoms: N_5  and  C_6
REMARK    6  A    between atoms: C_7  and  C_8
REMARK    7  A    between atoms: C_8  and  C_9
REMARK    8  A    between atoms: C_8  and  C_10
REMARK    9  A    between atoms: C_15  and  C_16
REMARK   10  A    between atoms: C_17  and  C_18
REMARK   11  A    between atoms: N_20  and  O_21
REMARK                            x       y       z     vdW  Elec       q    Type
REMARK                         _______ _______ _______ _____ _____    ______ ____
ROOT
ATOM      1  C   UNL     1       0.920   8.917  20.156  0.00  0.00    +0.000 A 
ATOM      2  C   UNL     1       0.714  10.009  19.315  0.00  0.00    +0.000 A 
ATOM      3  N   UNL     1       1.493   9.913  18.183  0.00  0.00    +0.000 NA
ATOM      4  C   UNL     1       2.135   8.777  18.287  0.00  0.00    +0.000 A 
ATOM      5  C   UNL     1       3.049   8.152  17.395  0.00  0.00    +0.000 A 
ATOM      6  C   UNL     1       3.577   6.953  17.698  0.00  0.00    +0.000 A 
ATOM      7  C   UNL     1       3.256   6.247  18.942  0.00  0.00    +0.000 A 
ATOM      8  C   UNL     1       2.346   6.833  19.748  0.00  0.00    +0.000 A 
ATOM      9  N   UNL     1       1.815   8.095  19.458  0.00  0.00    +0.000 N 
ENDROOT
BRANCH   2  10
ATOM     10  C   UNL     1      -0.164  11.223  19.465  0.00  0.00    +0.000 C 
ATOM     11  C   UNL     1       0.502  12.499  18.951  0.00  0.00    +0.000 C 
ATOM     12  C   UNL     1      -1.547  11.041  18.841  0.00  0.00    +0.000 C 
ENDBRANCH   2  10
BRANCH   1  13
ATOM     13  N   UNL     1       0.366   8.647  21.374  0.00  0.00    +0.000 N 
ATOM     14  H   UNL     1      -0.480   8.083  21.432  0.00  0.00    +0.000 HD
BRANCH  13  15
ATOM     15  C   UNL     1       0.667   9.368  22.605  0.00  0.00    +0.000 C 
BRANCH  15  16
ATOM     16  C   UNL     1      -0.586  10.005  23.213  0.00  0.00    +0.000 C 
BRANCH  16  18
ATOM     17  C   UNL     1      -1.751  12.011  22.798  0.00  0.00    +0.000 C 
ATOM     18  O   UNL     1      -0.492  11.427  23.098  0.00  0.00    +0.000 OA
ENDBRANCH  16  18
ENDBRANCH  15  16
ENDBRANCH  13  15
ENDBRANCH   1  13
BRANCH   7  19
ATOM     19  C   UNL     1       3.792   4.949  19.333  0.00  0.00    +0.000 C 
ATOM     20  C   UNL     1       3.147   3.785  19.150  0.00  0.00    +0.000 C 
BRANCH  20  21
ATOM     21  C   UNL     1       3.787   2.503  19.525  0.00  0.00    +0.000 C 
ATOM     22  O   UNL     1       4.174   2.242  20.661  0.00  0.00    +0.000 OA
ATOM     23  N   UNL     1       3.917   1.638  18.475  0.00  0.00    +0.000 N 
ATOM     24  H   UNL     1       3.629   1.810  17.520  0.00  0.00    +0.000 HD
BRANCH  23  25
ATOM     25  O   UNL     1       4.531   0.395  18.743  0.00  0.00    +0.000 OA
ATOM     26  H   UNL     1       4.449  -0.070  17.882  0.00  0.00    +0.000 HD
ENDBRANCH  23  25
ENDBRANCH  20  21
ENDBRANCH   7  19
TORSDOF 8
ENDMDL
MODEL 8
REMARK VINA RESULT:      -6.8      4.842      8.554
REMARK  Name = 
REMARK  11 active torsions:
REMARK  status: ('A' for Active; 'I' for Inactive)
REMARK    1  A    between atoms: C_1  and  O_2
REMARK    2  A    between atoms: O_2  and  C_3
REMARK    3  A    between atoms: C_3  and  C_4
REMARK    4  A    between atoms: C_4  and  N_5
REMARK    5  A    between atoms: N_5  and  C_6
REMARK    6  A    between atoms: C_7  and  C_8
REMARK    7  A    between atoms: C_8  and  C_9
REMARK    8  A    between atoms: C_8  and  C_10
REMARK    9  A    between atoms: C_15  and  C_16
REMARK   10  A    between atoms: C_17  and  C_18
REMARK   11  A    between atoms: N_20  and  O_21
REMARK                            x       y       z     vdW  Elec       q    Type
REMARK                         _______ _______ _______ _____ _____    ______ ____
ROOT
ATOM      1  C   UNL     1       2.880   5.937  19.842  0.00  0.00    +0.000 A 
ATOM      2  C   UNL     1       3.648   5.788  18.688  0.00  0.00    +0.000 A 
ATOM      3  N   UNL     1       3.440   6.835  17.818  0.00  0.00    +0.000 NA
ATOM      4  C   UNL     1       2.603   7.640  18.424  0.00  0.00    +0.000 A 
ATOM      5  C   UNL     1       2.066   8.889  18.008  0.00  0.00    +0.000 A 
ATOM      6  C   UNL     1       1.229   9.568  18.814  0.00  0.00    +0.000 A 
ATOM      7  C   UNL     1       0.825   9.061  20.129  0.00  0.00    +0.000 A 
ATOM      8  C   UNL     1       1.390   7.900  20.525  0.00  0.00    +0.000 A 
ATOM      9  N   UNL     1       2.235   7.171  19.682  0.00  0.00    +0.000 N 
ENDROOT
BRANCH   2  10
ATOM     10  C   UNL     1       4.595   4.697  18.263  0.00  0.00    +0.000 C 
ATOM     11  C   UNL     1       4.483   4.365  16.776  0.00  0.00    +0.000 C 
ATOM     12  C   UNL     1       6.046   4.983  18.651  0.00  0.00    +0.000 C 
ENDBRANCH   2  10
BRANCH   1  13
ATOM     13  N   UNL     1       2.779   5.115  20.927  0.00  0.00    +0.000 N 
ATOM     14  H   UNL     1       3.368   5.278  21.742  0.00  0.00    +0.000 HD
BRANCH  13  15
ATOM     15  C   UNL     1       2.149   3.799  20.920  0.00  0.00    +0.000 C 
BRANCH  15  16
ATOM     16  C   UNL     1       0.827   3.805  20.150  0.00  0.00    +0.000 C 
BRANCH  16  18
ATOM     17  C   UNL     1       2.049   2.053  19.154  0.00  0.00    +0.000 C 
ATOM     18  O   UNL     1       0.932   2.919  19.032  0.00  0.00    +0.000 OA
ENDBRANCH  16  18
ENDBRANCH  15  16
ENDBRANCH  13  15
ENDBRANCH   1  13
BRANCH   7  19
ATOM     19  C   UNL     1      -0.076   9.742  21.050  0.00  0.00    +0.000 C 
ATOM     20  C   UNL     1       0.236  10.872  21.708  0.00  0.00    +0.000 C 
BRANCH  20  21
ATOM     21  C   UNL     1      -0.759  11.531  22.584  0.00  0.00    +0.000 C 
ATOM     22  O   UNL     1      -1.564  10.920  23.280  0.00  0.00    +0.000 OA
ATOM     23  N   UNL     1      -0.700  12.896  22.534  0.00  0.00    +0.000 N 
ATOM     24  H   UNL     1      -0.068  13.446  21.967  0.00  0.00    +0.000 HD
BRANCH  23  25
ATOM     25  O   UNL     1      -1.626  13.605  23.330  0.00  0.00    +0.000 OA
ATOM     26  H   UNL     1      -1.185  14.475  23.441  0.00  0.00    +0.000 HD
ENDBRANCH  23  25
ENDBRANCH  20  21
ENDBRANCH   7  19
TORSDOF 8
ENDMDL
MODEL 9
REMARK VINA RESULT:      -6.8      4.263      8.168
REMARK  Name = 
REMARK  11 active torsions:
REMARK  status: ('A' for Active; 'I' for Inactive)
REMARK    1  A    between atoms: C_1  and  O_2
REMARK    2  A    between atoms: O_2  and  C_3
REMARK    3  A    between atoms: C_3  and  C_4
REMARK    4  A    between atoms: C_4  and  N_5
REMARK    5  A    between atoms: N_5  and  C_6
REMARK    6  A    between atoms: C_7  and  C_8
REMARK    7  A    between atoms: C_8  and  C_9
REMARK    8  A    between atoms: C_8  and  C_10
REMARK    9  A    between atoms: C_15  and  C_16
REMARK   10  A    between atoms: C_17  and  C_18
REMARK   11  A    between atoms: N_20  and  O_21
REMARK                            x       y       z     vdW  Elec       q    Type
REMARK                         _______ _______ _______ _____ _____    ______ ____
ROOT
ATOM      1  C   UNL     1       3.824   5.545  18.826  0.00  0.00    +0.000 A 
ATOM      2  C   UNL     1       4.399   5.686  17.564  0.00  0.00    +0.000 A 
ATOM      3  N   UNL     1       3.951   6.830  16.943  0.00  0.00    +0.000 NA
ATOM      4  C   UNL     1       3.154   7.414  17.802  0.00  0.00    +0.000 A 
ATOM      5  C   UNL     1       2.439   8.639  17.708  0.00  0.00    +0.000 A 
ATOM      6  C   UNL     1       1.687   9.065  18.739  0.00  0.00    +0.000 A 
ATOM      7  C   UNL     1       1.558   8.300  19.983  0.00  0.00    +0.000 A 
ATOM      8  C   UNL     1       2.288   7.168  20.071  0.00  0.00    +0.000 A 
ATOM      9  N   UNL     1       3.047   6.699  18.993  0.00  0.00    +0.000 N 
ENDROOT
BRANCH   2  10
ATOM     10  C   UNL     1       5.362   4.807  16.811  0.00  0.00    +0.000 C 
ATOM     11  C   UNL     1       5.498   5.204  15.342  0.00  0.00    +0.000 C 
ATOM     12  C   UNL     1       6.733   4.713  17.480  0.00  0.00    +0.000 C 
ENDBRANCH   2  10
BRANCH   1  13
ATOM     13  N   UNL     1       3.984   4.546  19.743  0.00  0.00    +0.000 N 
ATOM     14  H   UNL     1       4.776   4.569  20.383  0.00  0.00    +0.000 HD
BRANCH  13  15
ATOM     15  C   UNL     1       3.320   3.249  19.688  0.00  0.00    +0.000 C 
BRANCH  15  16
ATOM     16  C   UNL     1       3.545   2.439  20.967  0.00  0.00    +0.000 C 
BRANCH  16  18
ATOM     17  C   UNL     1       1.236   2.855  21.197  0.00  0.00    +0.000 C 
ATOM     18  O   UNL     1       2.472   2.693  21.878  0.00  0.00    +0.000 OA
ENDBRANCH  16  18
ENDBRANCH  15  16
ENDBRANCH  13  15
ENDBRANCH   1  13
BRANCH   7  19
ATOM     19  C   UNL     1       0.762   8.701  21.136  0.00  0.00    +0.000 C 
ATOM     20  C   UNL     1       0.500   9.979  21.459  0.00  0.00    +0.000 C 
BRANCH  20  21
ATOM     21  C   UNL     1      -0.364  10.300  22.618  0.00  0.00    +0.000 C 
ATOM     22  O   UNL     1      -0.244   9.779  23.722  0.00  0.00    +0.000 OA
ATOM     23  N   UNL     1      -1.325  11.231  22.332  0.00  0.00    +0.000 N 
ATOM     24  H   UNL     1      -1.475  11.677  21.437  0.00  0.00    +0.000 HD
BRANCH  23  25
ATOM     25  O   UNL     1      -2.203  11.584  23.379  0.00  0.00    +0.000 OA
ATOM     26  H   UNL     1      -2.470  12.496  23.130  0.00  0.00    +0.000 HD
ENDBRANCH  23  25
ENDBRANCH  20  21
ENDBRANCH   7  19
TORSDOF 8
ENDMDL
