MODEL 1
REMARK VINA RESULT:      -8.4      0.000      0.000
REMARK  Name = 
REMARK  4 active torsions:
REMARK  status: ('A' for Active; 'I' for Inactive)
REMARK    1  A    between atoms: C_2  and  C_3
REMARK    2  A    between atoms: C_7  and  C_8
REMARK    3  A    between atoms: N_15  and  C_16
REMARK    4  A    between atoms: C_22  and  C_23
REMARK                            x       y       z     vdW  Elec       q    Type
REMARK                         _______ _______ _______ _____ _____    ______ ____
ROOT
ATOM      1  C   UNL     1       6.040   5.044  16.165  0.00  0.00    +0.000 C 
ATOM      2  C   UNL     1       4.874   4.114  16.592  0.00  0.00    +0.000 C 
ATOM      3  C   UNL     1       3.483   4.743  16.622  0.00  0.00    +0.000 C 
ATOM      4  N   UNL     1       3.549   6.084  17.171  0.00  0.00    +0.000 N 
ATOM      5  C   UNL     1       2.883   6.470  18.318  0.00  0.00    +0.000 A 
ATOM      6  N   UNL     1       2.564   5.496  19.254  0.00  0.00    +0.000 NA
ATOM      7  C   UNL     1       1.916   5.818  20.338  0.00  0.00    +0.000 A 
ATOM      8  N   UNL     1       1.563   4.949  21.359  0.00  0.00    +0.000 N 
ATOM      9  N   UNL     1       1.531   7.153  20.502  0.00  0.00    +0.000 N 
ATOM     10  N   UNL     1       0.825   7.624  21.560  0.00  0.00    +0.000 NA
ATOM     11  C   UNL     1       0.679   8.922  21.255  0.00  0.00    +0.000 A 
ATOM     12  C   UNL     1       1.321   9.277  20.045  0.00  0.00    +0.000 A 
ATOM     13  C   UNL     1       1.873   8.098  19.581  0.00  0.00    +0.000 A 
ATOM     14  N   UNL     1       2.595   7.740  18.484  0.00  0.00    +0.000 NA
ATOM     15  C   UNL     1       4.363   6.989  16.373  0.00  0.00    +0.000 C 
ATOM     16  C   UNL     1       5.816   6.540  16.481  0.00  0.00    +0.000 C 
ATOM     17  H   UNL     1       1.144   5.420  22.162  0.00  0.00    +0.000 HD
ENDROOT
BRANCH  12  18
ATOM     18  C   UNL     1       1.361  10.560  19.413  0.00  0.00    +0.000 C 
ATOM     19  C   UNL     1       0.334  11.194  18.831  0.00  0.00    +0.000 C 
ATOM     20  N   UNL     1      -0.948  10.750  18.698  0.00  0.00    +0.000 N 
ATOM     21  C   UNL     1      -1.731  11.711  18.100  0.00  0.00    +0.000 C 
ATOM     22  O   UNL     1      -2.933  11.643  17.913  0.00  0.00    +0.000 OA
ATOM     23  N   UNL     1      -0.916  12.767  17.784  0.00  0.00    +0.000 N 
ATOM     24  C   UNL     1       0.366  12.555  18.215  0.00  0.00    +0.000 C 
ATOM     25  O   UNL     1       1.316  13.309  18.147  0.00  0.00    +0.000 OA
ATOM     26  H   UNL     1      -1.305   9.900  19.122  0.00  0.00    +0.000 HD
ATOM     27  H   UNL     1      -1.246  13.618  17.366  0.00  0.00    +0.000 HD
ENDBRANCH  12  18
BRANCH   1  32
ATOM     28  C   UNL     1       6.499   3.595  12.642  0.00  0.00    +0.000 A 
ATOM     29  C   UNL     1       7.509   4.402  12.116  0.00  0.00    +0.000 A 
ATOM     30  C   UNL     1       8.083   5.399  12.908  0.00  0.00    +0.000 A 
ATOM     31  C   UNL     1       7.649   5.608  14.224  0.00  0.00    +0.000 A 
ATOM     32  C   UNL     1       6.619   4.833  14.765  0.00  0.00    +0.000 A 
ATOM     33  C   UNL     1       6.064   3.813  13.956  0.00  0.00    +0.000 A 
BRANCH  28  35
ATOM     34  N   UNL     1       5.423   1.729  11.191  0.00  0.00    +0.000 NA
ATOM     35  C   UNL     1       5.904   2.563  11.837  0.00  0.00    +0.000 C 
ENDBRANCH  28  35
ENDBRANCH   1  32
BRANCH   8  36
ATOM     36  C   UNL     1       2.372   3.755  21.590  0.00  0.00    +0.000 C 
ATOM     37  C   UNL     1       1.755   2.455  22.027  0.00  0.00    +0.000 C 
ATOM     38  C   UNL     1       2.299   2.594  20.636  0.00  0.00    +0.000 C 
ENDBRANCH   8  36
TORSDOF 4
ENDMDL
MODEL 2
REMARK VINA RESULT:      -8.2      4.058      8.852
REMARK  Name = 
REMARK  4 active torsions:
REMARK  status: ('A' for Active; 'I' for Inactive)
REMARK    1  A    between atoms: C_2  and  C_3
REMARK    2  A    between atoms: C_7  and  C_8
REMARK    3  A    between atoms: N_15  and  C_16
REMARK    4  A    between atoms: C_22  and  C_23
REMARK                            x       y       z     vdW  Elec       q    Type
REMARK                         _______ _______ _______ _____ _____    ______ ____
ROOT
ATOM      1  C   UNL     1       1.100  10.219  18.543  0.00  0.00    +0.000 C 
ATOM      2  C   UNL     1       1.757  11.420  19.274  0.00  0.00    +0.000 C 
ATOM      3  C   UNL     1       1.061  11.901  20.546  0.00  0.00    +0.000 C 
ATOM      4  N   UNL     1      -0.379  11.889  20.366  0.00  0.00    +0.000 N 
ATOM      5  C   UNL     1      -1.165  13.022  20.454  0.00  0.00    +0.000 A 
ATOM      6  N   UNL     1      -0.578  14.253  20.199  0.00  0.00    +0.000 NA
ATOM      7  C   UNL     1      -1.282  15.346  20.294  0.00  0.00    +0.000 A 
ATOM      8  N   UNL     1      -0.824  16.629  20.040  0.00  0.00    +0.000 N 
ATOM      9  N   UNL     1      -2.619  15.234  20.690  0.00  0.00    +0.000 N 
ATOM     10  N   UNL     1      -3.459  16.285  20.863  0.00  0.00    +0.000 NA
ATOM     11  C   UNL     1      -4.591  15.687  21.264  0.00  0.00    +0.000 A 
ATOM     12  C   UNL     1      -4.483  14.276  21.301  0.00  0.00    +0.000 A 
ATOM     13  C   UNL     1      -3.182  14.013  20.915  0.00  0.00    +0.000 A 
ATOM     14  N   UNL     1      -2.436  12.887  20.757  0.00  0.00    +0.000 NA
ATOM     15  C   UNL     1      -0.913  10.560  20.115  0.00  0.00    +0.000 C 
ATOM     16  C   UNL     1      -0.427  10.105  18.743  0.00  0.00    +0.000 C 
ATOM     17  H   UNL     1      -1.561  17.335  20.081  0.00  0.00    +0.000 HD
ENDROOT
BRANCH  12  18
ATOM     18  C   UNL     1      -5.481  13.327  21.690  0.00  0.00    +0.000 C 
ATOM     19  C   UNL     1      -6.188  12.535  20.873  0.00  0.00    +0.000 C 
ATOM     20  N   UNL     1      -6.125  12.478  19.512  0.00  0.00    +0.000 N 
ATOM     21  C   UNL     1      -6.958  11.493  19.033  0.00  0.00    +0.000 C 
ATOM     22  O   UNL     1      -7.065  11.148  17.869  0.00  0.00    +0.000 OA
ATOM     23  N   UNL     1      -7.617  10.953  20.106  0.00  0.00    +0.000 N 
ATOM     24  C   UNL     1      -7.194  11.510  21.283  0.00  0.00    +0.000 C 
ATOM     25  O   UNL     1      -7.531  11.221  22.414  0.00  0.00    +0.000 OA
ATOM     26  H   UNL     1      -5.445  12.979  18.951  0.00  0.00    +0.000 HD
ATOM     27  H   UNL     1      -8.264  10.189  20.034  0.00  0.00    +0.000 HD
ENDBRANCH  12  18
BRANCH   1  32
ATOM     28  C   UNL     1       3.445   7.293  17.732  0.00  0.00    +0.000 A 
ATOM     29  C   UNL     1       3.254   6.445  18.823  0.00  0.00    +0.000 A 
ATOM     30  C   UNL     1       2.333   6.788  19.816  0.00  0.00    +0.000 A 
ATOM     31  C   UNL     1       1.605   7.984  19.735  0.00  0.00    +0.000 A 
ATOM     32  C   UNL     1       1.800   8.865  18.667  0.00  0.00    +0.000 A 
ATOM     33  C   UNL     1       2.720   8.490  17.660  0.00  0.00    +0.000 A 
BRANCH  28  35
ATOM     34  N   UNL     1       5.144   6.666  15.870  0.00  0.00    +0.000 NA
ATOM     35  C   UNL     1       4.387   6.947  16.702  0.00  0.00    +0.000 C 
ENDBRANCH  28  35
ENDBRANCH   1  32
BRANCH   8  36
ATOM     36  C   UNL     1       0.279  16.820  19.102  0.00  0.00    +0.000 C 
ATOM     37  C   UNL     1       0.065  17.436  17.746  0.00  0.00    +0.000 C 
ATOM     38  C   UNL     1       0.794  18.203  18.809  0.00  0.00    +0.000 C 
ENDBRANCH   8  36
TORSDOF 4
ENDMDL
MODEL 3
REMARK VINA RESULT:      -8.1      8.355     11.602
REMARK  Name = 
REMARK  4 active torsions:
REMARK  status: ('A' for Active; 'I' for Inactive)
REMARK    1  A    between atoms: C_2  and  C_3
REMARK    2  A    between atoms: C_7  and  C_8
REMARK    3  A    between atoms: N_15  and  C_16
REMARK    4  A    between atoms: C_22  and  C_23
REMARK                            x       y       z     vdW  Elec       q    Type
REMARK                         _______ _______ _______ _____ _____    ______ ____
ROOT
ATOM      1  C   UNL     1       7.088  11.530  24.576  0.00  0.00    +0.000 C 
ATOM      2  C   UNL     1       8.504  12.155  24.483  0.00  0.00    +0.000 C 
ATOM      3  C   UNL     1       8.574  13.605  24.006  0.00  0.00    +0.000 C 
ATOM      4  N   UNL     1       7.637  13.822  22.921  0.00  0.00    +0.000 N 
ATOM      5  C   UNL     1       8.019  14.217  21.653  0.00  0.00    +0.000 A 
ATOM      6  N   UNL     1       9.307  13.919  21.230  0.00  0.00    +0.000 NA
ATOM      7  C   UNL     1       9.712  14.296  20.051  0.00  0.00    +0.000 A 
ATOM      8  N   UNL     1      10.958  14.038  19.501  0.00  0.00    +0.000 N 
ATOM      9  N   UNL     1       8.825  15.029  19.254  0.00  0.00    +0.000 N 
ATOM     10  N   UNL     1       9.120  15.513  18.022  0.00  0.00    +0.000 NA
ATOM     11  C   UNL     1       7.991  16.153  17.685  0.00  0.00    +0.000 A 
ATOM     12  C   UNL     1       6.981  16.039  18.669  0.00  0.00    +0.000 A 
ATOM     13  C   UNL     1       7.557  15.292  19.680  0.00  0.00    +0.000 A 
ATOM     14  N   UNL     1       7.147  14.841  20.896  0.00  0.00    +0.000 NA
ATOM     15  C   UNL     1       6.251  13.612  23.311  0.00  0.00    +0.000 C 
ATOM     16  C   UNL     1       6.057  12.126  23.592  0.00  0.00    +0.000 C 
ATOM     17  H   UNL     1      11.039  14.338  18.529  0.00  0.00    +0.000 HD
ENDROOT
BRANCH  12  18
ATOM     18  C   UNL     1       5.665  16.601  18.649  0.00  0.00    +0.000 C 
ATOM     19  C   UNL     1       4.516  15.934  18.475  0.00  0.00    +0.000 C 
ATOM     20  N   UNL     1       4.357  14.597  18.261  0.00  0.00    +0.000 N 
ATOM     21  C   UNL     1       3.020  14.276  18.194  0.00  0.00    +0.000 C 
ATOM     22  O   UNL     1       2.556  13.154  18.087  0.00  0.00    +0.000 OA
ATOM     23  N   UNL     1       2.311  15.443  18.302  0.00  0.00    +0.000 N 
ATOM     24  C   UNL     1       3.140  16.514  18.503  0.00  0.00    +0.000 C 
ATOM     25  O   UNL     1       2.835  17.675  18.694  0.00  0.00    +0.000 OA
ATOM     26  H   UNL     1       5.109  13.918  18.304  0.00  0.00    +0.000 HD
ATOM     27  H   UNL     1       1.308  15.486  18.316  0.00  0.00    +0.000 HD
ENDBRANCH  12  18
BRANCH   1  32
ATOM     28  C   UNL     1       4.647  10.488  27.347  0.00  0.00    +0.000 A 
ATOM     29  C   UNL     1       5.347  10.826  28.505  0.00  0.00    +0.000 A 
ATOM     30  C   UNL     1       6.601  11.434  28.406  0.00  0.00    +0.000 A 
ATOM     31  C   UNL     1       7.172  11.699  27.153  0.00  0.00    +0.000 A 
ATOM     32  C   UNL     1       6.503  11.342  25.977  0.00  0.00    +0.000 A 
ATOM     33  C   UNL     1       5.225  10.748  26.097  0.00  0.00    +0.000 A 
BRANCH  28  35
ATOM     34  N   UNL     1       2.312   9.362  27.511  0.00  0.00    +0.000 NA
ATOM     35  C   UNL     1       3.354   9.866  27.439  0.00  0.00    +0.000 C 
ENDBRANCH  28  35
ENDBRANCH   1  32
BRANCH   8  36
ATOM     36  C   UNL     1      11.697  12.855  19.934  0.00  0.00    +0.000 C 
ATOM     37  C   UNL     1      11.136  11.469  19.771  0.00  0.00    +0.000 C 
ATOM     38  C   UNL     1      12.286  11.915  18.917  0.00  0.00    +0.000 C 
ENDBRANCH   8  36
TORSDOF 4
ENDMDL
MODEL 4
REMARK VINA RESULT:      -8.0      9.740     12.283
REMARK  Name = 
REMARK  4 active torsions:
REMARK  status: ('A' for Active; 'I' for Inactive)
REMARK    1  A    between atoms: C_2  and  C_3
REMARK    2  A    between atoms: C_7  and  C_8
REMARK    3  A    between atoms: N_15  and  C_16
REMARK    4  A    between atoms: C_22  and  C_23
REMARK                            x       y       z     vdW  Elec       q    Type
REMARK                         _______ _______ _______ _____ _____    ______ ____
ROOT
ATOM      1  C   UNL     1       2.680  15.756  19.132  0.00  0.00    +0.000 C 
ATOM      2  C   UNL     1       3.155  16.326  20.495  0.00  0.00    +0.000 C 
ATOM      3  C   UNL     1       4.630  16.713  20.590  0.00  0.00    +0.000 C 
ATOM      4  N   UNL     1       5.452  15.726  19.916  0.00  0.00    +0.000 N 
ATOM      5  C   UNL     1       6.422  14.979  20.556  0.00  0.00    +0.000 A 
ATOM      6  N   UNL     1       6.296  14.765  21.921  0.00  0.00    +0.000 NA
ATOM      7  C   UNL     1       7.203  14.085  22.564  0.00  0.00    +0.000 A 
ATOM      8  N   UNL     1       7.179  13.779  23.915  0.00  0.00    +0.000 N 
ATOM      9  N   UNL     1       8.307  13.618  21.844  0.00  0.00    +0.000 N 
ATOM     10  N   UNL     1       9.341  12.928  22.386  0.00  0.00    +0.000 NA
ATOM     11  C   UNL     1      10.145  12.735  21.330  0.00  0.00    +0.000 A 
ATOM     12  C   UNL     1       9.607  13.255  20.129  0.00  0.00    +0.000 A 
ATOM     13  C   UNL     1       8.402  13.821  20.499  0.00  0.00    +0.000 A 
ATOM     14  N   UNL     1       7.413  14.490  19.846  0.00  0.00    +0.000 NA
ATOM     15  C   UNL     1       5.172  15.624  18.491  0.00  0.00    +0.000 C 
ATOM     16  C   UNL     1       3.778  15.030  18.323  0.00  0.00    +0.000 C 
ATOM     17  H   UNL     1       7.937  13.157  24.201  0.00  0.00    +0.000 HD
ENDROOT
BRANCH  12  18
ATOM     18  C   UNL     1      10.193  13.239  18.822  0.00  0.00    +0.000 C 
ATOM     19  C   UNL     1      10.375  14.294  18.018  0.00  0.00    +0.000 C 
ATOM     20  N   UNL     1      10.028  15.591  18.258  0.00  0.00    +0.000 N 
ATOM     21  C   UNL     1      10.437  16.398  17.221  0.00  0.00    +0.000 C 
ATOM     22  O   UNL     1      10.341  17.612  17.176  0.00  0.00    +0.000 OA
ATOM     23  N   UNL     1      10.999  15.591  16.268  0.00  0.00    +0.000 N 
ATOM     24  C   UNL     1      11.030  14.284  16.675  0.00  0.00    +0.000 C 
ATOM     25  O   UNL     1      11.508  13.328  16.098  0.00  0.00    +0.000 OA
ATOM     26  H   UNL     1       9.665  15.931  19.142  0.00  0.00    +0.000 HD
ATOM     27  H   UNL     1      11.409  15.935  15.419  0.00  0.00    +0.000 HD
ENDBRANCH  12  18
BRANCH   1  32
ATOM     28  C   UNL     1      -0.317  17.834  17.941  0.00  0.00    +0.000 A 
ATOM     29  C   UNL     1       0.183  18.448  16.793  0.00  0.00    +0.000 A 
ATOM     30  C   UNL     1       1.482  18.167  16.365  0.00  0.00    +0.000 A 
ATOM     31  C   UNL     1       2.298  17.282  17.083  0.00  0.00    +0.000 A 
ATOM     32  C   UNL     1       1.831  16.676  18.254  0.00  0.00    +0.000 A 
ATOM     33  C   UNL     1       0.504  16.955  18.659  0.00  0.00    +0.000 A 
BRANCH  28  35
ATOM     34  N   UNL     1      -2.734  18.340  18.745  0.00  0.00    +0.000 NA
ATOM     35  C   UNL     1      -1.655  18.113  18.387  0.00  0.00    +0.000 C 
ENDBRANCH  28  35
ENDBRANCH   1  32
BRANCH   8  36
ATOM     36  C   UNL     1       5.893  13.679  24.601  0.00  0.00    +0.000 C 
ATOM     37  C   UNL     1       5.650  12.657  25.678  0.00  0.00    +0.000 C 
ATOM     38  C   UNL     1       5.766  14.109  26.037  0.00  0.00    +0.000 C 
ENDBRANCH   8  36
TORSDOF 4
ENDMDL
MODEL 5
REMARK VINA RESULT:      -7.9      4.389      8.980
REMARK  Name = 
REMARK  4 active torsions:
REMARK  status: ('A' for Active; 'I' for Inactive)
REMARK    1  A    between atoms: C_2  and  C_3
REMARK    2  A    between atoms: C_7  and  C_8
REMARK    3  A    between atoms: N_15  and  C_16
REMARK    4  A    between atoms: C_22  and  C_23
REMARK                            x       y       z     vdW  Elec       q    Type
REMARK                         _______ _______ _______ _____ _____    ______ ____
ROOT
ATOM      1  C   UNL     1       0.974  10.124  18.564  0.00  0.00    +0.000 C 
ATOM      2  C   UNL     1       1.800  11.423  18.762  0.00  0.00    +0.000 C 
ATOM      3  C   UNL     1       1.594  12.160  20.083  0.00  0.00    +0.000 C 
ATOM      4  N   UNL     1       0.189  12.159  20.445  0.00  0.00    +0.000 N 
ATOM      5  C   UNL     1      -0.559  13.311  20.595  0.00  0.00    +0.000 A 
ATOM      6  N   UNL     1      -0.157  14.451  19.915  0.00  0.00    +0.000 NA
ATOM      7  C   UNL     1      -0.823  15.563  20.049  0.00  0.00    +0.000 A 
ATOM      8  N   UNL     1      -0.543  16.758  19.406  0.00  0.00    +0.000 N 
ATOM      9  N   UNL     1      -1.920  15.571  20.918  0.00  0.00    +0.000 N 
ATOM     10  N   UNL     1      -2.683  16.661  21.181  0.00  0.00    +0.000 NA
ATOM     11  C   UNL     1      -3.566  16.187  22.073  0.00  0.00    +0.000 A 
ATOM     12  C   UNL     1      -3.392  14.807  22.337  0.00  0.00    +0.000 A 
ATOM     13  C   UNL     1      -2.311  14.435  21.561  0.00  0.00    +0.000 A 
ATOM     14  N   UNL     1      -1.626  13.276  21.360  0.00  0.00    +0.000 NA
ATOM     15  C   UNL     1      -0.344  10.823  20.664  0.00  0.00    +0.000 C 
ATOM     16  C   UNL     1      -0.370  10.097  19.323  0.00  0.00    +0.000 C 
ATOM     17  H   UNL     1      -1.244  17.482  19.577  0.00  0.00    +0.000 HD
ENDROOT
BRANCH  12  18
ATOM     18  C   UNL     1      -4.140  13.982  23.236  0.00  0.00    +0.000 C 
ATOM     19  C   UNL     1      -5.298  13.361  22.971  0.00  0.00    +0.000 C 
ATOM     20  N   UNL     1      -6.013  13.398  21.811  0.00  0.00    +0.000 N 
ATOM     21  C   UNL     1      -7.116  12.579  21.900  0.00  0.00    +0.000 C 
ATOM     22  O   UNL     1      -7.907  12.341  21.003  0.00  0.00    +0.000 OA
ATOM     23  N   UNL     1      -7.141  12.059  23.167  0.00  0.00    +0.000 N 
ATOM     24  C   UNL     1      -6.053  12.461  23.894  0.00  0.00    +0.000 C 
ATOM     25  O   UNL     1      -5.743  12.139  25.024  0.00  0.00    +0.000 OA
ATOM     26  H   UNL     1      -5.692  13.839  20.956  0.00  0.00    +0.000 HD
ATOM     27  H   UNL     1      -7.830  11.401  23.485  0.00  0.00    +0.000 HD
ENDBRANCH  12  18
BRANCH   1  32
ATOM     28  C   UNL     1       3.464   7.317  17.761  0.00  0.00    +0.000 A 
ATOM     29  C   UNL     1       3.278   6.439  18.828  0.00  0.00    +0.000 A 
ATOM     30  C   UNL     1       2.316   6.721  19.801  0.00  0.00    +0.000 A 
ATOM     31  C   UNL     1       1.540   7.887  19.724  0.00  0.00    +0.000 A 
ATOM     32  C   UNL     1       1.728   8.798  18.680  0.00  0.00    +0.000 A 
ATOM     33  C   UNL     1       2.690   8.484  17.692  0.00  0.00    +0.000 A 
BRANCH  28  35
ATOM     34  N   UNL     1       5.240   6.806  15.936  0.00  0.00    +0.000 NA
ATOM     35  C   UNL     1       4.448   7.033  16.752  0.00  0.00    +0.000 C 
ENDBRANCH  28  35
ENDBRANCH   1  32
BRANCH   8  36
ATOM     36  C   UNL     1       0.134  16.730  18.113  0.00  0.00    +0.000 C 
ATOM     37  C   UNL     1      -0.097  17.795  17.076  0.00  0.00    +0.000 C 
ATOM     38  C   UNL     1       1.214  17.731  17.802  0.00  0.00    +0.000 C 
ENDBRANCH   8  36
TORSDOF 4
ENDMDL
MODEL 6
REMARK VINA RESULT:      -7.8      4.662      8.352
REMARK  Name = 
REMARK  4 active torsions:
REMARK  status: ('A' for Active; 'I' for Inactive)
REMARK    1  A    between atoms: C_2  and  C_3
REMARK    2  A    between atoms: C_7  and  C_8
REMARK    3  A    between atoms: N_15  and  C_16
REMARK    4  A    between atoms: C_22  and  C_23
REMARK                            x       y       z     vdW  Elec       q    Type
REMARK                         _______ _______ _______ _____ _____    ______ ____
ROOT
ATOM      1  C   UNL     1       0.988   9.105  20.751  0.00  0.00    +0.000 C 
ATOM      2  C   UNL     1      -0.560   9.192  20.681  0.00  0.00    +0.000 C 
ATOM      3  C   UNL     1      -1.137  10.175  19.665  0.00  0.00    +0.000 C 
ATOM      4  N   UNL     1      -0.364  11.402  19.658  0.00  0.00    +0.000 N 
ATOM      5  C   UNL     1      -0.896  12.638  19.972  0.00  0.00    +0.000 A 
ATOM      6  N   UNL     1      -2.015  12.685  20.792  0.00  0.00    +0.000 NA
ATOM      7  C   UNL     1      -2.558  13.831  21.092  0.00  0.00    +0.000 A 
ATOM      8  N   UNL     1      -3.655  14.015  21.919  0.00  0.00    +0.000 N 
ATOM      9  N   UNL     1      -2.001  14.988  20.537  0.00  0.00    +0.000 N 
ATOM     10  N   UNL     1      -2.481  16.241  20.733  0.00  0.00    +0.000 NA
ATOM     11  C   UNL     1      -1.651  16.988  19.990  0.00  0.00    +0.000 A 
ATOM     12  C   UNL     1      -0.635  16.225  19.368  0.00  0.00    +0.000 A 
ATOM     13  C   UNL     1      -0.890  14.922  19.751  0.00  0.00    +0.000 A 
ATOM     14  N   UNL     1      -0.314  13.715  19.498  0.00  0.00    +0.000 NA
ATOM     15  C   UNL     1       1.020  11.204  19.256  0.00  0.00    +0.000 C 
ATOM     16  C   UNL     1       1.721  10.404  20.349  0.00  0.00    +0.000 C 
ATOM     17  H   UNL     1      -3.863  14.999  22.099  0.00  0.00    +0.000 HD
ENDROOT
BRANCH  12  18
ATOM     18  C   UNL     1       0.407  16.686  18.501  0.00  0.00    +0.000 C 
ATOM     19  C   UNL     1       1.714  16.416  18.613  0.00  0.00    +0.000 C 
ATOM     20  N   UNL     1       2.329  15.671  19.574  0.00  0.00    +0.000 N 
ATOM     21  C   UNL     1       3.676  15.566  19.315  0.00  0.00    +0.000 C 
ATOM     22  O   UNL     1       4.480  14.903  19.948  0.00  0.00    +0.000 OA
ATOM     23  N   UNL     1       3.939  16.316  18.199  0.00  0.00    +0.000 N 
ATOM     24  C   UNL     1       2.794  16.857  17.680  0.00  0.00    +0.000 C 
ATOM     25  O   UNL     1       2.668  17.522  16.670  0.00  0.00    +0.000 OA
ATOM     26  H   UNL     1       1.838  15.140  20.287  0.00  0.00    +0.000 HD
ATOM     27  H   UNL     1       4.847  16.383  17.775  0.00  0.00    +0.000 HD
ENDBRANCH  12  18
BRANCH   1  32
ATOM     28  C   UNL     1       2.160   5.470  20.383  0.00  0.00    +0.000 A 
ATOM     29  C   UNL     1       2.709   5.462  19.100  0.00  0.00    +0.000 A 
ATOM     30  C   UNL     1       2.744   6.641  18.352  0.00  0.00    +0.000 A 
ATOM     31  C   UNL     1       2.223   7.835  18.871  0.00  0.00    +0.000 A 
ATOM     32  C   UNL     1       1.641   7.863  20.143  0.00  0.00    +0.000 A 
ATOM     33  C   UNL     1       1.635   6.665  20.894  0.00  0.00    +0.000 A 
BRANCH  28  35
ATOM     34  N   UNL     1       2.094   3.291  21.794  0.00  0.00    +0.000 NA
ATOM     35  C   UNL     1       2.123   4.263  21.162  0.00  0.00    +0.000 C 
ENDBRANCH  28  35
ENDBRANCH   1  32
BRANCH   8  36
ATOM     36  C   UNL     1      -3.930  13.037  22.968  0.00  0.00    +0.000 C 
ATOM     37  C   UNL     1      -3.902  13.412  24.424  0.00  0.00    +0.000 C 
ATOM     38  C   UNL     1      -5.210  13.110  23.755  0.00  0.00    +0.000 C 
ENDBRANCH   8  36
TORSDOF 4
ENDMDL
MODEL 7
REMARK VINA RESULT:      -7.6      1.289      1.507
REMARK  Name = 
REMARK  4 active torsions:
REMARK  status: ('A' for Active; 'I' for Inactive)
REMARK    1  A    between atoms: C_2  and  C_3
REMARK    2  A    between atoms: C_7  and  C_8
REMARK    3  A    between atoms: N_15  and  C_16
REMARK    4  A    between atoms: C_22  and  C_23
REMARK                            x       y       z     vdW  Elec       q    Type
REMARK                         _______ _______ _______ _____ _____    ______ ____
ROOT
ATOM      1  C   UNL     1       6.053   4.980  16.150  0.00  0.00    +0.000 C 
ATOM      2  C   UNL     1       4.890   4.053  16.589  0.00  0.00    +0.000 C 
ATOM      3  C   UNL     1       3.497   4.679  16.612  0.00  0.00    +0.000 C 
ATOM      4  N   UNL     1       3.561   6.026  17.146  0.00  0.00    +0.000 N 
ATOM      5  C   UNL     1       2.896   6.424  18.290  0.00  0.00    +0.000 A 
ATOM      6  N   UNL     1       2.580   5.460  19.237  0.00  0.00    +0.000 NA
ATOM      7  C   UNL     1       1.932   5.793  20.318  0.00  0.00    +0.000 A 
ATOM      8  N   UNL     1       1.582   4.935  21.349  0.00  0.00    +0.000 N 
ATOM      9  N   UNL     1       1.544   7.129  20.467  0.00  0.00    +0.000 N 
ATOM     10  N   UNL     1       0.838   7.611  21.520  0.00  0.00    +0.000 NA
ATOM     11  C   UNL     1       0.689   8.904  21.200  0.00  0.00    +0.000 A 
ATOM     12  C   UNL     1       1.329   9.247  19.985  0.00  0.00    +0.000 A 
ATOM     13  C   UNL     1       1.883   8.064  19.534  0.00  0.00    +0.000 A 
ATOM     14  N   UNL     1       2.605   7.695  18.441  0.00  0.00    +0.000 NA
ATOM     15  C   UNL     1       4.372   6.924  16.337  0.00  0.00    +0.000 C 
ATOM     16  C   UNL     1       5.826   6.479  16.449  0.00  0.00    +0.000 C 
ATOM     17  H   UNL     1       1.162   5.415  22.147  0.00  0.00    +0.000 HD
ENDROOT
BRANCH  12  18
ATOM     18  C   UNL     1       1.365  10.523  19.339  0.00  0.00    +0.000 C 
ATOM     19  C   UNL     1       1.089  11.708  19.900  0.00  0.00    +0.000 C 
ATOM     20  N   UNL     1       0.698  11.948  21.183  0.00  0.00    +0.000 N 
ATOM     21  C   UNL     1       0.572  13.301  21.403  0.00  0.00    +0.000 C 
ATOM     22  O   UNL     1       0.311  13.834  22.468  0.00  0.00    +0.000 OA
ATOM     23  N   UNL     1       0.823  13.936  20.215  0.00  0.00    +0.000 N 
ATOM     24  C   UNL     1       1.174  13.044  19.237  0.00  0.00    +0.000 C 
ATOM     25  O   UNL     1       1.513  13.278  18.094  0.00  0.00    +0.000 OA
ATOM     26  H   UNL     1       0.662  11.242  21.911  0.00  0.00    +0.000 HD
ATOM     27  H   UNL     1       0.829  14.934  20.108  0.00  0.00    +0.000 HD
ENDBRANCH  12  18
BRANCH   1  32
ATOM     28  C   UNL     1       6.494   3.513  12.632  0.00  0.00    +0.000 A 
ATOM     29  C   UNL     1       7.519   4.299  12.106  0.00  0.00    +0.000 A 
ATOM     30  C   UNL     1       8.111   5.288  12.896  0.00  0.00    +0.000 A 
ATOM     31  C   UNL     1       7.678   5.508  14.211  0.00  0.00    +0.000 A 
ATOM     32  C   UNL     1       6.632   4.754  14.752  0.00  0.00    +0.000 A 
ATOM     33  C   UNL     1       6.060   3.742  13.945  0.00  0.00    +0.000 A 
BRANCH  28  35
ATOM     34  N   UNL     1       5.391   1.664  11.180  0.00  0.00    +0.000 NA
ATOM     35  C   UNL     1       5.882   2.490  11.829  0.00  0.00    +0.000 C 
ENDBRANCH  28  35
ENDBRANCH   1  32
BRANCH   8  36
ATOM     36  C   UNL     1       2.394   3.746  21.593  0.00  0.00    +0.000 C 
ATOM     37  C   UNL     1       1.775   2.439  22.009  0.00  0.00    +0.000 C 
ATOM     38  C   UNL     1       2.351   2.589  20.632  0.00  0.00    +0.000 C 
ENDBRANCH   8  36
TORSDOF 4
ENDMDL
MODEL 8
REMARK VINA RESULT:      -7.6      4.500      9.429
REMARK  Name = 
REMARK  4 active torsions:
REMARK  status: ('A' for Active; 'I' for Inactive)
REMARK    1  A    between atoms: C_2  and  C_3
REMARK    2  A    between atoms: C_7  and  C_8
REMARK    3  A    between atoms: N_15  and  C_16
REMARK    4  A    between atoms: C_22  and  C_23
REMARK                            x       y       z     vdW  Elec       q    Type
REMARK                         _______ _______ _______ _____ _____    ______ ____
ROOT
ATOM      1  C   UNL     1       0.855  10.537  18.715  0.00  0.00    +0.000 C 
ATOM      2  C   UNL     1       1.562  11.746  19.383  0.00  0.00    +0.000 C 
ATOM      3  C   UNL     1       0.864  12.350  20.600  0.00  0.00    +0.000 C 
ATOM      4  N   UNL     1      -0.569  12.408  20.380  0.00  0.00    +0.000 N 
ATOM      5  C   UNL     1      -1.290  13.587  20.369  0.00  0.00    +0.000 A 
ATOM      6  N   UNL     1      -0.626  14.763  20.050  0.00  0.00    +0.000 NA
ATOM      7  C   UNL     1      -1.267  15.897  20.052  0.00  0.00    +0.000 A 
ATOM      8  N   UNL     1      -0.729  17.132  19.727  0.00  0.00    +0.000 N 
ATOM      9  N   UNL     1      -2.618  15.888  20.416  0.00  0.00    +0.000 N 
ATOM     10  N   UNL     1      -3.399  16.995  20.495  0.00  0.00    +0.000 NA
ATOM     11  C   UNL     1      -4.573  16.491  20.902  0.00  0.00    +0.000 A 
ATOM     12  C   UNL     1      -4.549  15.082  21.036  0.00  0.00    +0.000 A 
ATOM     13  C   UNL     1      -3.256  14.720  20.705  0.00  0.00    +0.000 A 
ATOM     14  N   UNL     1      -2.573  13.545  20.644  0.00  0.00    +0.000 NA
ATOM     15  C   UNL     1      -1.174  11.097  20.202  0.00  0.00    +0.000 C 
ATOM     16  C   UNL     1      -0.681  10.523  18.878  0.00  0.00    +0.000 C 
ATOM     17  H   UNL     1      -1.424  17.880  19.700  0.00  0.00    +0.000 HD
ENDROOT
BRANCH  12  18
ATOM     18  C   UNL     1      -5.610  14.219  21.458  0.00  0.00    +0.000 C 
ATOM     19  C   UNL     1      -5.627  13.459  22.562  0.00  0.00    +0.000 C 
ATOM     20  N   UNL     1      -4.644  13.330  23.496  0.00  0.00    +0.000 N 
ATOM     21  C   UNL     1      -5.057  12.507  24.520  0.00  0.00    +0.000 C 
ATOM     22  O   UNL     1      -4.433  12.258  25.537  0.00  0.00    +0.000 OA
ATOM     23  N   UNL     1      -6.308  12.049  24.199  0.00  0.00    +0.000 N 
ATOM     24  C   UNL     1      -6.755  12.597  23.027  0.00  0.00    +0.000 C 
ATOM     25  O   UNL     1      -7.836  12.447  22.492  0.00  0.00    +0.000 OA
ATOM     26  H   UNL     1      -3.794  13.885  23.513  0.00  0.00    +0.000 HD
ATOM     27  H   UNL     1      -6.852  11.454  24.797  0.00  0.00    +0.000 HD
ENDBRANCH  12  18
BRANCH   1  32
ATOM     28  C   UNL     1       3.065   7.446  18.184  0.00  0.00    +0.000 A 
ATOM     29  C   UNL     1       2.777   6.676  19.311  0.00  0.00    +0.000 A 
ATOM     30  C   UNL     1       1.834   7.126  20.237  0.00  0.00    +0.000 A 
ATOM     31  C   UNL     1       1.179   8.352  20.054  0.00  0.00    +0.000 A 
ATOM     32  C   UNL     1       1.471   9.157  18.949  0.00  0.00    +0.000 A 
ATOM     33  C   UNL     1       2.412   8.674  18.010  0.00  0.00    +0.000 A 
BRANCH  28  35
ATOM     34  N   UNL     1       4.808   6.623  16.444  0.00  0.00    +0.000 NA
ATOM     35  C   UNL     1       4.031   6.990  17.222  0.00  0.00    +0.000 C 
ENDBRANCH  28  35
ENDBRANCH   1  32
BRANCH   8  36
ATOM     36  C   UNL     1       0.406  17.196  18.809  0.00  0.00    +0.000 C 
ATOM     37  C   UNL     1       0.667  18.408  17.958  0.00  0.00    +0.000 C 
ATOM     38  C   UNL     1       1.574  18.096  19.111  0.00  0.00    +0.000 C 
ENDBRANCH   8  36
TORSDOF 4
ENDMDL
MODEL 9
REMARK VINA RESULT:      -7.5      7.789     11.449
REMARK  Name = 
REMARK  4 active torsions:
REMARK  status: ('A' for Active; 'I' for Inactive)
REMARK    1  A    between atoms: C_2  and  C_3
REMARK    2  A    between atoms: C_7  and  C_8
REMARK    3  A    between atoms: N_15  and  C_16
REMARK    4  A    between atoms: C_22  and  C_23
REMARK                            x       y       z     vdW  Elec       q    Type
REMARK                         _______ _______ _______ _____ _____    ______ ____
ROOT
ATOM      1  C   UNL     1      -0.781  15.959  21.838  0.00  0.00    +0.000 C 
ATOM      2  C   UNL     1      -1.318  15.022  22.951  0.00  0.00    +0.000 C 
ATOM      3  C   UNL     1      -1.614  13.581  22.540  0.00  0.00    +0.000 C 
ATOM      4  N   UNL     1      -2.243  13.551  21.233  0.00  0.00    +0.000 N 
ATOM      5  C   UNL     1      -3.507  13.040  21.008  0.00  0.00    +0.000 A 
ATOM      6  N   UNL     1      -4.407  13.021  22.064  0.00  0.00    +0.000 NA
ATOM      7  C   UNL     1      -5.600  12.525  21.897  0.00  0.00    +0.000 A 
ATOM      8  N   UNL     1      -6.597  12.472  22.859  0.00  0.00    +0.000 N 
ATOM      9  N   UNL     1      -5.921  11.991  20.645  0.00  0.00    +0.000 N 
ATOM     10  N   UNL     1      -7.110  11.414  20.338  0.00  0.00    +0.000 NA
ATOM     11  C   UNL     1      -6.929  11.040  19.063  0.00  0.00    +0.000 A 
ATOM     12  C   UNL     1      -5.661  11.415  18.556  0.00  0.00    +0.000 A 
ATOM     13  C   UNL     1      -5.030  12.039  19.615  0.00  0.00    +0.000 A 
ATOM     14  N   UNL     1      -3.810  12.610  19.805  0.00  0.00    +0.000 NA
ATOM     15  C   UNL     1      -1.396  14.086  20.178  0.00  0.00    +0.000 C 
ATOM     16  C   UNL     1      -1.238  15.585  20.410  0.00  0.00    +0.000 C 
ATOM     17  H   UNL     1      -7.489  12.131  22.496  0.00  0.00    +0.000 HD
ENDROOT
BRANCH  12  18
ATOM     18  C   UNL     1      -5.128  11.170  17.250  0.00  0.00    +0.000 C 
ATOM     19  C   UNL     1      -3.879  10.781  16.961  0.00  0.00    +0.000 C 
ATOM     20  N   UNL     1      -2.855  10.558  17.833  0.00  0.00    +0.000 N 
ATOM     21  C   UNL     1      -1.741  10.106  17.162  0.00  0.00    +0.000 C 
ATOM     22  O   UNL     1      -0.693   9.748  17.671  0.00  0.00    +0.000 OA
ATOM     23  N   UNL     1      -2.039  10.103  15.825  0.00  0.00    +0.000 N 
ATOM     24  C   UNL     1      -3.337  10.478  15.602  0.00  0.00    +0.000 C 
ATOM     25  O   UNL     1      -3.934  10.526  14.544  0.00  0.00    +0.000 OA
ATOM     26  H   UNL     1      -2.952  10.570  18.843  0.00  0.00    +0.000 HD
ATOM     27  H   UNL     1      -1.406   9.784  15.114  0.00  0.00    +0.000 HD
ENDBRANCH  12  18
BRANCH   1  32
ATOM     28  C   UNL     1       2.764  16.794  20.631  0.00  0.00    +0.000 A 
ATOM     29  C   UNL     1       3.424  17.088  21.824  0.00  0.00    +0.000 A 
ATOM     30  C   UNL     1       2.743  16.981  23.039  0.00  0.00    +0.000 A 
ATOM     31  C   UNL     1       1.397  16.591  23.074  0.00  0.00    +0.000 A 
ATOM     32  C   UNL     1       0.704  16.319  21.890  0.00  0.00    +0.000 A 
ATOM     33  C   UNL     1       1.416  16.411  20.671  0.00  0.00    +0.000 A 
BRANCH  28  35
ATOM     34  N   UNL     1       4.015  16.977  18.362  0.00  0.00    +0.000 NA
ATOM     35  C   UNL     1       3.457  16.897  19.376  0.00  0.00    +0.000 C 
ENDBRANCH  28  35
ENDBRANCH   1  32
BRANCH   8  36
ATOM     36  C   UNL     1      -6.609  13.466  23.929  0.00  0.00    +0.000 C 
ATOM     37  C   UNL     1      -6.992  14.898  23.673  0.00  0.00    +0.000 C 
ATOM     38  C   UNL     1      -7.915  14.005  24.448  0.00  0.00    +0.000 C 
ENDBRANCH   8  36
TORSDOF 4
ENDMDL
