MODEL 1
REMARK VINA RESULT:      -6.9      0.000      0.000
REMARK  Name = 
REMARK  6 active torsions:
REMARK  status: ('A' for Active; 'I' for Inactive)
REMARK    1  A    between atoms: C_1  and  O_2
REMARK    2  A    between atoms: O_2  and  C_3
REMARK    3  A    between atoms: C_6  and  C_7
REMARK    4  A    between atoms: C_7  and  C_8
REMARK    5  A    between atoms: C_13  and  O_14
REMARK    6  A    between atoms: C_16  and  O_17
REMARK                            x       y       z     vdW  Elec       q    Type
REMARK                         _______ _______ _______ _____ _____    ______ ____
ROOT
ATOM      1  C   UNL     1       0.952   9.086  18.707  0.00  0.00    +0.000 C 
ATOM      2  C   UNL     1       2.106   9.648  17.884  0.00  0.00    +0.000 C 
ATOM      3  O   UNL     1       2.878   8.605  17.244  0.00  0.00    +0.000 OA
ATOM      4  C   UNL     1       3.058   7.450  17.965  0.00  0.00    +0.000 A 
ATOM      5  C   UNL     1       3.817   6.448  17.359  0.00  0.00    +0.000 A 
ATOM      6  C   UNL     1       3.967   5.220  18.006  0.00  0.00    +0.000 A 
ATOM      7  C   UNL     1       3.390   4.980  19.249  0.00  0.00    +0.000 A 
ATOM      8  C   UNL     1       2.643   5.981  19.859  0.00  0.00    +0.000 A 
ATOM      9  C   UNL     1       2.487   7.213  19.219  0.00  0.00    +0.000 A 
ATOM     10  C   UNL     1       1.652   8.280  19.772  0.00  0.00    +0.000 C 
ATOM     11  O   UNL     1       1.593   8.520  20.970  0.00  0.00    +0.000 OA
ENDROOT
BRANCH   6  12
ATOM     12  O   UNL     1       4.660   4.193  17.434  0.00  0.00    +0.000 OA
ATOM     13  H   UNL     1       4.096   3.401  17.417  0.00  0.00    +0.000 HD
ENDBRANCH   6  12
BRANCH   8  14
ATOM     14  O   UNL     1       2.003   5.733  21.039  0.00  0.00    +0.000 OA
ATOM     15  H   UNL     1       2.619   5.328  21.669  0.00  0.00    +0.000 HD
ENDBRANCH   8  14
BRANCH   1  16
ATOM     16  C   UNL     1       0.030  10.103  19.376  0.00  0.00    +0.000 C 
BRANCH  16  20
ATOM     17  C   UNL     1      -3.572  11.203  17.264  0.00  0.00    +0.000 A 
ATOM     18  C   UNL     1      -2.703  10.261  16.711  0.00  0.00    +0.000 A 
ATOM     19  C   UNL     1      -1.526   9.899  17.376  0.00  0.00    +0.000 A 
ATOM     20  C   UNL     1      -1.193  10.502  18.595  0.00  0.00    +0.000 A 
ATOM     21  C   UNL     1      -2.068  11.450  19.139  0.00  0.00    +0.000 A 
ATOM     22  C   UNL     1      -3.246  11.802  18.479  0.00  0.00    +0.000 A 
BRANCH  17  24
ATOM     23  C   UNL     1      -5.727  12.177  17.202  0.00  0.00    +0.000 C 
ATOM     24  O   UNL     1      -4.686  11.483  16.522  0.00  0.00    +0.000 OA
ENDBRANCH  17  24
ENDBRANCH  16  20
ENDBRANCH   1  16
TORSDOF 5
ENDMDL
MODEL 2
REMARK VINA RESULT:      -6.8      0.176      1.041
REMARK  Name = 
REMARK  6 active torsions:
REMARK  status: ('A' for Active; 'I' for Inactive)
REMARK    1  A    between atoms: C_1  and  O_2
REMARK    2  A    between atoms: O_2  and  C_3
REMARK    3  A    between atoms: C_6  and  C_7
REMARK    4  A    between atoms: C_7  and  C_8
REMARK    5  A    between atoms: C_13  and  O_14
REMARK    6  A    between atoms: C_16  and  O_17
REMARK                            x       y       z     vdW  Elec       q    Type
REMARK                         _______ _______ _______ _____ _____    ______ ____
ROOT
ATOM      1  C   UNL     1       0.899   9.267  18.690  0.00  0.00    +0.000 C 
ATOM      2  C   UNL     1       2.059   9.841  17.884  0.00  0.00    +0.000 C 
ATOM      3  O   UNL     1       2.839   8.807  17.239  0.00  0.00    +0.000 OA
ATOM      4  C   UNL     1       3.013   7.643  17.946  0.00  0.00    +0.000 A 
ATOM      5  C   UNL     1       3.778   6.649  17.335  0.00  0.00    +0.000 A 
ATOM      6  C   UNL     1       3.924   5.414  17.967  0.00  0.00    +0.000 A 
ATOM      7  C   UNL     1       3.336   5.157  19.201  0.00  0.00    +0.000 A 
ATOM      8  C   UNL     1       2.582   6.149  19.817  0.00  0.00    +0.000 A 
ATOM      9  C   UNL     1       2.431   7.389  19.192  0.00  0.00    +0.000 A 
ATOM     10  C   UNL     1       1.589   8.448  19.751  0.00  0.00    +0.000 C 
ATOM     11  O   UNL     1       1.519   8.673  20.951  0.00  0.00    +0.000 OA
ENDROOT
BRANCH   6  12
ATOM     12  O   UNL     1       4.623   4.394  17.389  0.00  0.00    +0.000 OA
ATOM     13  H   UNL     1       4.719   4.575  16.438  0.00  0.00    +0.000 HD
ENDBRANCH   6  12
BRANCH   8  14
ATOM     14  O   UNL     1       1.932   5.885  20.988  0.00  0.00    +0.000 OA
ATOM     15  H   UNL     1       2.207   6.519  21.668  0.00  0.00    +0.000 HD
ENDBRANCH   8  14
BRANCH   1  16
ATOM     16  C   UNL     1      -0.031  10.275  19.363  0.00  0.00    +0.000 C 
BRANCH  16  20
ATOM     17  C   UNL     1      -3.627  11.183  17.152  0.00  0.00    +0.000 A 
ATOM     18  C   UNL     1      -3.368  11.839  18.357  0.00  0.00    +0.000 A 
ATOM     19  C   UNL     1      -2.213  11.551  19.093  0.00  0.00    +0.000 A 
ATOM     20  C   UNL     1      -1.315  10.577  18.640  0.00  0.00    +0.000 A 
ATOM     21  C   UNL     1      -1.586   9.920  17.433  0.00  0.00    +0.000 A 
ATOM     22  C   UNL     1      -2.733  10.217  16.695  0.00  0.00    +0.000 A 
BRANCH  17  24
ATOM     23  C   UNL     1      -5.798  12.098  17.361  0.00  0.00    +0.000 C 
ATOM     24  O   UNL     1      -4.789  11.542  16.525  0.00  0.00    +0.000 OA
ENDBRANCH  17  24
ENDBRANCH  16  20
ENDBRANCH   1  16
TORSDOF 5
ENDMDL
MODEL 3
REMARK VINA RESULT:      -6.7      1.601      2.609
REMARK  Name = 
REMARK  6 active torsions:
REMARK  status: ('A' for Active; 'I' for Inactive)
REMARK    1  A    between atoms: C_1  and  O_2
REMARK    2  A    between atoms: O_2  and  C_3
REMARK    3  A    between atoms: C_6  and  C_7
REMARK    4  A    between atoms: C_7  and  C_8
REMARK    5  A    between atoms: C_13  and  O_14
REMARK    6  A    between atoms: C_16  and  O_17
REMARK                            x       y       z     vdW  Elec       q    Type
REMARK                         _______ _______ _______ _____ _____    ______ ____
ROOT
ATOM      1  C   UNL     1       2.568   7.740  17.937  0.00  0.00    +0.000 C 
ATOM      2  C   UNL     1       3.936   7.334  17.400  0.00  0.00    +0.000 C 
ATOM      3  O   UNL     1       3.975   5.944  17.000  0.00  0.00    +0.000 OA
ATOM      4  C   UNL     1       3.263   5.065  17.779  0.00  0.00    +0.000 A 
ATOM      5  C   UNL     1       3.311   3.722  17.407  0.00  0.00    +0.000 A 
ATOM      6  C   UNL     1       2.543   2.791  18.110  0.00  0.00    +0.000 A 
ATOM      7  C   UNL     1       1.744   3.173  19.183  0.00  0.00    +0.000 A 
ATOM      8  C   UNL     1       1.704   4.510  19.562  0.00  0.00    +0.000 A 
ATOM      9  C   UNL     1       2.468   5.448  18.865  0.00  0.00    +0.000 A 
ATOM     10  C   UNL     1       2.412   6.879  19.165  0.00  0.00    +0.000 C 
ATOM     11  O   UNL     1       2.317   7.313  20.305  0.00  0.00    +0.000 OA
ENDROOT
BRANCH   6  12
ATOM     12  O   UNL     1       2.519   1.474  17.756  0.00  0.00    +0.000 OA
ATOM     13  H   UNL     1       3.433   1.154  17.661  0.00  0.00    +0.000 HD
ENDBRANCH   6  12
BRANCH   8  14
ATOM     14  O   UNL     1       0.863   4.912  20.559  0.00  0.00    +0.000 OA
ATOM     15  H   UNL     1      -0.001   4.485  20.454  0.00  0.00    +0.000 HD
ENDBRANCH   8  14
BRANCH   1  16
ATOM     16  C   UNL     1       2.396   9.207  18.330  0.00  0.00    +0.000 C 
BRANCH  16  20
ATOM     17  C   UNL     1      -1.655  10.677  18.594  0.00  0.00    +0.000 A 
ATOM     18  C   UNL     1      -0.751  10.945  19.623  0.00  0.00    +0.000 A 
ATOM     19  C   UNL     1       0.564  10.469  19.559  0.00  0.00    +0.000 A 
ATOM     20  C   UNL     1       0.978   9.691  18.472  0.00  0.00    +0.000 A 
ATOM     21  C   UNL     1       0.062   9.422  17.447  0.00  0.00    +0.000 A 
ATOM     22  C   UNL     1      -1.245   9.908  17.507  0.00  0.00    +0.000 A 
BRANCH  17  24
ATOM     23  C   UNL     1      -3.699  11.315  17.588  0.00  0.00    +0.000 C 
ATOM     24  O   UNL     1      -2.912  11.188  18.768  0.00  0.00    +0.000 OA
ENDBRANCH  17  24
ENDBRANCH  16  20
ENDBRANCH   1  16
TORSDOF 5
ENDMDL
MODEL 4
REMARK VINA RESULT:      -6.7      5.537      8.905
REMARK  Name = 
REMARK  6 active torsions:
REMARK  status: ('A' for Active; 'I' for Inactive)
REMARK    1  A    between atoms: C_1  and  O_2
REMARK    2  A    between atoms: O_2  and  C_3
REMARK    3  A    between atoms: C_6  and  C_7
REMARK    4  A    between atoms: C_7  and  C_8
REMARK    5  A    between atoms: C_13  and  O_14
REMARK    6  A    between atoms: C_16  and  O_17
REMARK                            x       y       z     vdW  Elec       q    Type
REMARK                         _______ _______ _______ _____ _____    ______ ____
ROOT
ATOM      1  C   UNL     1       4.387   4.771  16.680  0.00  0.00    +0.000 C 
ATOM      2  C   UNL     1       4.927   3.395  17.056  0.00  0.00    +0.000 C 
ATOM      3  O   UNL     1       4.018   2.669  17.917  0.00  0.00    +0.000 OA
ATOM      4  C   UNL     1       3.341   3.412  18.853  0.00  0.00    +0.000 A 
ATOM      5  C   UNL     1       2.476   2.714  19.697  0.00  0.00    +0.000 A 
ATOM      6  C   UNL     1       1.698   3.423  20.614  0.00  0.00    +0.000 A 
ATOM      7  C   UNL     1       1.778   4.808  20.716  0.00  0.00    +0.000 A 
ATOM      8  C   UNL     1       2.647   5.504  19.883  0.00  0.00    +0.000 A 
ATOM      9  C   UNL     1       3.430   4.803  18.962  0.00  0.00    +0.000 A 
ATOM     10  C   UNL     1       4.307   5.482  18.007  0.00  0.00    +0.000 C 
ATOM     11  O   UNL     1       4.951   6.481  18.295  0.00  0.00    +0.000 OA
ENDROOT
BRANCH   6  12
ATOM     12  O   UNL     1       0.804   2.791  21.429  0.00  0.00    +0.000 OA
ATOM     13  H   UNL     1      -0.037   2.682  20.953  0.00  0.00    +0.000 HD
ENDBRANCH   6  12
BRANCH   8  14
ATOM     14  O   UNL     1       2.677   6.868  19.915  0.00  0.00    +0.000 OA
ATOM     15  H   UNL     1       3.497   7.170  20.335  0.00  0.00    +0.000 HD
ENDBRANCH   8  14
BRANCH   1  16
ATOM     16  C   UNL     1       5.238   5.600  15.720  0.00  0.00    +0.000 C 
BRANCH  16  20
ATOM     17  C   UNL     1       6.898   3.637  12.251  0.00  0.00    +0.000 A 
ATOM     18  C   UNL     1       5.593   3.351  12.652  0.00  0.00    +0.000 A 
ATOM     19  C   UNL     1       5.040   3.970  13.779  0.00  0.00    +0.000 A 
ATOM     20  C   UNL     1       5.806   4.865  14.536  0.00  0.00    +0.000 A 
ATOM     21  C   UNL     1       7.117   5.141  14.129  0.00  0.00    +0.000 A 
ATOM     22  C   UNL     1       7.662   4.531  12.998  0.00  0.00    +0.000 A 
BRANCH  17  24
ATOM     23  C   UNL     1       7.024   1.579  11.092  0.00  0.00    +0.000 C 
ATOM     24  O   UNL     1       7.332   2.968  11.140  0.00  0.00    +0.000 OA
ENDBRANCH  17  24
ENDBRANCH  16  20
ENDBRANCH   1  16
TORSDOF 5
ENDMDL
MODEL 5
REMARK VINA RESULT:      -6.7      1.589      2.397
REMARK  Name = 
REMARK  6 active torsions:
REMARK  status: ('A' for Active; 'I' for Inactive)
REMARK    1  A    between atoms: C_1  and  O_2
REMARK    2  A    between atoms: O_2  and  C_3
REMARK    3  A    between atoms: C_6  and  C_7
REMARK    4  A    between atoms: C_7  and  C_8
REMARK    5  A    between atoms: C_13  and  O_14
REMARK    6  A    between atoms: C_16  and  O_17
REMARK                            x       y       z     vdW  Elec       q    Type
REMARK                         _______ _______ _______ _____ _____    ______ ____
ROOT
ATOM      1  C   UNL     1       2.543   7.751  17.935  0.00  0.00    +0.000 C 
ATOM      2  C   UNL     1       3.912   7.356  17.394  0.00  0.00    +0.000 C 
ATOM      3  O   UNL     1       3.957   5.970  16.981  0.00  0.00    +0.000 OA
ATOM      4  C   UNL     1       3.249   5.081  17.752  0.00  0.00    +0.000 A 
ATOM      5  C   UNL     1       3.303   3.741  17.368  0.00  0.00    +0.000 A 
ATOM      6  C   UNL     1       2.540   2.801  18.062  0.00  0.00    +0.000 A 
ATOM      7  C   UNL     1       1.740   3.168  19.139  0.00  0.00    +0.000 A 
ATOM      8  C   UNL     1       1.694   4.501  19.530  0.00  0.00    +0.000 A 
ATOM      9  C   UNL     1       2.454   5.449  18.841  0.00  0.00    +0.000 A 
ATOM     10  C   UNL     1       2.391   6.878  19.155  0.00  0.00    +0.000 C 
ATOM     11  O   UNL     1       2.294   7.300  20.299  0.00  0.00    +0.000 OA
ENDROOT
BRANCH   6  12
ATOM     12  O   UNL     1       2.522   1.486  17.695  0.00  0.00    +0.000 OA
ATOM     13  H   UNL     1       1.906   1.004  18.273  0.00  0.00    +0.000 HD
ENDBRANCH   6  12
BRANCH   8  14
ATOM     14  O   UNL     1       0.852   4.890  20.532  0.00  0.00    +0.000 OA
ATOM     15  H   UNL     1       0.390   4.118  20.893  0.00  0.00    +0.000 HD
ENDBRANCH   8  14
BRANCH   1  16
ATOM     16  C   UNL     1       2.363   9.212  18.342  0.00  0.00    +0.000 C 
BRANCH  16  20
ATOM     17  C   UNL     1      -1.716  10.611  18.546  0.00  0.00    +0.000 A 
ATOM     18  C   UNL     1      -1.303   9.830  17.465  0.00  0.00    +0.000 A 
ATOM     19  C   UNL     1       0.017   9.375  17.377  0.00  0.00    +0.000 A 
ATOM     20  C   UNL     1       0.949   9.725  18.361  0.00  0.00    +0.000 A 
ATOM     21  C   UNL     1       0.527  10.514  19.439  0.00  0.00    +0.000 A 
ATOM     22  C   UNL     1      -0.794  10.957  19.530  0.00  0.00    +0.000 A 
BRANCH  17  24
ATOM     23  C   UNL     1      -3.534  11.395  17.251  0.00  0.00    +0.000 C 
ATOM     24  O   UNL     1      -3.027  11.002  18.522  0.00  0.00    +0.000 OA
ENDBRANCH  17  24
ENDBRANCH  16  20
ENDBRANCH   1  16
TORSDOF 5
ENDMDL
MODEL 6
REMARK VINA RESULT:      -6.6      5.661      8.939
REMARK  Name = 
REMARK  6 active torsions:
REMARK  status: ('A' for Active; 'I' for Inactive)
REMARK    1  A    between atoms: C_1  and  O_2
REMARK    2  A    between atoms: O_2  and  C_3
REMARK    3  A    between atoms: C_6  and  C_7
REMARK    4  A    between atoms: C_7  and  C_8
REMARK    5  A    between atoms: C_13  and  O_14
REMARK    6  A    between atoms: C_16  and  O_17
REMARK                            x       y       z     vdW  Elec       q    Type
REMARK                         _______ _______ _______ _____ _____    ______ ____
ROOT
ATOM      1  C   UNL     1       5.480   4.872  17.089  0.00  0.00    +0.000 C 
ATOM      2  C   UNL     1       6.278   4.711  18.378  0.00  0.00    +0.000 C 
ATOM      3  O   UNL     1       5.622   3.832  19.321  0.00  0.00    +0.000 OA
ATOM      4  C   UNL     1       4.251   3.911  19.375  0.00  0.00    +0.000 A 
ATOM      5  C   UNL     1       3.614   3.077  20.295  0.00  0.00    +0.000 A 
ATOM      6  C   UNL     1       2.220   3.052  20.341  0.00  0.00    +0.000 A 
ATOM      7  C   UNL     1       1.451   3.853  19.502  0.00  0.00    +0.000 A 
ATOM      8  C   UNL     1       2.084   4.692  18.593  0.00  0.00    +0.000 A 
ATOM      9  C   UNL     1       3.480   4.724  18.539  0.00  0.00    +0.000 A 
ATOM     10  C   UNL     1       4.205   5.528  17.555  0.00  0.00    +0.000 C 
ATOM     11  O   UNL     1       3.836   6.642  17.209  0.00  0.00    +0.000 OA
ENDROOT
BRANCH   6  12
ATOM     12  O   UNL     1       1.549   2.220  21.190  0.00  0.00    +0.000 OA
ATOM     13  H   UNL     1       0.697   2.625  21.424  0.00  0.00    +0.000 HD
ENDBRANCH   6  12
BRANCH   8  14
ATOM     14  O   UNL     1       1.345   5.422  17.707  0.00  0.00    +0.000 OA
ATOM     15  H   UNL     1       1.382   6.361  17.943  0.00  0.00    +0.000 HD
ENDBRANCH   8  14
BRANCH   1  16
ATOM     16  C   UNL     1       6.113   5.730  15.995  0.00  0.00    +0.000 C 
BRANCH  16  20
ATOM     17  C   UNL     1       6.786   3.634  12.281  0.00  0.00    +0.000 A 
ATOM     18  C   UNL     1       7.693   4.607  12.703  0.00  0.00    +0.000 A 
ATOM     19  C   UNL     1       7.487   5.303  13.899  0.00  0.00    +0.000 A 
ATOM     20  C   UNL     1       6.348   5.051  14.674  0.00  0.00    +0.000 A 
ATOM     21  C   UNL     1       5.441   4.077  14.239  0.00  0.00    +0.000 A 
ATOM     22  C   UNL     1       5.654   3.375  13.051  0.00  0.00    +0.000 A 
BRANCH  17  24
ATOM     23  C   UNL     1       6.960   1.605  11.076  0.00  0.00    +0.000 C 
ATOM     24  O   UNL     1       7.087   3.024  11.094  0.00  0.00    +0.000 OA
ENDBRANCH  17  24
ENDBRANCH  16  20
ENDBRANCH   1  16
TORSDOF 5
ENDMDL
MODEL 7
REMARK VINA RESULT:      -6.6      5.729      8.969
REMARK  Name = 
REMARK  6 active torsions:
REMARK  status: ('A' for Active; 'I' for Inactive)
REMARK    1  A    between atoms: C_1  and  O_2
REMARK    2  A    between atoms: O_2  and  C_3
REMARK    3  A    between atoms: C_6  and  C_7
REMARK    4  A    between atoms: C_7  and  C_8
REMARK    5  A    between atoms: C_13  and  O_14
REMARK    6  A    between atoms: C_16  and  O_17
REMARK                            x       y       z     vdW  Elec       q    Type
REMARK                         _______ _______ _______ _____ _____    ______ ____
ROOT
ATOM      1  C   UNL     1       5.462   4.827  17.080  0.00  0.00    +0.000 C 
ATOM      2  C   UNL     1       6.256   4.747  18.379  0.00  0.00    +0.000 C 
ATOM      3  O   UNL     1       5.625   3.881  19.352  0.00  0.00    +0.000 OA
ATOM      4  C   UNL     1       4.252   3.912  19.395  0.00  0.00    +0.000 A 
ATOM      5  C   UNL     1       3.640   3.091  20.343  0.00  0.00    +0.000 A 
ATOM      6  C   UNL     1       2.247   3.017  20.382  0.00  0.00    +0.000 A 
ATOM      7  C   UNL     1       1.456   3.755  19.507  0.00  0.00    +0.000 A 
ATOM      8  C   UNL     1       2.064   4.581  18.570  0.00  0.00    +0.000 A 
ATOM      9  C   UNL     1       3.458   4.662  18.523  0.00  0.00    +0.000 A 
ATOM     10  C   UNL     1       4.161   5.454  17.512  0.00  0.00    +0.000 C 
ATOM     11  O   UNL     1       3.753   6.539  17.121  0.00  0.00    +0.000 OA
ENDROOT
BRANCH   6  12
ATOM     12  O   UNL     1       1.601   2.194  21.258  0.00  0.00    +0.000 OA
ATOM     13  H   UNL     1       2.233   1.543  21.608  0.00  0.00    +0.000 HD
ENDBRANCH   6  12
BRANCH   8  14
ATOM     14  O   UNL     1       1.305   5.248  17.652  0.00  0.00    +0.000 OA
ATOM     15  H   UNL     1       0.404   5.363  17.991  0.00  0.00    +0.000 HD
ENDBRANCH   8  14
BRANCH   1  16
ATOM     16  C   UNL     1       6.071   5.665  15.957  0.00  0.00    +0.000 C 
BRANCH  16  20
ATOM     17  C   UNL     1       6.917   3.720  12.197  0.00  0.00    +0.000 A 
ATOM     18  C   UNL     1       5.816   3.318  12.954  0.00  0.00    +0.000 A 
ATOM     19  C   UNL     1       5.531   3.930  14.180  0.00  0.00    +0.000 A 
ATOM     20  C   UNL     1       6.368   4.937  14.675  0.00  0.00    +0.000 A 
ATOM     21  C   UNL     1       7.474   5.329  13.911  0.00  0.00    +0.000 A 
ATOM     22  C   UNL     1       7.750   4.725  12.683  0.00  0.00    +0.000 A 
BRANCH  17  24
ATOM     23  C   UNL     1       6.919   1.635  11.079  0.00  0.00    +0.000 C 
ATOM     24  O   UNL     1       7.099   3.046  11.020  0.00  0.00    +0.000 OA
ENDBRANCH  17  24
ENDBRANCH  16  20
ENDBRANCH   1  16
TORSDOF 5
ENDMDL
MODEL 8
REMARK VINA RESULT:      -6.5      3.274      4.765
REMARK  Name = 
REMARK  6 active torsions:
REMARK  status: ('A' for Active; 'I' for Inactive)
REMARK    1  A    between atoms: C_1  and  O_2
REMARK    2  A    between atoms: O_2  and  C_3
REMARK    3  A    between atoms: C_6  and  C_7
REMARK    4  A    between atoms: C_7  and  C_8
REMARK    5  A    between atoms: C_13  and  O_14
REMARK    6  A    between atoms: C_16  and  O_17
REMARK                            x       y       z     vdW  Elec       q    Type
REMARK                         _______ _______ _______ _____ _____    ______ ____
ROOT
ATOM      1  C   UNL     1       2.892   7.030  18.422  0.00  0.00    +0.000 C 
ATOM      2  C   UNL     1       2.512   5.568  18.216  0.00  0.00    +0.000 C 
ATOM      3  O   UNL     1       3.631   4.677  18.435  0.00  0.00    +0.000 OA
ATOM      4  C   UNL     1       4.859   5.126  18.013  0.00  0.00    +0.000 A 
ATOM      5  C   UNL     1       5.938   4.264  18.207  0.00  0.00    +0.000 A 
ATOM      6  C   UNL     1       7.223   4.694  17.874  0.00  0.00    +0.000 A 
ATOM      7  C   UNL     1       7.449   5.959  17.339  0.00  0.00    +0.000 A 
ATOM      8  C   UNL     1       6.373   6.815  17.135  0.00  0.00    +0.000 A 
ATOM      9  C   UNL     1       5.083   6.393  17.465  0.00  0.00    +0.000 A 
ATOM     10  C   UNL     1       3.919   7.272  17.345  0.00  0.00    +0.000 C 
ATOM     11  O   UNL     1       3.782   8.066  16.425  0.00  0.00    +0.000 OA
ENDROOT
BRANCH   6  12
ATOM     12  O   UNL     1       8.317   3.907  18.088  0.00  0.00    +0.000 OA
ATOM     13  H   UNL     1       8.195   3.411  18.915  0.00  0.00    +0.000 HD
ENDBRANCH   6  12
BRANCH   8  14
ATOM     14  O   UNL     1       6.588   8.087  16.688  0.00  0.00    +0.000 OA
ATOM     15  H   UNL     1       5.747   8.489  16.423  0.00  0.00    +0.000 HD
ENDBRANCH   8  14
BRANCH   1  16
ATOM     16  C   UNL     1       1.768   8.055  18.279  0.00  0.00    +0.000 C 
BRANCH  16  20
ATOM     17  C   UNL     1       0.401   9.942  21.914  0.00  0.00    +0.000 A 
ATOM     18  C   UNL     1       1.077   8.723  21.976  0.00  0.00    +0.000 A 
ATOM     19  C   UNL     1       1.520   8.091  20.808  0.00  0.00    +0.000 A 
ATOM     20  C   UNL     1       1.262   8.665  19.557  0.00  0.00    +0.000 A 
ATOM     21  C   UNL     1       0.577   9.885  19.504  0.00  0.00    +0.000 A 
ATOM     22  C   UNL     1       0.147  10.519  20.671  0.00  0.00    +0.000 A 
BRANCH  17  24
ATOM     23  C   UNL     1      -1.286  11.047  23.150  0.00  0.00    +0.000 C 
ATOM     24  O   UNL     1       0.012  10.461  23.118  0.00  0.00    +0.000 OA
ENDBRANCH  17  24
ENDBRANCH  16  20
ENDBRANCH   1  16
TORSDOF 5
ENDMDL
MODEL 9
REMARK VINA RESULT:      -6.5      5.422      8.177
REMARK  Name = 
REMARK  6 active torsions:
REMARK  status: ('A' for Active; 'I' for Inactive)
REMARK    1  A    between atoms: C_1  and  O_2
REMARK    2  A    between atoms: O_2  and  C_3
REMARK    3  A    between atoms: C_6  and  C_7
REMARK    4  A    between atoms: C_7  and  C_8
REMARK    5  A    between atoms: C_13  and  O_14
REMARK    6  A    between atoms: C_16  and  O_17
REMARK                            x       y       z     vdW  Elec       q    Type
REMARK                         _______ _______ _______ _____ _____    ______ ____
ROOT
ATOM      1  C   UNL     1       4.515   5.644  18.156  0.00  0.00    +0.000 C 
ATOM      2  C   UNL     1       3.057   5.971  17.851  0.00  0.00    +0.000 C 
ATOM      3  O   UNL     1       2.176   5.599  18.938  0.00  0.00    +0.000 OA
ATOM      4  C   UNL     1       2.488   4.440  19.606  0.00  0.00    +0.000 A 
ATOM      5  C   UNL     1       1.632   4.069  20.644  0.00  0.00    +0.000 A 
ATOM      6  C   UNL     1       1.940   2.946  21.413  0.00  0.00    +0.000 A 
ATOM      7  C   UNL     1       3.072   2.180  21.158  0.00  0.00    +0.000 A 
ATOM      8  C   UNL     1       3.920   2.542  20.117  0.00  0.00    +0.000 A 
ATOM      9  C   UNL     1       3.621   3.664  19.342  0.00  0.00    +0.000 A 
ATOM     10  C   UNL     1       4.510   4.141  18.282  0.00  0.00    +0.000 C 
ATOM     11  O   UNL     1       5.125   3.384  17.544  0.00  0.00    +0.000 OA
ENDROOT
BRANCH   6  12
ATOM     12  O   UNL     1       1.160   2.569  22.468  0.00  0.00    +0.000 OA
ATOM     13  H   UNL     1       0.484   1.944  22.155  0.00  0.00    +0.000 HD
ENDBRANCH   6  12
BRANCH   8  14
ATOM     14  O   UNL     1       5.077   1.849  19.906  0.00  0.00    +0.000 OA
ATOM     15  H   UNL     1       5.634   2.322  19.269  0.00  0.00    +0.000 HD
ENDBRANCH   8  14
BRANCH   1  16
ATOM     16  C   UNL     1       5.542   6.053  17.101  0.00  0.00    +0.000 C 
BRANCH  16  20
ATOM     17  C   UNL     1       8.591   8.732  18.573  0.00  0.00    +0.000 A 
ATOM     18  C   UNL     1       7.656   9.189  17.643  0.00  0.00    +0.000 A 
ATOM     19  C   UNL     1       6.666   8.333  17.147  0.00  0.00    +0.000 A 
ATOM     20  C   UNL     1       6.621   6.995  17.559  0.00  0.00    +0.000 A 
ATOM     21  C   UNL     1       7.568   6.545  18.488  0.00  0.00    +0.000 A 
ATOM     22  C   UNL     1       8.547   7.403  18.989  0.00  0.00    +0.000 A 
BRANCH  17  24
ATOM     23  C   UNL     1       9.471  10.912  18.314  0.00  0.00    +0.000 C 
ATOM     24  O   UNL     1       9.514   9.655  18.981  0.00  0.00    +0.000 OA
ENDBRANCH  17  24
ENDBRANCH  16  20
ENDBRANCH   1  16
TORSDOF 5
ENDMDL
