MODEL 1
REMARK VINA RESULT:      -7.3      0.000      0.000
REMARK  Name = 
REMARK  2 active torsions:
REMARK  status: ('A' for Active; 'I' for Inactive)
REMARK    1  A    between atoms: C_4  and  O_5
REMARK    2  A    between atoms: C_8  and  C_9
REMARK                            x       y       z     vdW  Elec       q    Type
REMARK                         _______ _______ _______ _____ _____    ______ ____
ROOT
ATOM      1  N   UNL     1       8.287   5.297  20.688  0.00  0.00    +0.000 N 
ATOM      2  C   UNL     1       7.528   5.555  19.567  0.00  0.00    +0.000 A 
ATOM      3  N   UNL     1       8.007   6.437  18.694  0.00  0.00    +0.000 NA
ATOM      4  C   UNL     1       7.191   6.728  17.676  0.00  0.00    +0.000 A 
ATOM      5  C   UNL     1       5.924   6.217  17.480  0.00  0.00    +0.000 A 
ATOM      6 BR   UNL     1       4.863   6.874  16.055  0.00  0.00    +0.000 Br
ATOM      7  C   UNL     1       5.528   5.281  18.424  0.00  0.00    +0.000 A 
ATOM      8  N   UNL     1       6.338   4.958  19.466  0.00  0.00    +0.000 NA
ATOM      9  H   UNL     1       8.900   6.079  20.877  0.00  0.00    +0.000 HD
ATOM     10  H   UNL     1       7.681   5.003  21.442  0.00  0.00    +0.000 HD
ENDROOT
BRANCH   7  11
ATOM     11  C   UNL     1       4.230   4.556  18.416  0.00  0.00    +0.000 A 
ATOM     12  C   UNL     1       4.059   3.325  17.752  0.00  0.00    +0.000 A 
ATOM     13  C   UNL     1       2.813   2.690  17.684  0.00  0.00    +0.000 A 
ATOM     14  C   UNL     1       1.714   3.235  18.336  0.00  0.00    +0.000 A 
ATOM     15  C   UNL     1       1.867   4.411  19.064  0.00  0.00    +0.000 A 
ATOM     16  C   UNL     1       3.105   5.059  19.095  0.00  0.00    +0.000 A 
ATOM     17  F   UNL     1       3.178   6.210  19.784  0.00  0.00    +0.000 F 
ENDBRANCH   7  11
BRANCH   4  18
ATOM     18  O   UNL     1       7.747   7.625  16.814  0.00  0.00    +0.000 OA
ATOM     19  H   UNL     1       8.407   8.050  17.392  0.00  0.00    +0.000 HD
ENDBRANCH   4  18
TORSDOF 2
ENDMDL
MODEL 2
REMARK VINA RESULT:      -7.2      1.152      1.676
REMARK  Name = 
REMARK  2 active torsions:
REMARK  status: ('A' for Active; 'I' for Inactive)
REMARK    1  A    between atoms: C_4  and  O_5
REMARK    2  A    between atoms: C_8  and  C_9
REMARK                            x       y       z     vdW  Elec       q    Type
REMARK                         _______ _______ _______ _____ _____    ______ ____
ROOT
ATOM      1  N   UNL     1       8.393   5.234  20.652  0.00  0.00    +0.000 N 
ATOM      2  C   UNL     1       7.560   5.494  19.585  0.00  0.00    +0.000 A 
ATOM      3  N   UNL     1       8.064   6.198  18.575  0.00  0.00    +0.000 NA
ATOM      4  C   UNL     1       7.191   6.510  17.611  0.00  0.00    +0.000 A 
ATOM      5  C   UNL     1       5.850   6.185  17.595  0.00  0.00    +0.000 A 
ATOM      6 BR   UNL     1       4.745   6.853  16.209  0.00  0.00    +0.000 Br
ATOM      7  C   UNL     1       5.428   5.421  18.674  0.00  0.00    +0.000 A 
ATOM      8  N   UNL     1       6.293   5.082  19.666  0.00  0.00    +0.000 NA
ATOM      9  H   UNL     1       9.130   5.926  20.692  0.00  0.00    +0.000 HD
ATOM     10  H   UNL     1       7.838   5.115  21.489  0.00  0.00    +0.000 HD
ENDROOT
BRANCH   7  11
ATOM     11  C   UNL     1       4.047   4.911  18.871  0.00  0.00    +0.000 A 
ATOM     12  C   UNL     1       3.157   5.484  19.801  0.00  0.00    +0.000 A 
ATOM     13  C   UNL     1       1.885   4.947  20.036  0.00  0.00    +0.000 A 
ATOM     14  C   UNL     1       1.440   3.857  19.298  0.00  0.00    +0.000 A 
ATOM     15  C   UNL     1       2.265   3.314  18.318  0.00  0.00    +0.000 A 
ATOM     16  C   UNL     1       3.549   3.832  18.117  0.00  0.00    +0.000 A 
ATOM     17  F   UNL     1       4.309   3.240  17.182  0.00  0.00    +0.000 F 
ENDBRANCH   7  11
BRANCH   4  18
ATOM     18  O   UNL     1       7.772   7.218  16.603  0.00  0.00    +0.000 OA
ATOM     19  H   UNL     1       8.709   6.981  16.729  0.00  0.00    +0.000 HD
ENDBRANCH   4  18
TORSDOF 2
ENDMDL
MODEL 3
REMARK VINA RESULT:      -7.2      1.512      1.538
REMARK  Name = 
REMARK  2 active torsions:
REMARK  status: ('A' for Active; 'I' for Inactive)
REMARK    1  A    between atoms: C_4  and  O_5
REMARK    2  A    between atoms: C_8  and  C_9
REMARK                            x       y       z     vdW  Elec       q    Type
REMARK                         _______ _______ _______ _____ _____    ______ ____
ROOT
ATOM      1  N   UNL     1       7.864   5.554  19.945  0.00  0.00    +0.000 N 
ATOM      2  C   UNL     1       7.195   5.193  18.795  0.00  0.00    +0.000 A 
ATOM      3  N   UNL     1       7.776   5.482  17.634  0.00  0.00    +0.000 NA
ATOM      4  C   UNL     1       7.045   5.205  16.550  0.00  0.00    +0.000 A 
ATOM      5  C   UNL     1       5.769   4.679  16.544  0.00  0.00    +0.000 A 
ATOM      6 BR   UNL     1       4.840   4.502  14.903  0.00  0.00    +0.000 Br
ATOM      7  C   UNL     1       5.263   4.380  17.801  0.00  0.00    +0.000 A 
ATOM      8  N   UNL     1       5.985   4.643  18.922  0.00  0.00    +0.000 NA
ATOM      9  H   UNL     1       8.503   6.313  19.749  0.00  0.00    +0.000 HD
ATOM     10  H   UNL     1       7.196   5.705  20.688  0.00  0.00    +0.000 HD
ENDROOT
BRANCH   7  11
ATOM     11  C   UNL     1       3.933   3.771  18.064  0.00  0.00    +0.000 A 
ATOM     12  C   UNL     1       3.783   2.420  18.436  0.00  0.00    +0.000 A 
ATOM     13  C   UNL     1       2.521   1.836  18.604  0.00  0.00    +0.000 A 
ATOM     14  C   UNL     1       1.372   2.606  18.470  0.00  0.00    +0.000 A 
ATOM     15  C   UNL     1       1.488   3.961  18.178  0.00  0.00    +0.000 A 
ATOM     16  C   UNL     1       2.750   4.527  17.973  0.00  0.00    +0.000 A 
ATOM     17  F   UNL     1       2.792   5.832  17.656  0.00  0.00    +0.000 F 
ENDBRANCH   7  11
BRANCH   4  18
ATOM     18  O   UNL     1       7.702   5.511  15.396  0.00  0.00    +0.000 OA
ATOM     19  H   UNL     1       6.957   5.766  14.823  0.00  0.00    +0.000 HD
ENDBRANCH   4  18
TORSDOF 2
ENDMDL
MODEL 4
REMARK VINA RESULT:      -7.0      2.012      2.350
REMARK  Name = 
REMARK  2 active torsions:
REMARK  status: ('A' for Active; 'I' for Inactive)
REMARK    1  A    between atoms: C_4  and  O_5
REMARK    2  A    between atoms: C_8  and  C_9
REMARK                            x       y       z     vdW  Elec       q    Type
REMARK                         _______ _______ _______ _____ _____    ______ ____
ROOT
ATOM      1  N   UNL     1       8.397   5.520  20.379  0.00  0.00    +0.000 N 
ATOM      2  C   UNL     1       7.478   5.091  19.446  0.00  0.00    +0.000 A 
ATOM      3  N   UNL     1       7.905   4.934  18.196  0.00  0.00    +0.000 NA
ATOM      4  C   UNL     1       6.956   4.615  17.309  0.00  0.00    +0.000 A 
ATOM      5  C   UNL     1       5.612   4.462  17.578  0.00  0.00    +0.000 A 
ATOM      6 BR   UNL     1       4.403   4.158  16.152  0.00  0.00    +0.000 Br
ATOM      7  C   UNL     1       5.271   4.611  18.915  0.00  0.00    +0.000 A 
ATOM      8  N   UNL     1       6.213   4.929  19.842  0.00  0.00    +0.000 NA
ATOM      9  H   UNL     1       9.151   6.014  19.920  0.00  0.00    +0.000 HD
ATOM     10  H   UNL     1       7.917   6.013  21.120  0.00  0.00    +0.000 HD
ENDROOT
BRANCH   7  11
ATOM     11  C   UNL     1       3.901   4.458  19.470  0.00  0.00    +0.000 A 
ATOM     12  C   UNL     1       3.085   5.565  19.779  0.00  0.00    +0.000 A 
ATOM     13  C   UNL     1       1.827   5.412  20.375  0.00  0.00    +0.000 A 
ATOM     14  C   UNL     1       1.318   4.141  20.618  0.00  0.00    +0.000 A 
ATOM     15  C   UNL     1       2.067   3.026  20.254  0.00  0.00    +0.000 A 
ATOM     16  C   UNL     1       3.339   3.188  19.696  0.00  0.00    +0.000 A 
ATOM     17  F   UNL     1       4.025   2.072  19.402  0.00  0.00    +0.000 F 
ENDBRANCH   7  11
BRANCH   4  18
ATOM     18  O   UNL     1       7.461   4.456  16.054  0.00  0.00    +0.000 OA
ATOM     19  H   UNL     1       6.745   4.843  15.518  0.00  0.00    +0.000 HD
ENDBRANCH   4  18
TORSDOF 2
ENDMDL
MODEL 5
REMARK VINA RESULT:      -6.9      3.179      5.134
REMARK  Name = 
REMARK  2 active torsions:
REMARK  status: ('A' for Active; 'I' for Inactive)
REMARK    1  A    between atoms: C_4  and  O_5
REMARK    2  A    between atoms: C_8  and  C_9
REMARK                            x       y       z     vdW  Elec       q    Type
REMARK                         _______ _______ _______ _____ _____    ______ ____
ROOT
ATOM      1  N   UNL     1       3.805   0.886  18.480  0.00  0.00    +0.000 N 
ATOM      2  C   UNL     1       3.593   2.203  18.828  0.00  0.00    +0.000 A 
ATOM      3  N   UNL     1       2.408   2.515  19.346  0.00  0.00    +0.000 NA
ATOM      4  C   UNL     1       2.213   3.818  19.573  0.00  0.00    +0.000 A 
ATOM      5  C   UNL     1       3.110   4.831  19.302  0.00  0.00    +0.000 A 
ATOM      6 BR   UNL     1       2.585   6.634  19.554  0.00  0.00    +0.000 Br
ATOM      7  C   UNL     1       4.329   4.403  18.797  0.00  0.00    +0.000 A 
ATOM      8  N   UNL     1       4.560   3.084  18.561  0.00  0.00    +0.000 NA
ATOM      9  H   UNL     1       2.920   0.427  18.311  0.00  0.00    +0.000 HD
ATOM     10  H   UNL     1       4.488   0.843  17.736  0.00  0.00    +0.000 HD
ENDROOT
BRANCH   7  11
ATOM     11  C   UNL     1       5.474   5.289  18.461  0.00  0.00    +0.000 A 
ATOM     12  C   UNL     1       6.659   5.310  19.222  0.00  0.00    +0.000 A 
ATOM     13  C   UNL     1       7.700   6.205  18.945  0.00  0.00    +0.000 A 
ATOM     14  C   UNL     1       7.613   7.061  17.853  0.00  0.00    +0.000 A 
ATOM     15  C   UNL     1       6.488   7.012  17.036  0.00  0.00    +0.000 A 
ATOM     16  C   UNL     1       5.436   6.143  17.344  0.00  0.00    +0.000 A 
ATOM     17  F   UNL     1       4.363   6.172  16.537  0.00  0.00    +0.000 F 
ENDBRANCH   7  11
BRANCH   4  18
ATOM     18  O   UNL     1       0.988   4.067  20.114  0.00  0.00    +0.000 OA
ATOM     19  H   UNL     1       0.408   3.853  19.361  0.00  0.00    +0.000 HD
ENDBRANCH   4  18
TORSDOF 2
ENDMDL
MODEL 6
REMARK VINA RESULT:      -6.9      2.680      3.120
REMARK  Name = 
REMARK  2 active torsions:
REMARK  status: ('A' for Active; 'I' for Inactive)
REMARK    1  A    between atoms: C_4  and  O_5
REMARK    2  A    between atoms: C_8  and  C_9
REMARK                            x       y       z     vdW  Elec       q    Type
REMARK                         _______ _______ _______ _____ _____    ______ ____
ROOT
ATOM      1  N   UNL     1       6.356   3.744  13.436  0.00  0.00    +0.000 N 
ATOM      2  C   UNL     1       6.161   4.275  14.693  0.00  0.00    +0.000 A 
ATOM      3  N   UNL     1       7.064   5.146  15.135  0.00  0.00    +0.000 NA
ATOM      4  C   UNL     1       6.887   5.555  16.396  0.00  0.00    +0.000 A 
ATOM      5  C   UNL     1       5.885   5.142  17.250  0.00  0.00    +0.000 A 
ATOM      6 BR   UNL     1       5.897   5.724  19.053  0.00  0.00    +0.000 Br
ATOM      7  C   UNL     1       4.974   4.260  16.687  0.00  0.00    +0.000 A 
ATOM      8  N   UNL     1       5.123   3.831  15.405  0.00  0.00    +0.000 NA
ATOM      9  H   UNL     1       7.335   3.794  13.188  0.00  0.00    +0.000 HD
ATOM     10  H   UNL     1       5.922   2.832  13.387  0.00  0.00    +0.000 HD
ENDROOT
BRANCH   7  11
ATOM     11  C   UNL     1       3.787   3.699  17.382  0.00  0.00    +0.000 A 
ATOM     12  C   UNL     1       3.701   2.342  17.750  0.00  0.00    +0.000 A 
ATOM     13  C   UNL     1       2.546   1.806  18.333  0.00  0.00    +0.000 A 
ATOM     14  C   UNL     1       1.465   2.629  18.626  0.00  0.00    +0.000 A 
ATOM     15  C   UNL     1       1.547   3.988  18.345  0.00  0.00    +0.000 A 
ATOM     16  C   UNL     1       2.688   4.508  17.726  0.00  0.00    +0.000 A 
ATOM     17  F   UNL     1       2.689   5.822  17.447  0.00  0.00    +0.000 F 
ENDBRANCH   7  11
BRANCH   4  18
ATOM     18  O   UNL     1       7.836   6.454  16.781  0.00  0.00    +0.000 OA
ATOM     19  H   UNL     1       7.991   6.927  15.942  0.00  0.00    +0.000 HD
ENDBRANCH   4  18
TORSDOF 2
ENDMDL
MODEL 7
REMARK VINA RESULT:      -6.9      3.685      5.136
REMARK  Name = 
REMARK  2 active torsions:
REMARK  status: ('A' for Active; 'I' for Inactive)
REMARK    1  A    between atoms: C_4  and  O_5
REMARK    2  A    between atoms: C_8  and  C_9
REMARK                            x       y       z     vdW  Elec       q    Type
REMARK                         _______ _______ _______ _____ _____    ______ ____
ROOT
ATOM      1  N   UNL     1       1.968   7.280  20.700  0.00  0.00    +0.000 N 
ATOM      2  C   UNL     1       2.185   6.048  20.123  0.00  0.00    +0.000 A 
ATOM      3  N   UNL     1       1.365   5.059  20.468  0.00  0.00    +0.000 NA
ATOM      4  C   UNL     1       1.676   3.861  19.962  0.00  0.00    +0.000 A 
ATOM      5  C   UNL     1       2.757   3.579  19.152  0.00  0.00    +0.000 A 
ATOM      6 BR   UNL     1       3.112   1.784  18.662  0.00  0.00    +0.000 Br
ATOM      7  C   UNL     1       3.532   4.680  18.819  0.00  0.00    +0.000 A 
ATOM      8  N   UNL     1       3.238   5.913  19.313  0.00  0.00    +0.000 NA
ATOM      9  H   UNL     1       1.472   7.170  21.575  0.00  0.00    +0.000 HD
ATOM     10  H   UNL     1       2.840   7.792  20.735  0.00  0.00    +0.000 HD
ENDROOT
BRANCH   7  11
ATOM     11  C   UNL     1       4.724   4.650  17.933  0.00  0.00    +0.000 A 
ATOM     12  C   UNL     1       4.625   4.430  16.544  0.00  0.00    +0.000 A 
ATOM     13  C   UNL     1       5.760   4.325  15.730  0.00  0.00    +0.000 A 
ATOM     14  C   UNL     1       7.027   4.504  16.271  0.00  0.00    +0.000 A 
ATOM     15  C   UNL     1       7.155   4.798  17.625  0.00  0.00    +0.000 A 
ATOM     16  C   UNL     1       6.020   4.862  18.438  0.00  0.00    +0.000 A 
ATOM     17  F   UNL     1       6.214   5.112  19.743  0.00  0.00    +0.000 F 
ENDBRANCH   7  11
BRANCH   4  18
ATOM     18  O   UNL     1       0.791   2.898  20.343  0.00  0.00    +0.000 OA
ATOM     19  H   UNL     1       0.582   2.491  19.482  0.00  0.00    +0.000 HD
ENDBRANCH   4  18
TORSDOF 2
ENDMDL
MODEL 8
REMARK VINA RESULT:      -6.9      1.987      2.172
REMARK  Name = 
REMARK  2 active torsions:
REMARK  status: ('A' for Active; 'I' for Inactive)
REMARK    1  A    between atoms: C_4  and  O_5
REMARK    2  A    between atoms: C_8  and  C_9
REMARK                            x       y       z     vdW  Elec       q    Type
REMARK                         _______ _______ _______ _____ _____    ______ ____
ROOT
ATOM      1  N   UNL     1       7.816   5.512  20.057  0.00  0.00    +0.000 N 
ATOM      2  C   UNL     1       7.180   5.036  18.931  0.00  0.00    +0.000 A 
ATOM      3  N   UNL     1       7.848   5.091  17.782  0.00  0.00    +0.000 NA
ATOM      4  C   UNL     1       7.154   4.712  16.704  0.00  0.00    +0.000 A 
ATOM      5  C   UNL     1       5.837   4.302  16.690  0.00  0.00    +0.000 A 
ATOM      6 BR   UNL     1       4.986   3.953  15.034  0.00  0.00    +0.000 Br
ATOM      7  C   UNL     1       5.237   4.246  17.939  0.00  0.00    +0.000 A 
ATOM      8  N   UNL     1       5.918   4.617  19.056  0.00  0.00    +0.000 NA
ATOM      9  H   UNL     1       8.534   6.175  19.794  0.00  0.00    +0.000 HD
ATOM     10  H   UNL     1       7.125   5.833  20.722  0.00  0.00    +0.000 HD
ENDROOT
BRANCH   7  11
ATOM     11  C   UNL     1       3.843   3.801  18.199  0.00  0.00    +0.000 A 
ATOM     12  C   UNL     1       2.724   4.513  17.724  0.00  0.00    +0.000 A 
ATOM     13  C   UNL     1       1.415   4.130  18.040  0.00  0.00    +0.000 A 
ATOM     14  C   UNL     1       1.185   2.981  18.787  0.00  0.00    +0.000 A 
ATOM     15  C   UNL     1       2.266   2.212  19.207  0.00  0.00    +0.000 A 
ATOM     16  C   UNL     1       3.571   2.624  18.921  0.00  0.00    +0.000 A 
ATOM     17  F   UNL     1       4.571   1.859  19.387  0.00  0.00    +0.000 F 
ENDBRANCH   7  11
BRANCH   4  18
ATOM     18  O   UNL     1       7.900   4.779  15.565  0.00  0.00    +0.000 OA
ATOM     19  H   UNL     1       7.782   5.716  15.324  0.00  0.00    +0.000 HD
ENDBRANCH   4  18
TORSDOF 2
ENDMDL
MODEL 9
REMARK VINA RESULT:      -6.9      1.629      1.678
REMARK  Name = 
REMARK  2 active torsions:
REMARK  status: ('A' for Active; 'I' for Inactive)
REMARK    1  A    between atoms: C_4  and  O_5
REMARK    2  A    between atoms: C_8  and  C_9
REMARK                            x       y       z     vdW  Elec       q    Type
REMARK                         _______ _______ _______ _____ _____    ______ ____
ROOT
ATOM      1  N   UNL     1       8.421   5.505  20.232  0.00  0.00    +0.000 N 
ATOM      2  C   UNL     1       7.515   5.084  19.282  0.00  0.00    +0.000 A 
ATOM      3  N   UNL     1       7.918   5.074  18.015  0.00  0.00    +0.000 NA
ATOM      4  C   UNL     1       6.976   4.756  17.122  0.00  0.00    +0.000 A 
ATOM      5  C   UNL     1       5.656   4.466  17.403  0.00  0.00    +0.000 A 
ATOM      6 BR   UNL     1       4.437   4.188  15.980  0.00  0.00    +0.000 Br
ATOM      7  C   UNL     1       5.341   4.468  18.754  0.00  0.00    +0.000 A 
ATOM      8  N   UNL     1       6.279   4.781  19.687  0.00  0.00    +0.000 NA
ATOM      9  H   UNL     1       9.118   6.099  19.804  0.00  0.00    +0.000 HD
ATOM     10  H   UNL     1       7.922   5.888  21.023  0.00  0.00    +0.000 HD
ENDROOT
BRANCH   7  11
ATOM     11  C   UNL     1       4.004   4.151  19.320  0.00  0.00    +0.000 A 
ATOM     12  C   UNL     1       3.623   2.838  19.664  0.00  0.00    +0.000 A 
ATOM     13  C   UNL     1       2.334   2.539  20.122  0.00  0.00    +0.000 A 
ATOM     14  C   UNL     1       1.407   3.556  20.314  0.00  0.00    +0.000 A 
ATOM     15  C   UNL     1       1.776   4.873  20.057  0.00  0.00    +0.000 A 
ATOM     16  C   UNL     1       3.052   5.159  19.562  0.00  0.00    +0.000 A 
ATOM     17  F   UNL     1       3.333   6.445  19.299  0.00  0.00    +0.000 F 
ENDBRANCH   7  11
BRANCH   4  18
ATOM     18  O   UNL     1       7.457   4.751  15.847  0.00  0.00    +0.000 OA
ATOM     19  H   UNL     1       6.879   5.415  15.431  0.00  0.00    +0.000 HD
ENDBRANCH   4  18
TORSDOF 2
ENDMDL
