MODEL 1
REMARK VINA RESULT:      -8.6      0.000      0.000
REMARK  Name = 
REMARK  7 active torsions:
REMARK  status: ('A' for Active; 'I' for Inactive)
REMARK    1  A    between atoms: C_2  and  C_20
REMARK    2  A    between atoms: N_3  and  C_4
REMARK    3  A    between atoms: C_4  and  C_5
REMARK    4  A    between atoms: C_5  and  C_6
REMARK    5  A    between atoms: N_11  and  S_12
REMARK    6  A    between atoms: S_12  and  C_15
REMARK    7  A    between atoms: N_22  and  C_23
REMARK                            x       y       z     vdW  Elec       q    Type
REMARK                         _______ _______ _______ _____ _____    ______ ____
ROOT
ATOM      1  O   UNL     1       7.833   7.759  16.841  0.00  0.00    +0.000 OA
ATOM      2  C   UNL     1       8.119   8.121  17.975  0.00  0.00    +0.000 C 
ATOM      3  N   UNL     1       8.217   7.327  19.096  0.00  0.00    +0.000 N 
ATOM      4  H   UNL     1       8.613   7.771  19.923  0.00  0.00    +0.000 HD
ENDROOT
BRANCH   2   5
ATOM      5  C   UNL     1       8.437   9.600  18.241  0.00  0.00    +0.000 C 
ATOM      6  O   UNL     1       7.954  10.440  17.493  0.00  0.00    +0.000 OA
ATOM      7  N   UNL     1       9.280   9.779  19.317  0.00  0.00    +0.000 N 
ATOM      8  H   UNL     1       9.648   8.925  19.738  0.00  0.00    +0.000 HD
BRANCH   7   9
ATOM      9  C   UNL     1       9.772  11.009  19.792  0.00  0.00    +0.000 A 
ATOM     10  C   UNL     1       9.358  11.573  21.002  0.00  0.00    +0.000 A 
ATOM     11  C   UNL     1       9.834  12.825  21.393  0.00  0.00    +0.000 A 
ATOM     12  C   UNL     1      10.727  13.509  20.577  0.00  0.00    +0.000 A 
ATOM     13  F   UNL     1      11.154  14.722  20.947  0.00  0.00    +0.000 F 
ATOM     14  C   UNL     1      11.178  12.954  19.388  0.00  0.00    +0.000 A 
ATOM     15  C   UNL     1      10.707  11.701  19.010  0.00  0.00    +0.000 A 
ATOM     16  F   UNL     1      11.136  11.170  17.856  0.00  0.00    +0.000 F 
ENDBRANCH   7   9
ENDBRANCH   2   5
BRANCH   3  17
ATOM     17  C   UNL     1       8.124   5.894  18.994  0.00  0.00    +0.000 C 
BRANCH  17  18
ATOM     18  C   UNL     1       6.704   5.382  19.218  0.00  0.00    +0.000 C 
BRANCH  18  19
ATOM     19  C   UNL     1       6.103   4.701  17.971  0.00  0.00    +0.000 C 
ATOM     20  C   UNL     1       7.208   4.554  16.902  0.00  0.00    +0.000 C 
ATOM     21  C   UNL     1       6.710   3.875  15.638  0.00  0.00    +0.000 C 
ATOM     22  C   UNL     1       5.508   4.629  15.096  0.00  0.00    +0.000 C 
ATOM     23  C   UNL     1       4.413   4.730  16.150  0.00  0.00    +0.000 C 
ATOM     24  N   UNL     1       4.911   5.438  17.378  0.00  0.00    +0.000 NA
BRANCH  24  25
ATOM     25  S   UNL     1       3.618   5.723  18.503  0.00  0.00    +0.000 S 
ATOM     26  O   UNL     1       4.233   5.882  19.811  0.00  0.00    +0.000 OA
ATOM     27  O   UNL     1       2.725   6.730  17.976  0.00  0.00    +0.000 OA
BRANCH  25  28
ATOM     28  C   UNL     1       2.613   4.262  18.667  0.00  0.00    +0.000 A 
ATOM     29  C   UNL     1       1.392   3.920  18.115  0.00  0.00    +0.000 A 
ATOM     30  C   UNL     1       0.969   2.615  18.496  0.00  0.00    +0.000 A 
ATOM     31  C   UNL     1       1.882   2.003  19.324  0.00  0.00    +0.000 A 
ATOM     32  S   UNL     1       3.230   3.009  19.654  0.00  0.00    +0.000 S 
ENDBRANCH  25  28
ENDBRANCH  24  25
ENDBRANCH  18  19
ENDBRANCH  17  18
ENDBRANCH   3  17
TORSDOF 7
ENDMDL
MODEL 2
REMARK VINA RESULT:      -8.4      0.851      1.225
REMARK  Name = 
REMARK  7 active torsions:
REMARK  status: ('A' for Active; 'I' for Inactive)
REMARK    1  A    between atoms: C_2  and  C_20
REMARK    2  A    between atoms: N_3  and  C_4
REMARK    3  A    between atoms: C_4  and  C_5
REMARK    4  A    between atoms: C_5  and  C_6
REMARK    5  A    between atoms: N_11  and  S_12
REMARK    6  A    between atoms: S_12  and  C_15
REMARK    7  A    between atoms: N_22  and  C_23
REMARK                            x       y       z     vdW  Elec       q    Type
REMARK                         _______ _______ _______ _____ _____    ______ ____
ROOT
ATOM      1  O   UNL     1       7.224   7.809  16.962  0.00  0.00    +0.000 OA
ATOM      2  C   UNL     1       7.885   8.147  17.936  0.00  0.00    +0.000 C 
ATOM      3  N   UNL     1       8.333   7.334  18.953  0.00  0.00    +0.000 N 
ATOM      4  H   UNL     1       8.996   7.755  19.601  0.00  0.00    +0.000 HD
ENDROOT
BRANCH   2   5
ATOM      5  C   UNL     1       8.315   9.613  18.089  0.00  0.00    +0.000 C 
ATOM      6  O   UNL     1       7.753  10.456  17.402  0.00  0.00    +0.000 OA
ATOM      7  N   UNL     1       9.338   9.777  18.998  0.00  0.00    +0.000 N 
ATOM      8  H   UNL     1       9.731   8.917  19.382  0.00  0.00    +0.000 HD
BRANCH   7   9
ATOM      9  C   UNL     1       9.963  10.992  19.336  0.00  0.00    +0.000 A 
ATOM     10  C   UNL     1      10.934  11.593  18.530  0.00  0.00    +0.000 A 
ATOM     11  C   UNL     1      11.565  12.766  18.946  0.00  0.00    +0.000 A 
ATOM     12  C   UNL     1      11.222  13.338  20.166  0.00  0.00    +0.000 A 
ATOM     13  F   UNL     1      11.855  14.446  20.569  0.00  0.00    +0.000 F 
ATOM     14  C   UNL     1      10.238  12.778  20.967  0.00  0.00    +0.000 A 
ATOM     15  C   UNL     1       9.606  11.615  20.540  0.00  0.00    +0.000 A 
ATOM     16  F   UNL     1       8.662  11.068  21.319  0.00  0.00    +0.000 F 
ENDBRANCH   7   9
ENDBRANCH   2   5
BRANCH   3  17
ATOM     17  C   UNL     1       8.171   5.905  18.880  0.00  0.00    +0.000 C 
BRANCH  17  18
ATOM     18  C   UNL     1       6.731   5.464  19.133  0.00  0.00    +0.000 C 
BRANCH  18  19
ATOM     19  C   UNL     1       6.117   4.692  17.947  0.00  0.00    +0.000 C 
ATOM     20  C   UNL     1       7.187   4.542  16.844  0.00  0.00    +0.000 C 
ATOM     21  C   UNL     1       6.677   3.775  15.636  0.00  0.00    +0.000 C 
ATOM     22  C   UNL     1       5.419   4.443  15.105  0.00  0.00    +0.000 C 
ATOM     23  C   UNL     1       4.361   4.547  16.195  0.00  0.00    +0.000 C 
ATOM     24  N   UNL     1       4.870   5.341  17.365  0.00  0.00    +0.000 NA
BRANCH  24  25
ATOM     25  S   UNL     1       3.607   5.624  18.526  0.00  0.00    +0.000 S 
ATOM     26  O   UNL     1       4.257   5.778  19.817  0.00  0.00    +0.000 OA
ATOM     27  O   UNL     1       2.702   6.632  18.026  0.00  0.00    +0.000 OA
BRANCH  25  28
ATOM     28  C   UNL     1       2.606   4.163  18.712  0.00  0.00    +0.000 A 
ATOM     29  C   UNL     1       1.371   3.823  18.191  0.00  0.00    +0.000 A 
ATOM     30  C   UNL     1       0.957   2.518  18.580  0.00  0.00    +0.000 A 
ATOM     31  C   UNL     1       1.891   1.903  19.384  0.00  0.00    +0.000 A 
ATOM     32  S   UNL     1       3.247   2.907  19.680  0.00  0.00    +0.000 S 
ENDBRANCH  25  28
ENDBRANCH  24  25
ENDBRANCH  18  19
ENDBRANCH  17  18
ENDBRANCH   3  17
TORSDOF 7
ENDMDL
MODEL 3
REMARK VINA RESULT:      -8.3      2.087      2.481
REMARK  Name = 
REMARK  7 active torsions:
REMARK  status: ('A' for Active; 'I' for Inactive)
REMARK    1  A    between atoms: C_2  and  C_20
REMARK    2  A    between atoms: N_3  and  C_4
REMARK    3  A    between atoms: C_4  and  C_5
REMARK    4  A    between atoms: C_5  and  C_6
REMARK    5  A    between atoms: N_11  and  S_12
REMARK    6  A    between atoms: S_12  and  C_15
REMARK    7  A    between atoms: N_22  and  C_23
REMARK                            x       y       z     vdW  Elec       q    Type
REMARK                         _______ _______ _______ _____ _____    ______ ____
ROOT
ATOM      1  O   UNL     1       7.910   8.427  17.123  0.00  0.00    +0.000 OA
ATOM      2  C   UNL     1       8.391   8.479  18.248  0.00  0.00    +0.000 C 
ATOM      3  N   UNL     1       8.487   7.447  19.155  0.00  0.00    +0.000 N 
ATOM      4  H   UNL     1       9.052   7.631  19.982  0.00  0.00    +0.000 HD
ENDROOT
BRANCH   2   5
ATOM      5  C   UNL     1       8.992   9.798  18.755  0.00  0.00    +0.000 C 
ATOM      6  O   UNL     1       8.955  10.027  19.957  0.00  0.00    +0.000 OA
ATOM      7  N   UNL     1       9.486  10.586  17.738  0.00  0.00    +0.000 N 
ATOM      8  H   UNL     1       9.317  10.243  16.791  0.00  0.00    +0.000 HD
BRANCH   7   9
ATOM      9  C   UNL     1      10.073  11.857  17.880  0.00  0.00    +0.000 A 
ATOM     10  C   UNL     1      11.422  12.037  18.194  0.00  0.00    +0.000 A 
ATOM     11  C   UNL     1      11.935  13.321  18.384  0.00  0.00    +0.000 A 
ATOM     12  C   UNL     1      11.099  14.424  18.254  0.00  0.00    +0.000 A 
ATOM     13  F   UNL     1      11.593  15.649  18.467  0.00  0.00    +0.000 F 
ATOM     14  C   UNL     1       9.764  14.271  17.909  0.00  0.00    +0.000 A 
ATOM     15  C   UNL     1       9.263  12.989  17.711  0.00  0.00    +0.000 A 
ATOM     16  F   UNL     1       7.970  12.842  17.388  0.00  0.00    +0.000 F 
ENDBRANCH   7   9
ENDBRANCH   2   5
BRANCH   3  17
ATOM     17  C   UNL     1       8.133   6.102  18.780  0.00  0.00    +0.000 C 
BRANCH  17  18
ATOM     18  C   UNL     1       6.672   5.977  18.356  0.00  0.00    +0.000 C 
BRANCH  18  19
ATOM     19  C   UNL     1       6.458   4.957  17.218  0.00  0.00    +0.000 C 
ATOM     20  C   UNL     1       7.028   5.545  15.909  0.00  0.00    +0.000 C 
ATOM     21  C   UNL     1       6.877   4.599  14.730  0.00  0.00    +0.000 C 
ATOM     22  C   UNL     1       5.417   4.209  14.576  0.00  0.00    +0.000 C 
ATOM     23  C   UNL     1       4.883   3.594  15.864  0.00  0.00    +0.000 C 
ATOM     24  N   UNL     1       5.005   4.558  17.010  0.00  0.00    +0.000 NA
BRANCH  24  25
ATOM     25  S   UNL     1       4.227   3.936  18.435  0.00  0.00    +0.000 S 
ATOM     26  O   UNL     1       3.249   2.960  17.982  0.00  0.00    +0.000 OA
ATOM     27  O   UNL     1       5.223   3.585  19.421  0.00  0.00    +0.000 OA
BRANCH  25  28
ATOM     28  C   UNL     1       3.249   5.208  19.206  0.00  0.00    +0.000 A 
ATOM     29  C   UNL     1       3.068   6.543  18.894  0.00  0.00    +0.000 A 
ATOM     30  C   UNL     1       2.154   7.189  19.775  0.00  0.00    +0.000 A 
ATOM     31  C   UNL     1       1.667   6.324  20.729  0.00  0.00    +0.000 A 
ATOM     32  S   UNL     1       2.326   4.751  20.571  0.00  0.00    +0.000 S 
ENDBRANCH  25  28
ENDBRANCH  24  25
ENDBRANCH  18  19
ENDBRANCH  17  18
ENDBRANCH   3  17
TORSDOF 7
ENDMDL
MODEL 4
REMARK VINA RESULT:      -8.2      5.967      8.016
REMARK  Name = 
REMARK  7 active torsions:
REMARK  status: ('A' for Active; 'I' for Inactive)
REMARK    1  A    between atoms: C_2  and  C_20
REMARK    2  A    between atoms: N_3  and  C_4
REMARK    3  A    between atoms: C_4  and  C_5
REMARK    4  A    between atoms: C_5  and  C_6
REMARK    5  A    between atoms: N_11  and  S_12
REMARK    6  A    between atoms: S_12  and  C_15
REMARK    7  A    between atoms: N_22  and  C_23
REMARK                            x       y       z     vdW  Elec       q    Type
REMARK                         _______ _______ _______ _____ _____    ______ ____
ROOT
ATOM      1  O   UNL     1       2.367   8.931  17.266  0.00  0.00    +0.000 OA
ATOM      2  C   UNL     1       1.908   8.947  18.400  0.00  0.00    +0.000 C 
ATOM      3  N   UNL     1       1.977   7.938  19.335  0.00  0.00    +0.000 N 
ATOM      4  H   UNL     1       1.674   8.180  20.276  0.00  0.00    +0.000 HD
ENDROOT
BRANCH   2   5
ATOM      5  C   UNL     1       1.187  10.204  18.909  0.00  0.00    +0.000 C 
ATOM      6  O   UNL     1       1.627  11.297  18.579  0.00  0.00    +0.000 OA
ATOM      7  N   UNL     1       0.114   9.911  19.724  0.00  0.00    +0.000 N 
ATOM      8  H   UNL     1      -0.012   8.924  19.953  0.00  0.00    +0.000 HD
BRANCH   7   9
ATOM      9  C   UNL     1      -0.725  10.844  20.363  0.00  0.00    +0.000 A 
ATOM     10  C   UNL     1      -1.703  11.572  19.681  0.00  0.00    +0.000 A 
ATOM     11  C   UNL     1      -2.464  12.529  20.353  0.00  0.00    +0.000 A 
ATOM     12  C   UNL     1      -2.249  12.753  21.708  0.00  0.00    +0.000 A 
ATOM     13  F   UNL     1      -2.963  13.693  22.337  0.00  0.00    +0.000 F 
ATOM     14  C   UNL     1      -1.307  12.019  22.413  0.00  0.00    +0.000 A 
ATOM     15  C   UNL     1      -0.560  11.059  21.738  0.00  0.00    +0.000 A 
ATOM     16  F   UNL     1       0.358  10.357  22.418  0.00  0.00    +0.000 F 
ENDBRANCH   7   9
ENDBRANCH   2   5
BRANCH   3  17
ATOM     17  C   UNL     1       2.767   6.759  19.088  0.00  0.00    +0.000 C 
BRANCH  17  18
ATOM     18  C   UNL     1       1.974   5.657  18.390  0.00  0.00    +0.000 C 
BRANCH  18  19
ATOM     19  C   UNL     1       1.863   4.368  19.228  0.00  0.00    +0.000 C 
ATOM     20  C   UNL     1       1.643   4.753  20.707  0.00  0.00    +0.000 C 
ATOM     21  C   UNL     1       1.503   3.540  21.612  0.00  0.00    +0.000 C 
ATOM     22  C   UNL     1       2.717   2.640  21.445  0.00  0.00    +0.000 C 
ATOM     23  C   UNL     1       2.895   2.238  19.986  0.00  0.00    +0.000 C 
ATOM     24  N   UNL     1       3.069   3.448  19.112  0.00  0.00    +0.000 NA
BRANCH  24  25
ATOM     25  S   UNL     1       3.461   2.990  17.482  0.00  0.00    +0.000 S 
ATOM     26  O   UNL     1       3.961   1.626  17.542  0.00  0.00    +0.000 OA
ATOM     27  O   UNL     1       2.372   3.343  16.601  0.00  0.00    +0.000 OA
BRANCH  25  28
ATOM     28  C   UNL     1       4.849   3.939  16.894  0.00  0.00    +0.000 A 
ATOM     29  C   UNL     1       5.312   4.195  15.616  0.00  0.00    +0.000 A 
ATOM     30  C   UNL     1       6.452   5.048  15.612  0.00  0.00    +0.000 A 
ATOM     31  C   UNL     1       6.820   5.417  16.886  0.00  0.00    +0.000 A 
ATOM     32  S   UNL     1       5.806   4.719  18.078  0.00  0.00    +0.000 S 
ENDBRANCH  25  28
ENDBRANCH  24  25
ENDBRANCH  18  19
ENDBRANCH  17  18
ENDBRANCH   3  17
TORSDOF 7
ENDMDL
MODEL 5
REMARK VINA RESULT:      -8.2      6.414      8.482
REMARK  Name = 
REMARK  7 active torsions:
REMARK  status: ('A' for Active; 'I' for Inactive)
REMARK    1  A    between atoms: C_2  and  C_20
REMARK    2  A    between atoms: N_3  and  C_4
REMARK    3  A    between atoms: C_4  and  C_5
REMARK    4  A    between atoms: C_5  and  C_6
REMARK    5  A    between atoms: N_11  and  S_12
REMARK    6  A    between atoms: S_12  and  C_15
REMARK    7  A    between atoms: N_22  and  C_23
REMARK                            x       y       z     vdW  Elec       q    Type
REMARK                         _______ _______ _______ _____ _____    ______ ____
ROOT
ATOM      1  O   UNL     1       2.755  10.679  17.657  0.00  0.00    +0.000 OA
ATOM      2  C   UNL     1       1.775  10.006  17.952  0.00  0.00    +0.000 C 
ATOM      3  N   UNL     1       1.677   8.633  17.925  0.00  0.00    +0.000 N 
ATOM      4  H   UNL     1       0.839   8.238  18.348  0.00  0.00    +0.000 HD
ENDROOT
BRANCH   2   5
ATOM      5  C   UNL     1       0.495  10.703  18.436  0.00  0.00    +0.000 C 
ATOM      6  O   UNL     1       0.579  11.477  19.380  0.00  0.00    +0.000 OA
ATOM      7  N   UNL     1      -0.622  10.321  17.725  0.00  0.00    +0.000 N 
ATOM      8  H   UNL     1      -0.478   9.577  17.041  0.00  0.00    +0.000 HD
BRANCH   7   9
ATOM      9  C   UNL     1      -1.940  10.761  17.946  0.00  0.00    +0.000 A 
ATOM     10  C   UNL     1      -2.272  11.684  18.942  0.00  0.00    +0.000 A 
ATOM     11  C   UNL     1      -3.605  12.037  19.157  0.00  0.00    +0.000 A 
ATOM     12  C   UNL     1      -4.604  11.472  18.372  0.00  0.00    +0.000 A 
ATOM     13  F   UNL     1      -5.881  11.795  18.606  0.00  0.00    +0.000 F 
ATOM     14  C   UNL     1      -4.295  10.580  17.356  0.00  0.00    +0.000 A 
ATOM     15  C   UNL     1      -2.963  10.241  17.141  0.00  0.00    +0.000 A 
ATOM     16  F   UNL     1      -2.666   9.371  16.165  0.00  0.00    +0.000 F 
ENDBRANCH   7   9
ENDBRANCH   2   5
BRANCH   3  17
ATOM     17  C   UNL     1       2.834   7.817  17.665  0.00  0.00    +0.000 C 
BRANCH  17  18
ATOM     18  C   UNL     1       2.879   6.567  18.541  0.00  0.00    +0.000 C 
BRANCH  18  19
ATOM     19  C   UNL     1       4.033   5.612  18.174  0.00  0.00    +0.000 C 
ATOM     20  C   UNL     1       5.226   6.447  17.660  0.00  0.00    +0.000 C 
ATOM     21  C   UNL     1       6.423   5.588  17.289  0.00  0.00    +0.000 C 
ATOM     22  C   UNL     1       5.999   4.539  16.274  0.00  0.00    +0.000 C 
ATOM     23  C   UNL     1       4.848   3.699  16.813  0.00  0.00    +0.000 C 
ATOM     24  N   UNL     1       3.660   4.561  17.139  0.00  0.00    +0.000 NA
BRANCH  24  25
ATOM     25  S   UNL     1       2.285   3.590  17.574  0.00  0.00    +0.000 S 
ATOM     26  O   UNL     1       1.112   4.434  17.406  0.00  0.00    +0.000 OA
ATOM     27  O   UNL     1       2.371   2.303  16.924  0.00  0.00    +0.000 OA
BRANCH  25  28
ATOM     28  C   UNL     1       2.316   3.226  19.316  0.00  0.00    +0.000 A 
ATOM     29  C   UNL     1       3.280   2.638  20.114  0.00  0.00    +0.000 A 
ATOM     30  C   UNL     1       2.891   2.577  21.483  0.00  0.00    +0.000 A 
ATOM     31  C   UNL     1       1.643   3.123  21.684  0.00  0.00    +0.000 A 
ATOM     32  S   UNL     1       0.942   3.685  20.225  0.00  0.00    +0.000 S 
ENDBRANCH  25  28
ENDBRANCH  24  25
ENDBRANCH  18  19
ENDBRANCH  17  18
ENDBRANCH   3  17
TORSDOF 7
ENDMDL
MODEL 6
REMARK VINA RESULT:      -8.1      6.253      8.344
REMARK  Name = 
REMARK  7 active torsions:
REMARK  status: ('A' for Active; 'I' for Inactive)
REMARK    1  A    between atoms: C_2  and  C_20
REMARK    2  A    between atoms: N_3  and  C_4
REMARK    3  A    between atoms: C_4  and  C_5
REMARK    4  A    between atoms: C_5  and  C_6
REMARK    5  A    between atoms: N_11  and  S_12
REMARK    6  A    between atoms: S_12  and  C_15
REMARK    7  A    between atoms: N_22  and  C_23
REMARK                            x       y       z     vdW  Elec       q    Type
REMARK                         _______ _______ _______ _____ _____    ______ ____
ROOT
ATOM      1  O   UNL     1       2.145  10.197  17.303  0.00  0.00    +0.000 OA
ATOM      2  C   UNL     1       1.610   9.446  18.108  0.00  0.00    +0.000 C 
ATOM      3  N   UNL     1       2.082   8.227  18.541  0.00  0.00    +0.000 N 
ATOM      4  H   UNL     1       1.584   7.809  19.326  0.00  0.00    +0.000 HD
ENDROOT
BRANCH   2   5
ATOM      5  C   UNL     1       0.282   9.856  18.762  0.00  0.00    +0.000 C 
ATOM      6  O   UNL     1       0.118   9.604  19.948  0.00  0.00    +0.000 OA
ATOM      7  N   UNL     1      -0.588  10.452  17.874  0.00  0.00    +0.000 N 
ATOM      8  H   UNL     1      -0.285  10.468  16.899  0.00  0.00    +0.000 HD
BRANCH   7   9
ATOM      9  C   UNL     1      -1.887  10.912  18.163  0.00  0.00    +0.000 A 
ATOM     10  C   UNL     1      -2.148  11.876  19.141  0.00  0.00    +0.000 A 
ATOM     11  C   UNL     1      -3.462  12.248  19.428  0.00  0.00    +0.000 A 
ATOM     12  C   UNL     1      -4.513  11.659  18.734  0.00  0.00    +0.000 A 
ATOM     13  F   UNL     1      -5.770  12.001  19.038  0.00  0.00    +0.000 F 
ATOM     14  C   UNL     1      -4.276  10.725  17.737  0.00  0.00    +0.000 A 
ATOM     15  C   UNL     1      -2.963  10.367  17.449  0.00  0.00    +0.000 A 
ATOM     16  F   UNL     1      -2.735   9.457  16.491  0.00  0.00    +0.000 F 
ENDBRANCH   7   9
ENDBRANCH   2   5
BRANCH   3  17
ATOM     17  C   UNL     1       3.395   7.770  18.166  0.00  0.00    +0.000 C 
BRANCH  17  18
ATOM     18  C   UNL     1       3.356   6.472  17.363  0.00  0.00    +0.000 C 
BRANCH  18  19
ATOM     19  C   UNL     1       4.759   5.928  17.026  0.00  0.00    +0.000 C 
ATOM     20  C   UNL     1       4.987   6.049  15.503  0.00  0.00    +0.000 C 
ATOM     21  C   UNL     1       6.357   5.550  15.077  0.00  0.00    +0.000 C 
ATOM     22  C   UNL     1       6.550   4.121  15.558  0.00  0.00    +0.000 C 
ATOM     23  C   UNL     1       6.361   4.029  17.066  0.00  0.00    +0.000 C 
ATOM     24  N   UNL     1       4.987   4.489  17.465  0.00  0.00    +0.000 NA
BRANCH  24  25
ATOM     25  S   UNL     1       4.701   4.208  19.157  0.00  0.00    +0.000 S 
ATOM     26  O   UNL     1       5.399   2.979  19.498  0.00  0.00    +0.000 OA
ATOM     27  O   UNL     1       4.934   5.425  19.900  0.00  0.00    +0.000 OA
BRANCH  25  28
ATOM     28  C   UNL     1       2.984   3.827  19.434  0.00  0.00    +0.000 A 
ATOM     29  C   UNL     1       2.055   4.355  20.312  0.00  0.00    +0.000 A 
ATOM     30  C   UNL     1       0.768   3.765  20.162  0.00  0.00    +0.000 A 
ATOM     31  C   UNL     1       0.755   2.808  19.173  0.00  0.00    +0.000 A 
ATOM     32  S   UNL     1       2.295   2.612  18.446  0.00  0.00    +0.000 S 
ENDBRANCH  25  28
ENDBRANCH  24  25
ENDBRANCH  18  19
ENDBRANCH  17  18
ENDBRANCH   3  17
TORSDOF 7
ENDMDL
MODEL 7
REMARK VINA RESULT:      -8.1      1.574      1.874
REMARK  Name = 
REMARK  7 active torsions:
REMARK  status: ('A' for Active; 'I' for Inactive)
REMARK    1  A    between atoms: C_2  and  C_20
REMARK    2  A    between atoms: N_3  and  C_4
REMARK    3  A    between atoms: C_4  and  C_5
REMARK    4  A    between atoms: C_5  and  C_6
REMARK    5  A    between atoms: N_11  and  S_12
REMARK    6  A    between atoms: S_12  and  C_15
REMARK    7  A    between atoms: N_22  and  C_23
REMARK                            x       y       z     vdW  Elec       q    Type
REMARK                         _______ _______ _______ _____ _____    ______ ____
ROOT
ATOM      1  O   UNL     1       7.575   9.246  17.492  0.00  0.00    +0.000 OA
ATOM      2  C   UNL     1       8.375   9.119  18.410  0.00  0.00    +0.000 C 
ATOM      3  N   UNL     1       8.679   7.959  19.087  0.00  0.00    +0.000 N 
ATOM      4  H   UNL     1       9.477   8.007  19.718  0.00  0.00    +0.000 HD
ENDROOT
BRANCH   2   5
ATOM      5  C   UNL     1       9.177  10.337  18.891  0.00  0.00    +0.000 C 
ATOM      6  O   UNL     1       9.530  10.372  20.062  0.00  0.00    +0.000 OA
ATOM      7  N   UNL     1       9.371  11.274  17.899  0.00  0.00    +0.000 N 
ATOM      8  H   UNL     1       8.897  11.087  17.014  0.00  0.00    +0.000 HD
BRANCH   7   9
ATOM      9  C   UNL     1      10.042  12.503  18.035  0.00  0.00    +0.000 A 
ATOM     10  C   UNL     1       9.372  13.728  18.093  0.00  0.00    +0.000 A 
ATOM     11  C   UNL     1      10.093  14.921  18.166  0.00  0.00    +0.000 A 
ATOM     12  C   UNL     1      11.483  14.887  18.186  0.00  0.00    +0.000 A 
ATOM     13  F   UNL     1      12.165  16.038  18.227  0.00  0.00    +0.000 F 
ATOM     14  C   UNL     1      12.168  13.681  18.164  0.00  0.00    +0.000 A 
ATOM     15  C   UNL     1      11.443  12.497  18.102  0.00  0.00    +0.000 A 
ATOM     16  F   UNL     1      12.106  11.332  18.071  0.00  0.00    +0.000 F 
ENDBRANCH   7   9
ENDBRANCH   2   5
BRANCH   3  17
ATOM     17  C   UNL     1       8.152   6.692  18.651  0.00  0.00    +0.000 C 
BRANCH  17  18
ATOM     18  C   UNL     1       7.024   6.845  17.634  0.00  0.00    +0.000 C 
BRANCH  18  19
ATOM     19  C   UNL     1       6.699   5.534  16.889  0.00  0.00    +0.000 C 
ATOM     20  C   UNL     1       7.048   5.712  15.395  0.00  0.00    +0.000 C 
ATOM     21  C   UNL     1       6.777   4.459  14.579  0.00  0.00    +0.000 C 
ATOM     22  C   UNL     1       5.330   4.035  14.767  0.00  0.00    +0.000 C 
ATOM     23  C   UNL     1       5.015   3.826  16.242  0.00  0.00    +0.000 C 
ATOM     24  N   UNL     1       5.252   5.086  17.027  0.00  0.00    +0.000 NA
BRANCH  24  25
ATOM     25  S   UNL     1       4.716   4.909  18.671  0.00  0.00    +0.000 S 
ATOM     26  O   UNL     1       5.726   4.119  19.355  0.00  0.00    +0.000 OA
ATOM     27  O   UNL     1       4.300   6.192  19.189  0.00  0.00    +0.000 OA
BRANCH  25  28
ATOM     28  C   UNL     1       3.252   3.896  18.733  0.00  0.00    +0.000 A 
ATOM     29  C   UNL     1       1.963   4.115  18.284  0.00  0.00    +0.000 A 
ATOM     30  C   UNL     1       1.109   3.000  18.515  0.00  0.00    +0.000 A 
ATOM     31  C   UNL     1       1.775   1.965  19.132  0.00  0.00    +0.000 A 
ATOM     32  S   UNL     1       3.415   2.349  19.445  0.00  0.00    +0.000 S 
ENDBRANCH  25  28
ENDBRANCH  24  25
ENDBRANCH  18  19
ENDBRANCH  17  18
ENDBRANCH   3  17
TORSDOF 7
ENDMDL
MODEL 8
REMARK VINA RESULT:      -8.1      6.126      8.292
REMARK  Name = 
REMARK  7 active torsions:
REMARK  status: ('A' for Active; 'I' for Inactive)
REMARK    1  A    between atoms: C_2  and  C_20
REMARK    2  A    between atoms: N_3  and  C_4
REMARK    3  A    between atoms: C_4  and  C_5
REMARK    4  A    between atoms: C_5  and  C_6
REMARK    5  A    between atoms: N_11  and  S_12
REMARK    6  A    between atoms: S_12  and  C_15
REMARK    7  A    between atoms: N_22  and  C_23
REMARK                            x       y       z     vdW  Elec       q    Type
REMARK                         _______ _______ _______ _____ _____    ______ ____
ROOT
ATOM      1  O   UNL     1       2.263  10.423  17.512  0.00  0.00    +0.000 OA
ATOM      2  C   UNL     1       1.655   9.537  18.098  0.00  0.00    +0.000 C 
ATOM      3  N   UNL     1       2.072   8.239  18.295  0.00  0.00    +0.000 N 
ATOM      4  H   UNL     1       1.508   7.682  18.935  0.00  0.00    +0.000 HD
ENDROOT
BRANCH   2   5
ATOM      5  C   UNL     1       0.287   9.843  18.726  0.00  0.00    +0.000 C 
ATOM      6  O   UNL     1       0.114   9.559  19.904  0.00  0.00    +0.000 OA
ATOM      7  N   UNL     1      -0.601  10.395  17.828  0.00  0.00    +0.000 N 
ATOM      8  H   UNL     1      -0.277  10.449  16.861  0.00  0.00    +0.000 HD
BRANCH   7   9
ATOM      9  C   UNL     1      -1.934  10.759  18.093  0.00  0.00    +0.000 A 
ATOM     10  C   UNL     1      -3.027  10.095  17.528  0.00  0.00    +0.000 A 
ATOM     11  C   UNL     1      -4.326  10.540  17.778  0.00  0.00    +0.000 A 
ATOM     12  C   UNL     1      -4.531  11.644  18.597  0.00  0.00    +0.000 A 
ATOM     13  F   UNL     1      -5.779  12.081  18.807  0.00  0.00    +0.000 F 
ATOM     14  C   UNL     1      -3.464  12.298  19.196  0.00  0.00    +0.000 A 
ATOM     15  C   UNL     1      -2.173  11.842  18.950  0.00  0.00    +0.000 A 
ATOM     16  F   UNL     1      -1.141  12.481  19.521  0.00  0.00    +0.000 F 
ENDBRANCH   7   9
ENDBRANCH   2   5
BRANCH   3  17
ATOM     17  C   UNL     1       3.402   7.829  17.927  0.00  0.00    +0.000 C 
BRANCH  17  18
ATOM     18  C   UNL     1       3.425   6.470  17.232  0.00  0.00    +0.000 C 
BRANCH  18  19
ATOM     19  C   UNL     1       4.852   5.959  16.949  0.00  0.00    +0.000 C 
ATOM     20  C   UNL     1       5.130   6.071  15.435  0.00  0.00    +0.000 C 
ATOM     21  C   UNL     1       6.527   5.605  15.061  0.00  0.00    +0.000 C 
ATOM     22  C   UNL     1       6.739   4.186  15.563  0.00  0.00    +0.000 C 
ATOM     23  C   UNL     1       6.500   4.102  17.065  0.00  0.00    +0.000 C 
ATOM     24  N   UNL     1       5.102   4.531  17.412  0.00  0.00    +0.000 NA
BRANCH  24  25
ATOM     25  S   UNL     1       4.763   4.258  19.095  0.00  0.00    +0.000 S 
ATOM     26  O   UNL     1       5.439   3.024  19.459  0.00  0.00    +0.000 OA
ATOM     27  O   UNL     1       4.987   5.475  19.841  0.00  0.00    +0.000 OA
BRANCH  25  28
ATOM     28  C   UNL     1       3.035   3.895  19.323  0.00  0.00    +0.000 A 
ATOM     29  C   UNL     1       2.176   3.051  18.643  0.00  0.00    +0.000 A 
ATOM     30  C   UNL     1       0.866   3.045  19.199  0.00  0.00    +0.000 A 
ATOM     31  C   UNL     1       0.768   3.883  20.286  0.00  0.00    +0.000 A 
ATOM     32  S   UNL     1       2.245   4.685  20.618  0.00  0.00    +0.000 S 
ENDBRANCH  25  28
ENDBRANCH  24  25
ENDBRANCH  18  19
ENDBRANCH  17  18
ENDBRANCH   3  17
TORSDOF 7
ENDMDL
MODEL 9
REMARK VINA RESULT:      -7.9      5.824      6.907
REMARK  Name = 
REMARK  7 active torsions:
REMARK  status: ('A' for Active; 'I' for Inactive)
REMARK    1  A    between atoms: C_2  and  C_20
REMARK    2  A    between atoms: N_3  and  C_4
REMARK    3  A    between atoms: C_4  and  C_5
REMARK    4  A    between atoms: C_5  and  C_6
REMARK    5  A    between atoms: N_11  and  S_12
REMARK    6  A    between atoms: S_12  and  C_15
REMARK    7  A    between atoms: N_22  and  C_23
REMARK                            x       y       z     vdW  Elec       q    Type
REMARK                         _______ _______ _______ _____ _____    ______ ____
ROOT
ATOM      1  O   UNL     1       0.529   7.730  21.666  0.00  0.00    +0.000 OA
ATOM      2  C   UNL     1       1.018   8.487  20.838  0.00  0.00    +0.000 C 
ATOM      3  N   UNL     1       1.959   8.171  19.883  0.00  0.00    +0.000 N 
ATOM      4  H   UNL     1       2.139   8.887  19.181  0.00  0.00    +0.000 HD
ENDROOT
BRANCH   2   5
ATOM      5  C   UNL     1       0.560   9.952  20.786  0.00  0.00    +0.000 C 
ATOM      6  O   UNL     1      -0.265  10.330  21.607  0.00  0.00    +0.000 OA
ATOM      7  N   UNL     1       1.147  10.659  19.758  0.00  0.00    +0.000 N 
ATOM      8  H   UNL     1       1.732  10.114  19.123  0.00  0.00    +0.000 HD
BRANCH   7   9
ATOM      9  C   UNL     1       0.912  12.008  19.436  0.00  0.00    +0.000 A 
ATOM     10  C   UNL     1       1.737  13.046  19.878  0.00  0.00    +0.000 A 
ATOM     11  C   UNL     1       1.420  14.372  19.579  0.00  0.00    +0.000 A 
ATOM     12  C   UNL     1       0.281  14.658  18.835  0.00  0.00    +0.000 A 
ATOM     13  F   UNL     1      -0.030  15.934  18.580  0.00  0.00    +0.000 F 
ATOM     14  C   UNL     1      -0.534  13.642  18.358  0.00  0.00    +0.000 A 
ATOM     15  C   UNL     1      -0.206  12.323  18.650  0.00  0.00    +0.000 A 
ATOM     16  F   UNL     1      -0.999  11.342  18.197  0.00  0.00    +0.000 F 
ENDBRANCH   7   9
ENDBRANCH   2   5
BRANCH   3  17
ATOM     17  C   UNL     1       2.369   6.807  19.676  0.00  0.00    +0.000 C 
BRANCH  17  18
ATOM     18  C   UNL     1       2.635   6.492  18.206  0.00  0.00    +0.000 C 
BRANCH  18  19
ATOM     19  C   UNL     1       3.872   5.594  17.994  0.00  0.00    +0.000 C 
ATOM     20  C   UNL     1       5.031   6.463  17.460  0.00  0.00    +0.000 C 
ATOM     21  C   UNL     1       6.304   5.663  17.236  0.00  0.00    +0.000 C 
ATOM     22  C   UNL     1       6.012   4.493  16.312  0.00  0.00    +0.000 C 
ATOM     23  C   UNL     1       4.893   3.626  16.874  0.00  0.00    +0.000 C 
ATOM     24  N   UNL     1       3.632   4.423  17.053  0.00  0.00    +0.000 NA
BRANCH  24  25
ATOM     25  S   UNL     1       2.305   3.399  17.513  0.00  0.00    +0.000 S 
ATOM     26  O   UNL     1       1.091   4.167  17.289  0.00  0.00    +0.000 OA
ATOM     27  O   UNL     1       2.473   2.090  16.926  0.00  0.00    +0.000 OA
BRANCH  25  28
ATOM     28  C   UNL     1       2.327   3.118  19.271  0.00  0.00    +0.000 A 
ATOM     29  C   UNL     1       3.344   2.737  20.127  0.00  0.00    +0.000 A 
ATOM     30  C   UNL     1       2.915   2.667  21.484  0.00  0.00    +0.000 A 
ATOM     31  C   UNL     1       1.586   3.000  21.617  0.00  0.00    +0.000 A 
ATOM     32  S   UNL     1       0.859   3.372  20.111  0.00  0.00    +0.000 S 
ENDBRANCH  25  28
ENDBRANCH  24  25
ENDBRANCH  18  19
ENDBRANCH  17  18
ENDBRANCH   3  17
TORSDOF 7
ENDMDL
