MODEL 1
REMARK VINA RESULT:      -6.4      0.000      0.000
REMARK  Name = 
REMARK  4 active torsions:
REMARK  status: ('A' for Active; 'I' for Inactive)
REMARK    1  A    between atoms: C_2  and  C_3
REMARK    2  A    between atoms: N_8  and  C_9
REMARK    3  A    between atoms: C_9  and  C_10
REMARK    4  A    between atoms: C_10  and  N_11
REMARK                            x       y       z     vdW  Elec       q    Type
REMARK                         _______ _______ _______ _____ _____    ______ ____
ROOT
ATOM      1  C   UNL     1       7.539   7.354  18.010  0.00  0.00    +0.000 A 
ATOM      2  C   UNL     1       8.152   6.442  18.864  0.00  0.00    +0.000 A 
ATOM      3  C   UNL     1       7.643   5.161  18.902  0.00  0.00    +0.000 A 
ATOM      4  N   UNL     1       6.592   4.753  18.166  0.00  0.00    +0.000 NA
ATOM      5  C   UNL     1       5.994   5.634  17.340  0.00  0.00    +0.000 A 
ATOM      6  N   UNL     1       4.951   5.214  16.503  0.00  0.00    +0.000 N 
ATOM      7  C   UNL     1       6.449   6.945  17.236  0.00  0.00    +0.000 A 
ATOM      8  H   UNL     1       4.154   5.844  16.577  0.00  0.00    +0.000 HD
ENDROOT
BRANCH   1  10
ATOM      9  N   UNL     1       8.423   9.787  17.851  0.00  0.00    +0.000 NA
ATOM     10  C   UNL     1       8.035   8.696  17.918  0.00  0.00    +0.000 C 
ENDBRANCH   1  10
BRANCH   6  11
ATOM     11  C   UNL     1       4.521   3.821  16.684  0.00  0.00    +0.000 C 
BRANCH  11  12
ATOM     12  C   UNL     1       3.124   3.720  17.349  0.00  0.00    +0.000 C 
BRANCH  12  13
ATOM     13  N   UNL     1       3.130   3.771  18.837  0.00  0.00    +0.000 NA
ATOM     14  C   UNL     1       1.861   4.311  19.353  0.00  0.00    +0.000 C 
ATOM     15  C   UNL     1       1.781   4.444  20.874  0.00  0.00    +0.000 C 
ATOM     16  C   UNL     1       1.611   3.100  21.563  0.00  0.00    +0.000 C 
ATOM     17  O   UNL     1       2.809   2.383  21.822  0.00  0.00    +0.000 OA
ATOM     18  C   UNL     1       3.852   2.485  20.859  0.00  0.00    +0.000 C 
ATOM     19  C   UNL     1       3.415   2.424  19.387  0.00  0.00    +0.000 C 
ENDBRANCH  12  13
ENDBRANCH  11  12
ENDBRANCH   6  11
TORSDOF 4
ENDMDL
MODEL 2
REMARK VINA RESULT:      -6.4      2.663      6.482
REMARK  Name = 
REMARK  4 active torsions:
REMARK  status: ('A' for Active; 'I' for Inactive)
REMARK    1  A    between atoms: C_2  and  C_3
REMARK    2  A    between atoms: N_8  and  C_9
REMARK    3  A    between atoms: C_9  and  C_10
REMARK    4  A    between atoms: C_10  and  N_11
REMARK                            x       y       z     vdW  Elec       q    Type
REMARK                         _______ _______ _______ _____ _____    ______ ____
ROOT
ATOM      1  C   UNL     1       1.572   3.539  20.263  0.00  0.00    +0.000 A 
ATOM      2  C   UNL     1       1.223   2.977  19.039  0.00  0.00    +0.000 A 
ATOM      3  C   UNL     1       1.440   3.731  17.905  0.00  0.00    +0.000 A 
ATOM      4  N   UNL     1       1.961   4.973  17.922  0.00  0.00    +0.000 NA
ATOM      5  C   UNL     1       2.297   5.522  19.106  0.00  0.00    +0.000 A 
ATOM      6  N   UNL     1       2.916   6.778  19.146  0.00  0.00    +0.000 N 
ATOM      7  C   UNL     1       2.118   4.826  20.298  0.00  0.00    +0.000 A 
ATOM      8  H   UNL     1       2.449   7.389  19.815  0.00  0.00    +0.000 HD
ENDROOT
BRANCH   1  10
ATOM      9  N   UNL     1       1.216   2.199  22.454  0.00  0.00    +0.000 NA
ATOM     10  C   UNL     1       1.383   2.794  21.474  0.00  0.00    +0.000 C 
ENDBRANCH   1  10
BRANCH   6  11
ATOM     11  C   UNL     1       3.056   7.452  17.848  0.00  0.00    +0.000 C 
BRANCH  11  12
ATOM     12  C   UNL     1       4.535   7.544  17.390  0.00  0.00    +0.000 C 
BRANCH  12  13
ATOM     13  N   UNL     1       5.245   6.239  17.290  0.00  0.00    +0.000 NA
ATOM     14  C   UNL     1       4.969   5.583  16.001  0.00  0.00    +0.000 C 
ATOM     15  C   UNL     1       5.620   4.213  15.815  0.00  0.00    +0.000 C 
ATOM     16  C   UNL     1       7.116   4.313  15.563  0.00  0.00    +0.000 C 
ATOM     17  O   UNL     1       7.932   4.397  16.721  0.00  0.00    +0.000 OA
ATOM     18  C   UNL     1       7.417   5.120  17.833  0.00  0.00    +0.000 C 
ATOM     19  C   UNL     1       6.699   6.438  17.502  0.00  0.00    +0.000 C 
ENDBRANCH  12  13
ENDBRANCH  11  12
ENDBRANCH   6  11
TORSDOF 4
ENDMDL
MODEL 3
REMARK VINA RESULT:      -6.3      4.377      6.587
REMARK  Name = 
REMARK  4 active torsions:
REMARK  status: ('A' for Active; 'I' for Inactive)
REMARK    1  A    between atoms: C_2  and  C_3
REMARK    2  A    between atoms: N_8  and  C_9
REMARK    3  A    between atoms: C_9  and  C_10
REMARK    4  A    between atoms: C_10  and  N_11
REMARK                            x       y       z     vdW  Elec       q    Type
REMARK                         _______ _______ _______ _____ _____    ______ ____
ROOT
ATOM      1  C   UNL     1       0.599   9.393  21.243  0.00  0.00    +0.000 A 
ATOM      2  C   UNL     1       0.617  10.061  20.023  0.00  0.00    +0.000 A 
ATOM      3  C   UNL     1       1.280   9.458  18.974  0.00  0.00    +0.000 A 
ATOM      4  N   UNL     1       1.909   8.272  19.072  0.00  0.00    +0.000 NA
ATOM      5  C   UNL     1       1.897   7.623  20.254  0.00  0.00    +0.000 A 
ATOM      6  N   UNL     1       2.472   6.350  20.360  0.00  0.00    +0.000 N 
ATOM      7  C   UNL     1       1.244   8.158  21.360  0.00  0.00    +0.000 A 
ATOM      8  H   UNL     1       3.098   6.304  21.163  0.00  0.00    +0.000 HD
ENDROOT
BRANCH   1  10
ATOM      9  N   UNL     1      -0.655  10.434  23.260  0.00  0.00    +0.000 NA
ATOM     10  C   UNL     1      -0.088   9.965  22.364  0.00  0.00    +0.000 C 
ENDBRANCH   1  10
BRANCH   6  11
ATOM     11  C   UNL     1       3.152   5.863  19.153  0.00  0.00    +0.000 C 
BRANCH  11  12
ATOM     12  C   UNL     1       4.549   5.265  19.466  0.00  0.00    +0.000 C 
BRANCH  12  13
ATOM     13  N   UNL     1       5.273   4.708  18.291  0.00  0.00    +0.000 NA
ATOM     14  C   UNL     1       4.484   4.867  17.059  0.00  0.00    +0.000 C 
ATOM     15  C   UNL     1       5.123   4.287  15.796  0.00  0.00    +0.000 C 
ATOM     16  C   UNL     1       6.278   5.137  15.292  0.00  0.00    +0.000 C 
ATOM     17  O   UNL     1       7.540   4.881  15.889  0.00  0.00    +0.000 OA
ATOM     18  C   UNL     1       7.551   4.534  17.269  0.00  0.00    +0.000 C 
ATOM     19  C   UNL     1       6.607   5.344  18.172  0.00  0.00    +0.000 C 
ENDBRANCH  12  13
ENDBRANCH  11  12
ENDBRANCH   6  11
TORSDOF 4
ENDMDL
MODEL 4
REMARK VINA RESULT:      -6.1      0.828      1.386
REMARK  Name = 
REMARK  4 active torsions:
REMARK  status: ('A' for Active; 'I' for Inactive)
REMARK    1  A    between atoms: C_2  and  C_3
REMARK    2  A    between atoms: N_8  and  C_9
REMARK    3  A    between atoms: C_9  and  C_10
REMARK    4  A    between atoms: C_10  and  N_11
REMARK                            x       y       z     vdW  Elec       q    Type
REMARK                         _______ _______ _______ _____ _____    ______ ____
ROOT
ATOM      1  C   UNL     1       7.632   7.424  18.051  0.00  0.00    +0.000 A 
ATOM      2  C   UNL     1       8.227   6.561  18.966  0.00  0.00    +0.000 A 
ATOM      3  C   UNL     1       7.733   5.276  19.046  0.00  0.00    +0.000 A 
ATOM      4  N   UNL     1       6.712   4.820  18.296  0.00  0.00    +0.000 NA
ATOM      5  C   UNL     1       6.131   5.654  17.411  0.00  0.00    +0.000 A 
ATOM      6  N   UNL     1       5.121   5.182  16.561  0.00  0.00    +0.000 N 
ATOM      7  C   UNL     1       6.573   6.966  17.261  0.00  0.00    +0.000 A 
ATOM      8  H   UNL     1       4.314   5.805  16.580  0.00  0.00    +0.000 HD
ENDROOT
BRANCH   1  10
ATOM      9  N   UNL     1       8.512   9.852  17.817  0.00  0.00    +0.000 NA
ATOM     10  C   UNL     1       8.115   8.767  17.914  0.00  0.00    +0.000 C 
ENDBRANCH   1  10
BRANCH   6  11
ATOM     11  C   UNL     1       4.703   3.794  16.792  0.00  0.00    +0.000 C 
BRANCH  11  12
ATOM     12  C   UNL     1       3.167   3.664  16.961  0.00  0.00    +0.000 C 
BRANCH  12  13
ATOM     13  N   UNL     1       2.724   3.046  18.242  0.00  0.00    +0.000 NA
ATOM     14  C   UNL     1       3.750   3.201  19.286  0.00  0.00    +0.000 C 
ATOM     15  C   UNL     1       3.410   2.563  20.633  0.00  0.00    +0.000 C 
ATOM     16  C   UNL     1       2.361   3.353  21.399  0.00  0.00    +0.000 C 
ATOM     17  O   UNL     1       1.010   3.064  21.071  0.00  0.00    +0.000 OA
ATOM     18  C   UNL     1       0.720   2.756  19.712  0.00  0.00    +0.000 C 
ATOM     19  C   UNL     1       1.426   3.627  18.660  0.00  0.00    +0.000 C 
ENDBRANCH  12  13
ENDBRANCH  11  12
ENDBRANCH   6  11
TORSDOF 4
ENDMDL
MODEL 5
REMARK VINA RESULT:      -6.0      4.155      6.122
REMARK  Name = 
REMARK  4 active torsions:
REMARK  status: ('A' for Active; 'I' for Inactive)
REMARK    1  A    between atoms: C_2  and  C_3
REMARK    2  A    between atoms: N_8  and  C_9
REMARK    3  A    between atoms: C_9  and  C_10
REMARK    4  A    between atoms: C_10  and  N_11
REMARK                            x       y       z     vdW  Elec       q    Type
REMARK                         _______ _______ _______ _____ _____    ______ ____
ROOT
ATOM      1  C   UNL     1       1.228   9.344  20.162  0.00  0.00    +0.000 A 
ATOM      2  C   UNL     1       1.308   9.690  18.817  0.00  0.00    +0.000 A 
ATOM      3  C   UNL     1       1.821   8.752  17.946  0.00  0.00    +0.000 A 
ATOM      4  N   UNL     1       2.247   7.533  18.327  0.00  0.00    +0.000 NA
ATOM      5  C   UNL     1       2.175   7.196  19.630  0.00  0.00    +0.000 A 
ATOM      6  N   UNL     1       2.535   5.906  20.042  0.00  0.00    +0.000 N 
ATOM      7  C   UNL     1       1.663   8.081  20.574  0.00  0.00    +0.000 A 
ATOM      8  H   UNL     1       3.175   5.946  20.833  0.00  0.00    +0.000 HD
ENDROOT
BRANCH   1  10
ATOM      9  N   UNL     1       0.244  11.033  21.867  0.00  0.00    +0.000 NA
ATOM     10  C   UNL     1       0.689  10.275  21.110  0.00  0.00    +0.000 C 
ENDBRANCH   1  10
BRANCH   6  11
ATOM     11  C   UNL     1       3.077   5.038  18.988  0.00  0.00    +0.000 C 
BRANCH  11  12
ATOM     12  C   UNL     1       4.464   4.453  19.365  0.00  0.00    +0.000 C 
BRANCH  12  13
ATOM     13  N   UNL     1       5.466   4.451  18.264  0.00  0.00    +0.000 NA
ATOM     14  C   UNL     1       4.869   3.977  17.005  0.00  0.00    +0.000 C 
ATOM     15  C   UNL     1       5.829   3.897  15.818  0.00  0.00    +0.000 C 
ATOM     16  C   UNL     1       6.174   5.269  15.261  0.00  0.00    +0.000 C 
ATOM     17  O   UNL     1       7.240   5.948  15.908  0.00  0.00    +0.000 OA
ATOM     18  C   UNL     1       7.367   5.774  17.315  0.00  0.00    +0.000 C 
ATOM     19  C   UNL     1       6.055   5.803  18.116  0.00  0.00    +0.000 C 
ENDBRANCH  12  13
ENDBRANCH  11  12
ENDBRANCH   6  11
TORSDOF 4
ENDMDL
MODEL 6
REMARK VINA RESULT:      -5.9      2.316      3.447
REMARK  Name = 
REMARK  4 active torsions:
REMARK  status: ('A' for Active; 'I' for Inactive)
REMARK    1  A    between atoms: C_2  and  C_3
REMARK    2  A    between atoms: N_8  and  C_9
REMARK    3  A    between atoms: C_9  and  C_10
REMARK    4  A    between atoms: C_10  and  N_11
REMARK                            x       y       z     vdW  Elec       q    Type
REMARK                         _______ _______ _______ _____ _____    ______ ____
ROOT
ATOM      1  C   UNL     1       6.264   4.623  14.971  0.00  0.00    +0.000 A 
ATOM      2  C   UNL     1       7.075   4.188  16.015  0.00  0.00    +0.000 A 
ATOM      3  C   UNL     1       6.815   4.686  17.275  0.00  0.00    +0.000 A 
ATOM      4  N   UNL     1       5.831   5.566  17.542  0.00  0.00    +0.000 NA
ATOM      5  C   UNL     1       5.047   5.992  16.532  0.00  0.00    +0.000 A 
ATOM      6  N   UNL     1       3.965   6.843  16.796  0.00  0.00    +0.000 N 
ATOM      7  C   UNL     1       5.236   5.533  15.232  0.00  0.00    +0.000 A 
ATOM      8  H   UNL     1       3.974   7.643  16.165  0.00  0.00    +0.000 HD
ENDROOT
BRANCH   1  10
ATOM      9  N   UNL     1       6.659   3.713  12.574  0.00  0.00    +0.000 NA
ATOM     10  C   UNL     1       6.479   4.127  13.642  0.00  0.00    +0.000 C 
ENDBRANCH   1  10
BRANCH   6  11
ATOM     11  C   UNL     1       3.843   7.292  18.189  0.00  0.00    +0.000 C 
BRANCH  11  12
ATOM     12  C   UNL     1       2.562   6.745  18.872  0.00  0.00    +0.000 C 
BRANCH  12  13
ATOM     13  N   UNL     1       2.672   5.355  19.395  0.00  0.00    +0.000 NA
ATOM     14  C   UNL     1       2.032   5.234  20.715  0.00  0.00    +0.000 C 
ATOM     15  C   UNL     1       2.126   3.851  21.360  0.00  0.00    +0.000 C 
ATOM     16  C   UNL     1       1.199   2.842  20.701  0.00  0.00    +0.000 C 
ATOM     17  O   UNL     1       1.713   2.193  19.548  0.00  0.00    +0.000 OA
ATOM     18  C   UNL     1       2.550   2.958  18.687  0.00  0.00    +0.000 C 
ATOM     19  C   UNL     1       2.095   4.401  18.417  0.00  0.00    +0.000 C 
ENDBRANCH  12  13
ENDBRANCH  11  12
ENDBRANCH   6  11
TORSDOF 4
ENDMDL
MODEL 7
REMARK VINA RESULT:      -5.8      4.321      6.552
REMARK  Name = 
REMARK  4 active torsions:
REMARK  status: ('A' for Active; 'I' for Inactive)
REMARK    1  A    between atoms: C_2  and  C_3
REMARK    2  A    between atoms: N_8  and  C_9
REMARK    3  A    between atoms: C_9  and  C_10
REMARK    4  A    between atoms: C_10  and  N_11
REMARK                            x       y       z     vdW  Elec       q    Type
REMARK                         _______ _______ _______ _____ _____    ______ ____
ROOT
ATOM      1  C   UNL     1       0.593   9.495  21.303  0.00  0.00    +0.000 A 
ATOM      2  C   UNL     1       0.781  10.073  20.052  0.00  0.00    +0.000 A 
ATOM      3  C   UNL     1       1.376   9.302  19.075  0.00  0.00    +0.000 A 
ATOM      4  N   UNL     1       1.785   8.034  19.271  0.00  0.00    +0.000 NA
ATOM      5  C   UNL     1       1.607   7.472  20.483  0.00  0.00    +0.000 A 
ATOM      6  N   UNL     1       1.948   6.128  20.689  0.00  0.00    +0.000 N 
ATOM      7  C   UNL     1       1.007   8.178  21.522  0.00  0.00    +0.000 A 
ATOM      8  H   UNL     1       2.519   6.027  21.527  0.00  0.00    +0.000 HD
ENDROOT
BRANCH   1  10
ATOM      9  N   UNL     1      -0.529  10.859  23.203  0.00  0.00    +0.000 NA
ATOM     10  C   UNL     1      -0.035  10.245  22.352  0.00  0.00    +0.000 C 
ENDBRANCH   1  10
BRANCH   6  11
ATOM     11  C   UNL     1       2.587   5.459  19.549  0.00  0.00    +0.000 C 
BRANCH  11  12
ATOM     12  C   UNL     1       4.086   5.158  19.810  0.00  0.00    +0.000 C 
BRANCH  12  13
ATOM     13  N   UNL     1       4.988   5.394  18.648  0.00  0.00    +0.000 NA
ATOM     14  C   UNL     1       6.397   5.436  19.072  0.00  0.00    +0.000 C 
ATOM     15  C   UNL     1       7.404   5.715  17.956  0.00  0.00    +0.000 C 
ATOM     16  C   UNL     1       7.604   4.514  17.045  0.00  0.00    +0.000 C 
ATOM     17  O   UNL     1       6.668   4.380  15.986  0.00  0.00    +0.000 OA
ATOM     18  C   UNL     1       5.325   4.773  16.248  0.00  0.00    +0.000 C 
ATOM     19  C   UNL     1       4.758   4.356  17.614  0.00  0.00    +0.000 C 
ENDBRANCH  12  13
ENDBRANCH  11  12
ENDBRANCH   6  11
TORSDOF 4
ENDMDL
MODEL 8
REMARK VINA RESULT:      -5.8      3.858      4.996
REMARK  Name = 
REMARK  4 active torsions:
REMARK  status: ('A' for Active; 'I' for Inactive)
REMARK    1  A    between atoms: C_2  and  C_3
REMARK    2  A    between atoms: N_8  and  C_9
REMARK    3  A    between atoms: C_9  and  C_10
REMARK    4  A    between atoms: C_10  and  N_11
REMARK                            x       y       z     vdW  Elec       q    Type
REMARK                         _______ _______ _______ _____ _____    ______ ____
ROOT
ATOM      1  C   UNL     1       0.839   9.682  19.279  0.00  0.00    +0.000 A 
ATOM      2  C   UNL     1       0.696   9.116  20.542  0.00  0.00    +0.000 A 
ATOM      3  C   UNL     1       1.413   7.970  20.813  0.00  0.00    +0.000 A 
ATOM      4  N   UNL     1       2.232   7.374  19.926  0.00  0.00    +0.000 NA
ATOM      5  C   UNL     1       2.371   7.917  18.701  0.00  0.00    +0.000 A 
ATOM      6  N   UNL     1       3.279   7.364  17.788  0.00  0.00    +0.000 N 
ATOM      7  C   UNL     1       1.689   9.078  18.347  0.00  0.00    +0.000 A 
ATOM      8  H   UNL     1       2.836   7.220  16.881  0.00  0.00    +0.000 HD
ENDROOT
BRANCH   1  10
ATOM      9  N   UNL     1      -0.446  11.857  18.693  0.00  0.00    +0.000 NA
ATOM     10  C   UNL     1       0.130  10.882  18.946  0.00  0.00    +0.000 C 
ENDBRANCH   1  10
BRANCH   6  11
ATOM     11  C   UNL     1       3.948   6.134  18.232  0.00  0.00    +0.000 C 
BRANCH  11  12
ATOM     12  C   UNL     1       3.360   4.869  17.553  0.00  0.00    +0.000 C 
BRANCH  12  13
ATOM     13  N   UNL     1       2.896   3.809  18.490  0.00  0.00    +0.000 NA
ATOM     14  C   UNL     1       3.855   3.619  19.591  0.00  0.00    +0.000 C 
ATOM     15  C   UNL     1       3.491   2.520  20.589  0.00  0.00    +0.000 C 
ATOM     16  C   UNL     1       2.355   2.932  21.511  0.00  0.00    +0.000 C 
ATOM     17  O   UNL     1       1.044   2.723  21.006  0.00  0.00    +0.000 OA
ATOM     18  C   UNL     1       0.844   2.917  19.610  0.00  0.00    +0.000 C 
ATOM     19  C   UNL     1       1.542   4.140  18.996  0.00  0.00    +0.000 C 
ENDBRANCH  12  13
ENDBRANCH  11  12
ENDBRANCH   6  11
TORSDOF 4
ENDMDL
MODEL 9
REMARK VINA RESULT:      -5.8      2.445      4.180
REMARK  Name = 
REMARK  4 active torsions:
REMARK  status: ('A' for Active; 'I' for Inactive)
REMARK    1  A    between atoms: C_2  and  C_3
REMARK    2  A    between atoms: N_8  and  C_9
REMARK    3  A    between atoms: C_9  and  C_10
REMARK    4  A    between atoms: C_10  and  N_11
REMARK                            x       y       z     vdW  Elec       q    Type
REMARK                         _______ _______ _______ _____ _____    ______ ____
ROOT
ATOM      1  C   UNL     1       5.856   4.475  14.475  0.00  0.00    +0.000 A 
ATOM      2  C   UNL     1       5.414   5.793  14.410  0.00  0.00    +0.000 A 
ATOM      3  C   UNL     1       5.288   6.484  15.597  0.00  0.00    +0.000 A 
ATOM      4  N   UNL     1       5.563   5.952  16.803  0.00  0.00    +0.000 NA
ATOM      5  C   UNL     1       5.989   4.675  16.870  0.00  0.00    +0.000 A 
ATOM      6  N   UNL     1       6.360   4.124  18.104  0.00  0.00    +0.000 N 
ATOM      7  C   UNL     1       6.150   3.909  15.719  0.00  0.00    +0.000 A 
ATOM      8  H   UNL     1       5.909   3.221  18.246  0.00  0.00    +0.000 HD
ENDROOT
BRANCH   1  10
ATOM      9  N   UNL     1       6.169   3.097  12.301  0.00  0.00    +0.000 NA
ATOM     10  C   UNL     1       6.021   3.713  13.271  0.00  0.00    +0.000 C 
ENDBRANCH   1  10
BRANCH   6  11
ATOM     11  C   UNL     1       6.146   4.991  19.270  0.00  0.00    +0.000 C 
BRANCH  11  12
ATOM     12  C   UNL     1       4.732   4.813  19.883  0.00  0.00    +0.000 C 
BRANCH  12  13
ATOM     13  N   UNL     1       3.781   4.026  19.051  0.00  0.00    +0.000 NA
ATOM     14  C   UNL     1       3.425   2.759  19.711  0.00  0.00    +0.000 C 
ATOM     15  C   UNL     1       2.482   1.854  18.917  0.00  0.00    +0.000 C 
ATOM     16  C   UNL     1       1.053   2.374  18.911  0.00  0.00    +0.000 C 
ATOM     17  O   UNL     1       0.752   3.339  17.915  0.00  0.00    +0.000 OA
ATOM     18  C   UNL     1       1.776   4.267  17.573  0.00  0.00    +0.000 C 
ATOM     19  C   UNL     1       2.580   4.842  18.750  0.00  0.00    +0.000 C 
ENDBRANCH  12  13
ENDBRANCH  11  12
ENDBRANCH   6  11
TORSDOF 4
ENDMDL
