MODEL 1
REMARK VINA RESULT:      -7.1      0.000      0.000
REMARK  Name = 
REMARK  11 active torsions:
REMARK  status: ('A' for Active; 'I' for Inactive)
REMARK    1  A    between atoms: C_1  and  S_2
REMARK    2  A    between atoms: S_2  and  C_3
REMARK    3  A    between atoms: C_3  and  C_5
REMARK    4  A    between atoms: C_6  and  C_7
REMARK    5  A    between atoms: C_7  and  C_8
REMARK    6  A    between atoms: C_7  and  C_9
REMARK    7  A    between atoms: C_7  and  N_10
REMARK    8  A    between atoms: N_10  and  C_11
REMARK    9  A    between atoms: N_10  and  C_18
REMARK   10  A    between atoms: C_11  and  C_12
REMARK   11  A    between atoms: C_18  and  C_19
REMARK                            x       y       z     vdW  Elec       q    Type
REMARK                         _______ _______ _______ _____ _____    ______ ____
ROOT
ATOM      1  N   UNL     1       4.994   5.013  17.162  0.00  0.00    +0.000 NA
ENDROOT
BRANCH   1   2
ATOM      2  C   UNL     1       6.374   5.256  16.628  0.00  0.00    +0.000 C 
ATOM      3  C   UNL     1       7.449   4.447  17.393  0.00  0.00    +0.000 C 
ATOM      4  C   UNL     1       6.842   6.732  16.703  0.00  0.00    +0.000 C 
BRANCH   2   6
ATOM      5  C   UNL     1       6.533   4.454  13.924  0.00  0.00    +0.000 C 
ATOM      6  C   UNL     1       6.460   4.824  15.173  0.00  0.00    +0.000 C 
BRANCH   5   7
ATOM      7  C   UNL     1       6.738   4.003  12.571  0.00  0.00    +0.000 C 
ATOM      8  O   UNL     1       7.460   4.625  11.806  0.00  0.00    +0.000 OA
BRANCH   7  10
ATOM      9  C   UNL     1       4.343   3.367  11.474  0.00  0.00    +0.000 C 
ATOM     10  S   UNL     1       5.833   2.574  12.113  0.00  0.00    +0.000 S 
ENDBRANCH   7  10
ENDBRANCH   5   7
ENDBRANCH   2   6
ENDBRANCH   1   2
BRANCH   1  11
ATOM     11  C   UNL     1       4.431   3.655  16.951  0.00  0.00    +0.000 C 
BRANCH  11  12
ATOM     12  C   UNL     1       3.337   3.239  17.939  0.00  0.00    +0.000 A 
ATOM     13  C   UNL     1       1.989   3.493  17.646  0.00  0.00    +0.000 A 
ATOM     14  C   UNL     1       0.996   3.262  18.605  0.00  0.00    +0.000 A 
ATOM     15  C   UNL     1       1.330   2.800  19.875  0.00  0.00    +0.000 A 
ATOM     16  C   UNL     1       2.653   2.491  20.164  0.00  0.00    +0.000 A 
ATOM     17  C   UNL     1       3.635   2.661  19.186  0.00  0.00    +0.000 A 
ENDBRANCH  11  12
ENDBRANCH   1  11
BRANCH   1  18
ATOM     18  C   UNL     1       4.712   5.589  18.504  0.00  0.00    +0.000 C 
BRANCH  18  19
ATOM     19  C   UNL     1       3.595   6.611  18.633  0.00  0.00    +0.000 A 
ATOM     20  C   UNL     1       3.383   7.561  17.624  0.00  0.00    +0.000 A 
ATOM     21  C   UNL     1       2.403   8.551  17.774  0.00  0.00    +0.000 A 
ATOM     22  C   UNL     1       1.606   8.594  18.915  0.00  0.00    +0.000 A 
ATOM     23  C   UNL     1       1.772   7.640  19.898  0.00  0.00    +0.000 A 
ATOM     24  C   UNL     1       2.755   6.661  19.749  0.00  0.00    +0.000 A 
ENDBRANCH  18  19
ENDBRANCH   1  18
TORSDOF 8
ENDMDL
MODEL 2
REMARK VINA RESULT:      -7.0      0.916      3.701
REMARK  Name = 
REMARK  11 active torsions:
REMARK  status: ('A' for Active; 'I' for Inactive)
REMARK    1  A    between atoms: C_1  and  S_2
REMARK    2  A    between atoms: S_2  and  C_3
REMARK    3  A    between atoms: C_3  and  C_5
REMARK    4  A    between atoms: C_6  and  C_7
REMARK    5  A    between atoms: C_7  and  C_8
REMARK    6  A    between atoms: C_7  and  C_9
REMARK    7  A    between atoms: C_7  and  N_10
REMARK    8  A    between atoms: N_10  and  C_11
REMARK    9  A    between atoms: N_10  and  C_18
REMARK   10  A    between atoms: C_11  and  C_12
REMARK   11  A    between atoms: C_18  and  C_19
REMARK                            x       y       z     vdW  Elec       q    Type
REMARK                         _______ _______ _______ _____ _____    ______ ____
ROOT
ATOM      1  N   UNL     1       4.966   5.422  17.394  0.00  0.00    +0.000 NA
ENDROOT
BRANCH   1   2
ATOM      2  C   UNL     1       6.438   5.601  17.171  0.00  0.00    +0.000 C 
ATOM      3  C   UNL     1       7.280   4.607  18.005  0.00  0.00    +0.000 C 
ATOM      4  C   UNL     1       6.977   7.006  17.542  0.00  0.00    +0.000 C 
BRANCH   2   6
ATOM      5  C   UNL     1       7.083   5.131  14.462  0.00  0.00    +0.000 C 
ATOM      6  C   UNL     1       6.785   5.348  15.713  0.00  0.00    +0.000 C 
BRANCH   5   7
ATOM      7  C   UNL     1       7.510   4.982  13.094  0.00  0.00    +0.000 C 
ATOM      8  O   UNL     1       8.296   5.772  12.592  0.00  0.00    +0.000 OA
BRANCH   7  10
ATOM      9  C   UNL     1       5.165   3.625  13.045  0.00  0.00    +0.000 C 
ATOM     10  S   UNL     1       6.771   3.655  12.220  0.00  0.00    +0.000 S 
ENDBRANCH   7  10
ENDBRANCH   5   7
ENDBRANCH   2   6
ENDBRANCH   1   2
BRANCH   1  11
ATOM     11  C   UNL     1       4.084   6.509  16.898  0.00  0.00    +0.000 C 
BRANCH  11  12
ATOM     12  C   UNL     1       3.251   7.218  17.971  0.00  0.00    +0.000 A 
ATOM     13  C   UNL     1       3.045   6.610  19.219  0.00  0.00    +0.000 A 
ATOM     14  C   UNL     1       2.161   7.170  20.146  0.00  0.00    +0.000 A 
ATOM     15  C   UNL     1       1.450   8.328  19.840  0.00  0.00    +0.000 A 
ATOM     16  C   UNL     1       1.683   8.973  18.633  0.00  0.00    +0.000 A 
ATOM     17  C   UNL     1       2.614   8.448  17.733  0.00  0.00    +0.000 A 
ENDBRANCH  11  12
ENDBRANCH   1  11
BRANCH   1  18
ATOM     18  C   UNL     1       4.439   4.052  17.156  0.00  0.00    +0.000 C 
BRANCH  18  19
ATOM     19  C   UNL     1       3.430   3.483  18.139  0.00  0.00    +0.000 A 
ATOM     20  C   UNL     1       2.084   3.343  17.772  0.00  0.00    +0.000 A 
ATOM     21  C   UNL     1       1.137   2.888  18.700  0.00  0.00    +0.000 A 
ATOM     22  C   UNL     1       1.520   2.544  19.994  0.00  0.00    +0.000 A 
ATOM     23  C   UNL     1       2.849   2.634  20.357  0.00  0.00    +0.000 A 
ATOM     24  C   UNL     1       3.786   3.096  19.434  0.00  0.00    +0.000 A 
ENDBRANCH  18  19
ENDBRANCH   1  18
TORSDOF 8
ENDMDL
MODEL 3
REMARK VINA RESULT:      -7.0      1.117      3.766
REMARK  Name = 
REMARK  11 active torsions:
REMARK  status: ('A' for Active; 'I' for Inactive)
REMARK    1  A    between atoms: C_1  and  S_2
REMARK    2  A    between atoms: S_2  and  C_3
REMARK    3  A    between atoms: C_3  and  C_5
REMARK    4  A    between atoms: C_6  and  C_7
REMARK    5  A    between atoms: C_7  and  C_8
REMARK    6  A    between atoms: C_7  and  C_9
REMARK    7  A    between atoms: C_7  and  N_10
REMARK    8  A    between atoms: N_10  and  C_11
REMARK    9  A    between atoms: N_10  and  C_18
REMARK   10  A    between atoms: C_11  and  C_12
REMARK   11  A    between atoms: C_18  and  C_19
REMARK                            x       y       z     vdW  Elec       q    Type
REMARK                         _______ _______ _______ _____ _____    ______ ____
ROOT
ATOM      1  N   UNL     1       5.296   5.735  18.444  0.00  0.00    +0.000 NA
ENDROOT
BRANCH   1   2
ATOM      2  C   UNL     1       6.622   6.150  17.881  0.00  0.00    +0.000 C 
ATOM      3  C   UNL     1       7.808   5.568  18.687  0.00  0.00    +0.000 C 
ATOM      4  C   UNL     1       6.858   7.682  17.853  0.00  0.00    +0.000 C 
BRANCH   2   6
ATOM      5  C   UNL     1       6.905   5.201  15.235  0.00  0.00    +0.000 C 
ATOM      6  C   UNL     1       6.774   5.640  16.457  0.00  0.00    +0.000 C 
BRANCH   5   7
ATOM      7  C   UNL     1       6.964   4.815  13.849  0.00  0.00    +0.000 C 
ATOM      8  O   UNL     1       7.777   5.322  13.090  0.00  0.00    +0.000 OA
BRANCH   7  10
ATOM      9  C   UNL     1       6.570   3.017  11.860  0.00  0.00    +0.000 C 
ATOM     10  S   UNL     1       5.760   3.645  13.346  0.00  0.00    +0.000 S 
ENDBRANCH   7  10
ENDBRANCH   5   7
ENDBRANCH   2   6
ENDBRANCH   1   2
BRANCH   1  11
ATOM     11  C   UNL     1       4.103   6.016  17.606  0.00  0.00    +0.000 C 
BRANCH  11  12
ATOM     12  C   UNL     1       3.086   6.985  18.218  0.00  0.00    +0.000 A 
ATOM     13  C   UNL     1       2.705   8.141  17.521  0.00  0.00    +0.000 A 
ATOM     14  C   UNL     1       1.902   9.110  18.132  0.00  0.00    +0.000 A 
ATOM     15  C   UNL     1       1.487   8.957  19.452  0.00  0.00    +0.000 A 
ATOM     16  C   UNL     1       1.809   7.794  20.140  0.00  0.00    +0.000 A 
ATOM     17  C   UNL     1       2.557   6.798  19.507  0.00  0.00    +0.000 A 
ENDBRANCH  11  12
ENDBRANCH   1  11
BRANCH   1  18
ATOM     18  C   UNL     1       5.268   4.411  19.121  0.00  0.00    +0.000 C 
BRANCH  18  19
ATOM     19  C   UNL     1       4.004   3.574  19.024  0.00  0.00    +0.000 A 
ATOM     20  C   UNL     1       3.641   2.975  17.810  0.00  0.00    +0.000 A 
ATOM     21  C   UNL     1       2.439   2.264  17.698  0.00  0.00    +0.000 A 
ATOM     22  C   UNL     1       1.595   2.120  18.796  0.00  0.00    +0.000 A 
ATOM     23  C   UNL     1       1.959   2.666  20.010  0.00  0.00    +0.000 A 
ATOM     24  C   UNL     1       3.152   3.381  20.115  0.00  0.00    +0.000 A 
ENDBRANCH  18  19
ENDBRANCH   1  18
TORSDOF 8
ENDMDL
MODEL 4
REMARK VINA RESULT:      -6.9      1.039      3.703
REMARK  Name = 
REMARK  11 active torsions:
REMARK  status: ('A' for Active; 'I' for Inactive)
REMARK    1  A    between atoms: C_1  and  S_2
REMARK    2  A    between atoms: S_2  and  C_3
REMARK    3  A    between atoms: C_3  and  C_5
REMARK    4  A    between atoms: C_6  and  C_7
REMARK    5  A    between atoms: C_7  and  C_8
REMARK    6  A    between atoms: C_7  and  C_9
REMARK    7  A    between atoms: C_7  and  N_10
REMARK    8  A    between atoms: N_10  and  C_11
REMARK    9  A    between atoms: N_10  and  C_18
REMARK   10  A    between atoms: C_11  and  C_12
REMARK   11  A    between atoms: C_18  and  C_19
REMARK                            x       y       z     vdW  Elec       q    Type
REMARK                         _______ _______ _______ _____ _____    ______ ____
ROOT
ATOM      1  N   UNL     1       4.578   5.862  17.580  0.00  0.00    +0.000 NA
ENDROOT
BRANCH   1   2
ATOM      2  C   UNL     1       6.063   5.784  17.384  0.00  0.00    +0.000 C 
ATOM      3  C   UNL     1       6.724   4.752  18.329  0.00  0.00    +0.000 C 
ATOM      4  C   UNL     1       6.816   7.114  17.640  0.00  0.00    +0.000 C 
BRANCH   2   6
ATOM      5  C   UNL     1       6.663   4.963  14.748  0.00  0.00    +0.000 C 
ATOM      6  C   UNL     1       6.385   5.342  15.966  0.00  0.00    +0.000 C 
BRANCH   5   7
ATOM      7  C   UNL     1       6.841   4.570  13.374  0.00  0.00    +0.000 C 
ATOM      8  O   UNL     1       7.744   5.041  12.699  0.00  0.00    +0.000 OA
BRANCH   7  10
ATOM      9  C   UNL     1       6.694   2.488  11.646  0.00  0.00    +0.000 C 
ATOM     10  S   UNL     1       5.644   3.450  12.755  0.00  0.00    +0.000 S 
ENDBRANCH   7  10
ENDBRANCH   5   7
ENDBRANCH   2   6
ENDBRANCH   1   2
BRANCH   1  11
ATOM     11  C   UNL     1       3.920   7.124  17.155  0.00  0.00    +0.000 C 
BRANCH  11  12
ATOM     12  C   UNL     1       2.852   7.659  18.114  0.00  0.00    +0.000 A 
ATOM     13  C   UNL     1       2.062   8.759  17.746  0.00  0.00    +0.000 A 
ATOM     14  C   UNL     1       1.196   9.355  18.669  0.00  0.00    +0.000 A 
ATOM     15  C   UNL     1       1.120   8.883  19.977  0.00  0.00    +0.000 A 
ATOM     16  C   UNL     1       1.852   7.762  20.344  0.00  0.00    +0.000 A 
ATOM     17  C   UNL     1       2.669   7.128  19.403  0.00  0.00    +0.000 A 
ENDBRANCH  11  12
ENDBRANCH   1  11
BRANCH   1  18
ATOM     18  C   UNL     1       3.816   4.631  17.239  0.00  0.00    +0.000 C 
BRANCH  18  19
ATOM     19  C   UNL     1       2.984   3.970  18.325  0.00  0.00    +0.000 A 
ATOM     20  C   UNL     1       1.619   3.727  18.123  0.00  0.00    +0.000 A 
ATOM     21  C   UNL     1       0.833   3.186  19.149  0.00  0.00    +0.000 A 
ATOM     22  C   UNL     1       1.399   2.857  20.378  0.00  0.00    +0.000 A 
ATOM     23  C   UNL     1       2.751   3.049  20.578  0.00  0.00    +0.000 A 
ATOM     24  C   UNL     1       3.527   3.597  19.558  0.00  0.00    +0.000 A 
ENDBRANCH  18  19
ENDBRANCH   1  18
TORSDOF 8
ENDMDL
MODEL 5
REMARK VINA RESULT:      -6.8      2.834      3.957
REMARK  Name = 
REMARK  11 active torsions:
REMARK  status: ('A' for Active; 'I' for Inactive)
REMARK    1  A    between atoms: C_1  and  S_2
REMARK    2  A    between atoms: S_2  and  C_3
REMARK    3  A    between atoms: C_3  and  C_5
REMARK    4  A    between atoms: C_6  and  C_7
REMARK    5  A    between atoms: C_7  and  C_8
REMARK    6  A    between atoms: C_7  and  C_9
REMARK    7  A    between atoms: C_7  and  N_10
REMARK    8  A    between atoms: N_10  and  C_11
REMARK    9  A    between atoms: N_10  and  C_18
REMARK   10  A    between atoms: C_11  and  C_12
REMARK   11  A    between atoms: C_18  and  C_19
REMARK                            x       y       z     vdW  Elec       q    Type
REMARK                         _______ _______ _______ _____ _____    ______ ____
ROOT
ATOM      1  N   UNL     1       4.095   4.996  17.075  0.00  0.00    +0.000 NA
ENDROOT
BRANCH   1   2
ATOM      2  C   UNL     1       5.362   5.067  16.276  0.00  0.00    +0.000 C 
ATOM      3  C   UNL     1       5.129   5.646  14.861  0.00  0.00    +0.000 C 
ATOM      4  C   UNL     1       6.056   3.699  16.049  0.00  0.00    +0.000 C 
BRANCH   2   6
ATOM      5  C   UNL     1       7.229   6.763  17.546  0.00  0.00    +0.000 C 
ATOM      6  C   UNL     1       6.366   5.980  16.960  0.00  0.00    +0.000 C 
BRANCH   5   7
ATOM      7  C   UNL     1       8.085   7.661  18.280  0.00  0.00    +0.000 C 
ATOM      8  O   UNL     1       8.733   7.267  19.238  0.00  0.00    +0.000 OA
BRANCH   7  10
ATOM      9  C   UNL     1       9.120  10.058  19.005  0.00  0.00    +0.000 C 
ATOM     10  S   UNL     1       8.059   9.328  17.740  0.00  0.00    +0.000 S 
ENDBRANCH   7  10
ENDBRANCH   5   7
ENDBRANCH   2   6
ENDBRANCH   1   2
BRANCH   1  11
ATOM     11  C   UNL     1       3.408   3.679  17.113  0.00  0.00    +0.000 C 
BRANCH  11  12
ATOM     12  C   UNL     1       2.730   3.332  18.442  0.00  0.00    +0.000 A 
ATOM     13  C   UNL     1       1.362   3.588  18.623  0.00  0.00    +0.000 A 
ATOM     14  C   UNL     1       0.767   3.424  19.878  0.00  0.00    +0.000 A 
ATOM     15  C   UNL     1       1.526   3.027  20.977  0.00  0.00    +0.000 A 
ATOM     16  C   UNL     1       2.868   2.716  20.804  0.00  0.00    +0.000 A 
ATOM     17  C   UNL     1       3.447   2.819  19.537  0.00  0.00    +0.000 A 
ENDBRANCH  11  12
ENDBRANCH   1  11
BRANCH   1  18
ATOM     18  C   UNL     1       4.113   5.712  18.378  0.00  0.00    +0.000 C 
BRANCH  18  19
ATOM     19  C   UNL     1       3.134   6.854  18.590  0.00  0.00    +0.000 A 
ATOM     20  C   UNL     1       2.940   7.818  17.590  0.00  0.00    +0.000 A 
ATOM     21  C   UNL     1       2.094   8.913  17.811  0.00  0.00    +0.000 A 
ATOM     22  C   UNL     1       1.412   9.050  19.017  0.00  0.00    +0.000 A 
ATOM     23  C   UNL     1       1.557   8.087  19.995  0.00  0.00    +0.000 A 
ATOM     24  C   UNL     1       2.407   7.004  19.775  0.00  0.00    +0.000 A 
ENDBRANCH  18  19
ENDBRANCH   1  18
TORSDOF 8
ENDMDL
MODEL 6
REMARK VINA RESULT:      -6.8      1.167      1.449
REMARK  Name = 
REMARK  11 active torsions:
REMARK  status: ('A' for Active; 'I' for Inactive)
REMARK    1  A    between atoms: C_1  and  S_2
REMARK    2  A    between atoms: S_2  and  C_3
REMARK    3  A    between atoms: C_3  and  C_5
REMARK    4  A    between atoms: C_6  and  C_7
REMARK    5  A    between atoms: C_7  and  C_8
REMARK    6  A    between atoms: C_7  and  C_9
REMARK    7  A    between atoms: C_7  and  N_10
REMARK    8  A    between atoms: N_10  and  C_11
REMARK    9  A    between atoms: N_10  and  C_18
REMARK   10  A    between atoms: C_11  and  C_12
REMARK   11  A    between atoms: C_18  and  C_19
REMARK                            x       y       z     vdW  Elec       q    Type
REMARK                         _______ _______ _______ _____ _____    ______ ____
ROOT
ATOM      1  N   UNL     1       4.198   5.249  17.420  0.00  0.00    +0.000 NA
ENDROOT
BRANCH   1   2
ATOM      2  C   UNL     1       5.585   5.264  16.851  0.00  0.00    +0.000 C 
ATOM      3  C   UNL     1       6.548   4.340  17.634  0.00  0.00    +0.000 C 
ATOM      4  C   UNL     1       6.265   6.657  16.850  0.00  0.00    +0.000 C 
BRANCH   2   6
ATOM      5  C   UNL     1       5.560   4.331  14.185  0.00  0.00    +0.000 C 
ATOM      6  C   UNL     1       5.572   4.761  15.416  0.00  0.00    +0.000 C 
BRANCH   5   7
ATOM      7  C   UNL     1       5.627   3.756  12.866  0.00  0.00    +0.000 C 
ATOM      8  O   UNL     1       4.655   3.204  12.371  0.00  0.00    +0.000 OA
BRANCH   7  10
ATOM      9  C   UNL     1       7.867   5.277  12.963  0.00  0.00    +0.000 C 
ATOM     10  S   UNL     1       7.194   3.849  12.087  0.00  0.00    +0.000 S 
ENDBRANCH   7  10
ENDBRANCH   5   7
ENDBRANCH   2   6
ENDBRANCH   1   2
BRANCH   1  11
ATOM     11  C   UNL     1       3.449   3.972  17.309  0.00  0.00    +0.000 C 
BRANCH  11  12
ATOM     12  C   UNL     1       2.771   3.496  18.598  0.00  0.00    +0.000 A 
ATOM     13  C   UNL     1       1.404   3.736  18.804  0.00  0.00    +0.000 A 
ATOM     14  C   UNL     1       0.809   3.450  20.037  0.00  0.00    +0.000 A 
ATOM     15  C   UNL     1       1.567   2.945  21.091  0.00  0.00    +0.000 A 
ATOM     16  C   UNL     1       2.908   2.651  20.888  0.00  0.00    +0.000 A 
ATOM     17  C   UNL     1       3.487   2.877  19.637  0.00  0.00    +0.000 A 
ENDBRANCH  11  12
ENDBRANCH   1  11
BRANCH   1  18
ATOM     18  C   UNL     1       4.028   5.945  18.723  0.00  0.00    +0.000 C 
BRANCH  18  19
ATOM     19  C   UNL     1       3.024   7.083  18.811  0.00  0.00    +0.000 A 
ATOM     20  C   UNL     1       2.904   8.006  17.763  0.00  0.00    +0.000 A 
ATOM     21  C   UNL     1       2.033   9.098  17.872  0.00  0.00    +0.000 A 
ATOM     22  C   UNL     1       1.254   9.273  19.013  0.00  0.00    +0.000 A 
ATOM     23  C   UNL     1       1.328   8.349  20.036  0.00  0.00    +0.000 A 
ATOM     24  C   UNL     1       2.203   7.268  19.927  0.00  0.00    +0.000 A 
ENDBRANCH  18  19
ENDBRANCH   1  18
TORSDOF 8
ENDMDL
MODEL 7
REMARK VINA RESULT:      -6.8      1.148      1.521
REMARK  Name = 
REMARK  11 active torsions:
REMARK  status: ('A' for Active; 'I' for Inactive)
REMARK    1  A    between atoms: C_1  and  S_2
REMARK    2  A    between atoms: S_2  and  C_3
REMARK    3  A    between atoms: C_3  and  C_5
REMARK    4  A    between atoms: C_6  and  C_7
REMARK    5  A    between atoms: C_7  and  C_8
REMARK    6  A    between atoms: C_7  and  C_9
REMARK    7  A    between atoms: C_7  and  N_10
REMARK    8  A    between atoms: N_10  and  C_11
REMARK    9  A    between atoms: N_10  and  C_18
REMARK   10  A    between atoms: C_11  and  C_12
REMARK   11  A    between atoms: C_18  and  C_19
REMARK                            x       y       z     vdW  Elec       q    Type
REMARK                         _______ _______ _______ _____ _____    ______ ____
ROOT
ATOM      1  N   UNL     1       4.315   5.097  17.267  0.00  0.00    +0.000 NA
ENDROOT
BRANCH   1   2
ATOM      2  C   UNL     1       5.662   5.211  16.618  0.00  0.00    +0.000 C 
ATOM      3  C   UNL     1       6.742   4.393  17.366  0.00  0.00    +0.000 C 
ATOM      4  C   UNL     1       6.221   6.655  16.545  0.00  0.00    +0.000 C 
BRANCH   2   6
ATOM      5  C   UNL     1       5.571   4.204  13.981  0.00  0.00    +0.000 C 
ATOM      6  C   UNL     1       5.613   4.669  15.199  0.00  0.00    +0.000 C 
BRANCH   5   7
ATOM      7  C   UNL     1       5.415   3.622  12.672  0.00  0.00    +0.000 C 
ATOM      8  O   UNL     1       4.306   3.466  12.183  0.00  0.00    +0.000 OA
BRANCH   7  10
ATOM      9  C   UNL     1       6.346   1.530  11.224  0.00  0.00    +0.000 C 
ATOM     10  S   UNL     1       6.902   3.108  11.900  0.00  0.00    +0.000 S 
ENDBRANCH   7  10
ENDBRANCH   5   7
ENDBRANCH   2   6
ENDBRANCH   1   2
BRANCH   1  11
ATOM     11  C   UNL     1       3.651   3.771  17.186  0.00  0.00    +0.000 C 
BRANCH  11  12
ATOM     12  C   UNL     1       2.837   3.371  18.421  0.00  0.00    +0.000 A 
ATOM     13  C   UNL     1       1.457   3.620  18.467  0.00  0.00    +0.000 A 
ATOM     14  C   UNL     1       0.733   3.406  19.644  0.00  0.00    +0.000 A 
ATOM     15  C   UNL     1       1.373   2.964  20.800  0.00  0.00    +0.000 A 
ATOM     16  C   UNL     1       2.726   2.659  20.758  0.00  0.00    +0.000 A 
ATOM     17  C   UNL     1       3.436   2.813  19.564  0.00  0.00    +0.000 A 
ENDBRANCH  11  12
ENDBRANCH   1  11
BRANCH   1  18
ATOM     18  C   UNL     1       4.175   5.771  18.584  0.00  0.00    +0.000 C 
BRANCH  18  19
ATOM     19  C   UNL     1       3.204   6.934  18.703  0.00  0.00    +0.000 A 
ATOM     20  C   UNL     1       2.417   7.087  19.853  0.00  0.00    +0.000 A 
ATOM     21  C   UNL     1       1.468   8.114  19.935  0.00  0.00    +0.000 A 
ATOM     22  C   UNL     1       1.307   9.017  18.888  0.00  0.00    +0.000 A 
ATOM     23  C   UNL     1       2.105   8.908  17.767  0.00  0.00    +0.000 A 
ATOM     24  C   UNL     1       3.041   7.877  17.685  0.00  0.00    +0.000 A 
ENDBRANCH  18  19
ENDBRANCH   1  18
TORSDOF 8
ENDMDL
MODEL 8
REMARK VINA RESULT:      -6.7      0.775      1.247
REMARK  Name = 
REMARK  11 active torsions:
REMARK  status: ('A' for Active; 'I' for Inactive)
REMARK    1  A    between atoms: C_1  and  S_2
REMARK    2  A    between atoms: S_2  and  C_3
REMARK    3  A    between atoms: C_3  and  C_5
REMARK    4  A    between atoms: C_6  and  C_7
REMARK    5  A    between atoms: C_7  and  C_8
REMARK    6  A    between atoms: C_7  and  C_9
REMARK    7  A    between atoms: C_7  and  N_10
REMARK    8  A    between atoms: N_10  and  C_11
REMARK    9  A    between atoms: N_10  and  C_18
REMARK   10  A    between atoms: C_11  and  C_12
REMARK   11  A    between atoms: C_18  and  C_19
REMARK                            x       y       z     vdW  Elec       q    Type
REMARK                         _______ _______ _______ _____ _____    ______ ____
ROOT
ATOM      1  N   UNL     1       4.943   5.437  17.261  0.00  0.00    +0.000 NA
ENDROOT
BRANCH   1   2
ATOM      2  C   UNL     1       6.421   5.611  17.075  0.00  0.00    +0.000 C 
ATOM      3  C   UNL     1       7.240   4.634  17.952  0.00  0.00    +0.000 C 
ATOM      4  C   UNL     1       6.951   7.023  17.432  0.00  0.00    +0.000 C 
BRANCH   2   6
ATOM      5  C   UNL     1       7.142   5.087  14.395  0.00  0.00    +0.000 C 
ATOM      6  C   UNL     1       6.809   5.329  15.633  0.00  0.00    +0.000 C 
BRANCH   5   7
ATOM      7  C   UNL     1       7.470   4.943  13.000  0.00  0.00    +0.000 C 
ATOM      8  O   UNL     1       8.170   5.768  12.432  0.00  0.00    +0.000 OA
BRANCH   7  10
ATOM      9  C   UNL     1       5.061   3.710  12.846  0.00  0.00    +0.000 C 
ATOM     10  S   UNL     1       6.740   3.567  12.197  0.00  0.00    +0.000 S 
ENDBRANCH   7  10
ENDBRANCH   5   7
ENDBRANCH   2   6
ENDBRANCH   1   2
BRANCH   1  11
ATOM     11  C   UNL     1       4.341   4.216  16.669  0.00  0.00    +0.000 C 
BRANCH  11  12
ATOM     12  C   UNL     1       3.342   3.477  17.567  0.00  0.00    +0.000 A 
ATOM     13  C   UNL     1       1.969   3.746  17.463  0.00  0.00    +0.000 A 
ATOM     14  C   UNL     1       1.066   3.198  18.380  0.00  0.00    +0.000 A 
ATOM     15  C   UNL     1       1.514   2.397  19.426  0.00  0.00    +0.000 A 
ATOM     16  C   UNL     1       2.862   2.075  19.512  0.00  0.00    +0.000 A 
ATOM     17  C   UNL     1       3.756   2.571  18.558  0.00  0.00    +0.000 A 
ENDBRANCH  11  12
ENDBRANCH   1  11
BRANCH   1  18
ATOM     18  C   UNL     1       4.416   5.787  18.607  0.00  0.00    +0.000 C 
BRANCH  18  19
ATOM     19  C   UNL     1       3.385   6.897  18.715  0.00  0.00    +0.000 A 
ATOM     20  C   UNL     1       2.565   6.996  19.848  0.00  0.00    +0.000 A 
ATOM     21  C   UNL     1       1.564   7.973  19.918  0.00  0.00    +0.000 A 
ATOM     22  C   UNL     1       1.380   8.878  18.876  0.00  0.00    +0.000 A 
ATOM     23  C   UNL     1       2.208   8.822  17.773  0.00  0.00    +0.000 A 
ATOM     24  C   UNL     1       3.197   7.842  17.702  0.00  0.00    +0.000 A 
ENDBRANCH  18  19
ENDBRANCH   1  18
TORSDOF 8
ENDMDL
MODEL 9
REMARK VINA RESULT:      -6.7      0.980      3.774
REMARK  Name = 
REMARK  11 active torsions:
REMARK  status: ('A' for Active; 'I' for Inactive)
REMARK    1  A    between atoms: C_1  and  S_2
REMARK    2  A    between atoms: S_2  and  C_3
REMARK    3  A    between atoms: C_3  and  C_5
REMARK    4  A    between atoms: C_6  and  C_7
REMARK    5  A    between atoms: C_7  and  C_8
REMARK    6  A    between atoms: C_7  and  C_9
REMARK    7  A    between atoms: C_7  and  N_10
REMARK    8  A    between atoms: N_10  and  C_11
REMARK    9  A    between atoms: N_10  and  C_18
REMARK   10  A    between atoms: C_11  and  C_12
REMARK   11  A    between atoms: C_18  and  C_19
REMARK                            x       y       z     vdW  Elec       q    Type
REMARK                         _______ _______ _______ _____ _____    ______ ____
ROOT
ATOM      1  N   UNL     1       4.487   5.878  17.590  0.00  0.00    +0.000 NA
ENDROOT
BRANCH   1   2
ATOM      2  C   UNL     1       5.971   5.789  17.395  0.00  0.00    +0.000 C 
ATOM      3  C   UNL     1       6.616   4.717  18.305  0.00  0.00    +0.000 C 
ATOM      4  C   UNL     1       6.739   7.100  17.700  0.00  0.00    +0.000 C 
BRANCH   2   6
ATOM      5  C   UNL     1       6.568   5.054  14.734  0.00  0.00    +0.000 C 
ATOM      6  C   UNL     1       6.293   5.393  15.963  0.00  0.00    +0.000 C 
BRANCH   5   7
ATOM      7  C   UNL     1       7.000   4.669  13.415  0.00  0.00    +0.000 C 
ATOM      8  O   UNL     1       7.717   5.403  12.750  0.00  0.00    +0.000 OA
BRANCH   7  10
ATOM      9  C   UNL     1       4.855   3.731  12.051  0.00  0.00    +0.000 C 
ATOM     10  S   UNL     1       6.368   3.140  12.837  0.00  0.00    +0.000 S 
ENDBRANCH   7  10
ENDBRANCH   5   7
ENDBRANCH   2   6
ENDBRANCH   1   2
BRANCH   1  11
ATOM     11  C   UNL     1       3.835   7.136  17.143  0.00  0.00    +0.000 C 
BRANCH  11  12
ATOM     12  C   UNL     1       2.786   7.706  18.103  0.00  0.00    +0.000 A 
ATOM     13  C   UNL     1       2.056   8.851  17.751  0.00  0.00    +0.000 A 
ATOM     14  C   UNL     1       1.212   9.471  18.678  0.00  0.00    +0.000 A 
ATOM     15  C   UNL     1       1.099   8.978  19.975  0.00  0.00    +0.000 A 
ATOM     16  C   UNL     1       1.771   7.815  20.325  0.00  0.00    +0.000 A 
ATOM     17  C   UNL     1       2.564   7.160  19.380  0.00  0.00    +0.000 A 
ENDBRANCH  11  12
ENDBRANCH   1  11
BRANCH   1  18
ATOM     18  C   UNL     1       3.719   4.646  17.270  0.00  0.00    +0.000 C 
BRANCH  18  19
ATOM     19  C   UNL     1       2.901   3.996  18.373  0.00  0.00    +0.000 A 
ATOM     20  C   UNL     1       3.447   3.823  19.653  0.00  0.00    +0.000 A 
ATOM     21  C   UNL     1       2.723   3.157  20.651  0.00  0.00    +0.000 A 
ATOM     22  C   UNL     1       1.441   2.677  20.398  0.00  0.00    +0.000 A 
ATOM     23  C   UNL     1       0.872   2.878  19.157  0.00  0.00    +0.000 A 
ATOM     24  C   UNL     1       1.599   3.533  18.163  0.00  0.00    +0.000 A 
ENDBRANCH  18  19
ENDBRANCH   1  18
TORSDOF 8
ENDMDL
