MODEL 1
REMARK VINA RESULT:      -6.9      0.000      0.000
REMARK  Name = 
REMARK  7 active torsions:
REMARK  status: ('A' for Active; 'I' for Inactive)
REMARK    1  A    between atoms: C_1  and  C_2
REMARK    2  A    between atoms: N_4  and  C_5
REMARK    3  A    between atoms: C_6  and  O_7
REMARK    4  A    between atoms: C_8  and  C_9
REMARK    5  A    between atoms: C_9  and  O_10
REMARK    6  A    between atoms: C_12  and  C_13
REMARK    7  A    between atoms: C_15  and  C_16
REMARK                            x       y       z     vdW  Elec       q    Type
REMARK                         _______ _______ _______ _____ _____    ______ ____
ROOT
ATOM      1  C   UNL     1       3.258   5.420  19.793  0.00  0.00    +0.000 C 
ATOM      2  C   UNL     1       2.027   4.599  20.201  0.00  0.00    +0.000 C 
ATOM      3  C   UNL     1       2.091   3.392  19.268  0.00  0.00    +0.000 C 
ATOM      4  O   UNL     1       3.497   3.109  19.099  0.00  0.00    +0.000 OA
ATOM      5  C   UNL     1       4.256   4.284  19.477  0.00  0.00    +0.000 C 
ENDROOT
BRANCH   1   9
ATOM      6  C   UNL     1       2.183   8.486  17.836  0.00  0.00    +0.000 C 
ATOM      7  C   UNL     1       2.342   7.572  19.017  0.00  0.00    +0.000 C 
ATOM      8  O   UNL     1       1.962   7.876  20.143  0.00  0.00    +0.000 OA
ATOM      9  N   UNL     1       2.941   6.364  18.716  0.00  0.00    +0.000 N 
ATOM     10  H   UNL     1       3.496   6.318  17.865  0.00  0.00    +0.000 HD
ENDBRANCH   1   9
BRANCH   5  11
ATOM     11  C   UNL     1       5.310   4.545  18.432  0.00  0.00    +0.000 A 
ATOM     12  N   UNL     1       5.216   4.240  17.150  0.00  0.00    +0.000 NA
ATOM     13  C   UNL     1       6.280   4.823  16.440  0.00  0.00    +0.000 A 
ATOM     14  C   UNL     1       7.203   5.484  17.227  0.00  0.00    +0.000 A 
ATOM     15  S   UNL     1       6.738   5.423  18.866  0.00  0.00    +0.000 S 
BRANCH  13  16
ATOM     16  C   UNL     1       6.371   4.761  14.981  0.00  0.00    +0.000 C 
ATOM     17  N   UNL     1       7.494   5.346  14.472  0.00  0.00    +0.000 N 
ATOM     18  O   UNL     1       5.541   4.220  14.263  0.00  0.00    +0.000 OA
ATOM     19  H   UNL     1       8.206   5.697  15.098  0.00  0.00    +0.000 HD
ATOM     20  H   UNL     1       7.678   5.258  13.483  0.00  0.00    +0.000 HD
ENDBRANCH  13  16
ENDBRANCH   5  11
BRANCH   2  21
ATOM     21  O   UNL     1       2.165   4.187  21.570  0.00  0.00    +0.000 OA
ATOM     22  H   UNL     1       1.781   4.868  22.151  0.00  0.00    +0.000 HD
ENDBRANCH   2  21
BRANCH   3  23
ATOM     23  C   UNL     1       1.500   3.630  17.876  0.00  0.00    +0.000 C 
BRANCH  23  24
ATOM     24  O   UNL     1       2.366   3.071  16.886  0.00  0.00    +0.000 OA
ATOM     25  H   UNL     1       3.162   3.636  16.869  0.00  0.00    +0.000 HD
ENDBRANCH  23  24
ENDBRANCH   3  23
TORSDOF 6
ENDMDL
MODEL 2
REMARK VINA RESULT:      -6.5      2.680      5.219
REMARK  Name = 
REMARK  7 active torsions:
REMARK  status: ('A' for Active; 'I' for Inactive)
REMARK    1  A    between atoms: C_1  and  C_2
REMARK    2  A    between atoms: N_4  and  C_5
REMARK    3  A    between atoms: C_6  and  O_7
REMARK    4  A    between atoms: C_8  and  C_9
REMARK    5  A    between atoms: C_9  and  O_10
REMARK    6  A    between atoms: C_12  and  C_13
REMARK    7  A    between atoms: C_15  and  C_16
REMARK                            x       y       z     vdW  Elec       q    Type
REMARK                         _______ _______ _______ _____ _____    ______ ____
ROOT
ATOM      1  C   UNL     1       4.101   6.041  17.263  0.00  0.00    +0.000 C 
ATOM      2  C   UNL     1       5.457   6.658  16.894  0.00  0.00    +0.000 C 
ATOM      3  C   UNL     1       6.460   5.677  17.496  0.00  0.00    +0.000 C 
ATOM      4  O   UNL     1       5.858   4.373  17.350  0.00  0.00    +0.000 OA
ATOM      5  C   UNL     1       4.436   4.539  17.131  0.00  0.00    +0.000 C 
ENDROOT
BRANCH   1   9
ATOM      6  C   UNL     1       2.094   7.669  20.039  0.00  0.00    +0.000 C 
ATOM      7  C   UNL     1       2.534   7.355  18.639  0.00  0.00    +0.000 C 
ATOM      8  O   UNL     1       1.968   7.812  17.651  0.00  0.00    +0.000 OA
ATOM      9  N   UNL     1       3.632   6.519  18.568  0.00  0.00    +0.000 N 
ATOM     10  H   UNL     1       3.836   5.948  19.385  0.00  0.00    +0.000 HD
ENDBRANCH   1   9
BRANCH   5  11
ATOM     11  C   UNL     1       3.686   3.571  18.010  0.00  0.00    +0.000 A 
ATOM     12  N   UNL     1       3.564   3.660  19.322  0.00  0.00    +0.000 NA
ATOM     13  C   UNL     1       2.623   2.721  19.780  0.00  0.00    +0.000 A 
ATOM     14  C   UNL     1       2.122   1.885  18.801  0.00  0.00    +0.000 A 
ATOM     15  S   UNL     1       2.789   2.282  17.283  0.00  0.00    +0.000 S 
BRANCH  13  16
ATOM     16  C   UNL     1       2.188   2.669  21.176  0.00  0.00    +0.000 C 
ATOM     17  N   UNL     1       0.858   2.919  21.350  0.00  0.00    +0.000 N 
ATOM     18  O   UNL     1       2.926   2.406  22.117  0.00  0.00    +0.000 OA
ATOM     19  H   UNL     1       0.259   3.035  20.544  0.00  0.00    +0.000 HD
ATOM     20  H   UNL     1       0.462   2.803  22.272  0.00  0.00    +0.000 HD
ENDBRANCH  13  16
ENDBRANCH   5  11
BRANCH   2  21
ATOM     21  O   UNL     1       5.585   6.699  15.464  0.00  0.00    +0.000 OA
ATOM     22  H   UNL     1       5.856   7.593  15.190  0.00  0.00    +0.000 HD
ENDBRANCH   2  21
BRANCH   3  23
ATOM     23  C   UNL     1       6.743   5.889  18.985  0.00  0.00    +0.000 C 
BRANCH  23  24
ATOM     24  O   UNL     1       6.300   4.747  19.724  0.00  0.00    +0.000 OA
ATOM     25  H   UNL     1       6.902   4.016  19.483  0.00  0.00    +0.000 HD
ENDBRANCH  23  24
ENDBRANCH   3  23
TORSDOF 6
ENDMDL
MODEL 3
REMARK VINA RESULT:      -6.4      3.000      5.595
REMARK  Name = 
REMARK  7 active torsions:
REMARK  status: ('A' for Active; 'I' for Inactive)
REMARK    1  A    between atoms: C_1  and  C_2
REMARK    2  A    between atoms: N_4  and  C_5
REMARK    3  A    between atoms: C_6  and  O_7
REMARK    4  A    between atoms: C_8  and  C_9
REMARK    5  A    between atoms: C_9  and  O_10
REMARK    6  A    between atoms: C_12  and  C_13
REMARK    7  A    between atoms: C_15  and  C_16
REMARK                            x       y       z     vdW  Elec       q    Type
REMARK                         _______ _______ _______ _____ _____    ______ ____
ROOT
ATOM      1  C   UNL     1       3.997   4.506  19.589  0.00  0.00    +0.000 C 
ATOM      2  C   UNL     1       4.552   3.465  18.608  0.00  0.00    +0.000 C 
ATOM      3  C   UNL     1       3.925   3.873  17.278  0.00  0.00    +0.000 C 
ATOM      4  O   UNL     1       3.860   5.315  17.308  0.00  0.00    +0.000 OA
ATOM      5  C   UNL     1       3.975   5.756  18.682  0.00  0.00    +0.000 C 
ENDROOT
BRANCH   1   9
ATOM      6  C   UNL     1       1.356   2.752  21.671  0.00  0.00    +0.000 C 
ATOM      7  C   UNL     1       2.705   3.015  21.067  0.00  0.00    +0.000 C 
ATOM      8  O   UNL     1       3.694   2.344  21.342  0.00  0.00    +0.000 OA
ATOM      9  N   UNL     1       2.724   4.068  20.171  0.00  0.00    +0.000 N 
ATOM     10  H   UNL     1       1.972   4.750  20.238  0.00  0.00    +0.000 HD
ENDBRANCH   1   9
BRANCH   5  11
ATOM     11  C   UNL     1       2.924   6.802  18.953  0.00  0.00    +0.000 A 
ATOM     12  N   UNL     1       2.298   6.985  20.102  0.00  0.00    +0.000 NA
ATOM     13  C   UNL     1       1.554   8.178  20.057  0.00  0.00    +0.000 A 
ATOM     14  C   UNL     1       1.572   8.821  18.835  0.00  0.00    +0.000 A 
ATOM     15  S   UNL     1       2.549   7.967  17.729  0.00  0.00    +0.000 S 
BRANCH  13  16
ATOM     16  C   UNL     1       0.855   8.705  21.229  0.00  0.00    +0.000 C 
ATOM     17  N   UNL     1       1.657   8.880  22.319  0.00  0.00    +0.000 N 
ATOM     18  O   UNL     1      -0.335   8.993  21.248  0.00  0.00    +0.000 OA
ATOM     19  H   UNL     1       2.653   8.725  22.240  0.00  0.00    +0.000 HD
ATOM     20  H   UNL     1       1.271   9.333  23.135  0.00  0.00    +0.000 HD
ENDBRANCH  13  16
ENDBRANCH   5  11
BRANCH   2  21
ATOM     21  O   UNL     1       5.983   3.585  18.550  0.00  0.00    +0.000 OA
ATOM     22  H   UNL     1       6.218   4.409  18.087  0.00  0.00    +0.000 HD
ENDBRANCH   2  21
BRANCH   3  23
ATOM     23  C   UNL     1       2.502   3.353  17.058  0.00  0.00    +0.000 C 
BRANCH  23  24
ATOM     24  O   UNL     1       2.371   2.056  17.646  0.00  0.00    +0.000 OA
ATOM     25  H   UNL     1       3.142   1.540  17.343  0.00  0.00    +0.000 HD
ENDBRANCH  23  24
ENDBRANCH   3  23
TORSDOF 6
ENDMDL
MODEL 4
REMARK VINA RESULT:      -6.4      2.707      5.398
REMARK  Name = 
REMARK  7 active torsions:
REMARK  status: ('A' for Active; 'I' for Inactive)
REMARK    1  A    between atoms: C_1  and  C_2
REMARK    2  A    between atoms: N_4  and  C_5
REMARK    3  A    between atoms: C_6  and  O_7
REMARK    4  A    between atoms: C_8  and  C_9
REMARK    5  A    between atoms: C_9  and  O_10
REMARK    6  A    between atoms: C_12  and  C_13
REMARK    7  A    between atoms: C_15  and  C_16
REMARK                            x       y       z     vdW  Elec       q    Type
REMARK                         _______ _______ _______ _____ _____    ______ ____
ROOT
ATOM      1  C   UNL     1       5.149   5.711  17.146  0.00  0.00    +0.000 C 
ATOM      2  C   UNL     1       6.615   6.162  17.203  0.00  0.00    +0.000 C 
ATOM      3  C   UNL     1       7.214   5.257  18.276  0.00  0.00    +0.000 C 
ATOM      4  O   UNL     1       6.542   3.988  18.131  0.00  0.00    +0.000 OA
ATOM      5  C   UNL     1       5.317   4.194  17.386  0.00  0.00    +0.000 C 
ENDROOT
BRANCH   1   9
ATOM      6  C   UNL     1       2.572   8.019  18.701  0.00  0.00    +0.000 C 
ATOM      7  C   UNL     1       3.437   7.416  17.633  0.00  0.00    +0.000 C 
ATOM      8  O   UNL     1       3.366   7.756  16.456  0.00  0.00    +0.000 OA
ATOM      9  N   UNL     1       4.320   6.460  18.097  0.00  0.00    +0.000 N 
ATOM     10  H   UNL     1       4.105   6.020  18.988  0.00  0.00    +0.000 HD
ENDBRANCH   1   9
BRANCH   5  11
ATOM     11  C   UNL     1       4.193   3.463  18.074  0.00  0.00    +0.000 A 
ATOM     12  N   UNL     1       4.014   3.380  19.380  0.00  0.00    +0.000 NA
ATOM     13  C   UNL     1       2.757   2.815  19.656  0.00  0.00    +0.000 A 
ATOM     14  C   UNL     1       2.053   2.405  18.540  0.00  0.00    +0.000 A 
ATOM     15  S   UNL     1       2.934   2.751  17.122  0.00  0.00    +0.000 S 
BRANCH  13  16
ATOM     16  C   UNL     1       2.230   2.712  21.017  0.00  0.00    +0.000 C 
ATOM     17  N   UNL     1       0.881   2.902  21.104  0.00  0.00    +0.000 N 
ATOM     18  O   UNL     1       2.912   2.458  22.001  0.00  0.00    +0.000 OA
ATOM     19  H   UNL     1       0.334   3.013  20.261  0.00  0.00    +0.000 HD
ATOM     20  H   UNL     1       0.428   2.749  21.993  0.00  0.00    +0.000 HD
ENDBRANCH  13  16
ENDBRANCH   5  11
BRANCH   2  21
ATOM     21  O   UNL     1       7.235   5.917  15.931  0.00  0.00    +0.000 OA
ATOM     22  H   UNL     1       6.824   5.137  15.517  0.00  0.00    +0.000 HD
ENDBRANCH   2  21
BRANCH   3  23
ATOM     23  C   UNL     1       6.988   5.736  19.713  0.00  0.00    +0.000 C 
BRANCH  23  24
ATOM     24  O   UNL     1       8.113   5.377  20.519  0.00  0.00    +0.000 OA
ATOM     25  H   UNL     1       8.305   4.441  20.317  0.00  0.00    +0.000 HD
ENDBRANCH  23  24
ENDBRANCH   3  23
TORSDOF 6
ENDMDL
MODEL 5
REMARK VINA RESULT:      -6.2      2.592      4.234
REMARK  Name = 
REMARK  7 active torsions:
REMARK  status: ('A' for Active; 'I' for Inactive)
REMARK    1  A    between atoms: C_1  and  C_2
REMARK    2  A    between atoms: N_4  and  C_5
REMARK    3  A    between atoms: C_6  and  O_7
REMARK    4  A    between atoms: C_8  and  C_9
REMARK    5  A    between atoms: C_9  and  O_10
REMARK    6  A    between atoms: C_12  and  C_13
REMARK    7  A    between atoms: C_15  and  C_16
REMARK                            x       y       z     vdW  Elec       q    Type
REMARK                         _______ _______ _______ _____ _____    ______ ____
ROOT
ATOM      1  C   UNL     1       3.010   3.671  18.075  0.00  0.00    +0.000 C 
ATOM      2  C   UNL     1       1.622   4.236  18.408  0.00  0.00    +0.000 C 
ATOM      3  C   UNL     1       1.900   5.716  18.655  0.00  0.00    +0.000 C 
ATOM      4  O   UNL     1       2.952   6.071  17.732  0.00  0.00    +0.000 OA
ATOM      5  C   UNL     1       3.610   4.858  17.290  0.00  0.00    +0.000 C 
ENDROOT
BRANCH   1   9
ATOM      6  C   UNL     1       4.909   1.628  20.646  0.00  0.00    +0.000 C 
ATOM      7  C   UNL     1       4.096   1.910  19.416  0.00  0.00    +0.000 C 
ATOM      8  O   UNL     1       3.794   1.037  18.609  0.00  0.00    +0.000 OA
ATOM      9  N   UNL     1       3.714   3.232  19.285  0.00  0.00    +0.000 N 
ATOM     10  H   UNL     1       4.251   3.926  19.800  0.00  0.00    +0.000 HD
ENDBRANCH   1   9
BRANCH   5  11
ATOM     11  C   UNL     1       5.103   5.058  17.351  0.00  0.00    +0.000 A 
ATOM     12  N   UNL     1       5.741   5.830  18.212  0.00  0.00    +0.000 NA
ATOM     13  C   UNL     1       7.127   5.605  18.121  0.00  0.00    +0.000 A 
ATOM     14  C   UNL     1       7.502   4.724  17.125  0.00  0.00    +0.000 A 
ATOM     15  S   UNL     1       6.128   4.132  16.308  0.00  0.00    +0.000 S 
BRANCH  13  16
ATOM     16  C   UNL     1       8.080   6.228  19.039  0.00  0.00    +0.000 C 
ATOM     17  N   UNL     1       8.426   5.438  20.097  0.00  0.00    +0.000 N 
ATOM     18  O   UNL     1       8.555   7.346  18.883  0.00  0.00    +0.000 OA
ATOM     19  H   UNL     1       8.092   4.486  20.144  0.00  0.00    +0.000 HD
ATOM     20  H   UNL     1       9.154   5.758  20.720  0.00  0.00    +0.000 HD
ENDBRANCH  13  16
ENDBRANCH   5  11
BRANCH   2  21
ATOM     21  O   UNL     1       0.758   4.067  17.273  0.00  0.00    +0.000 OA
ATOM     22  H   UNL     1       0.634   4.926  16.831  0.00  0.00    +0.000 HD
ENDBRANCH   2  21
BRANCH   3  23
ATOM     23  C   UNL     1       2.397   6.044  20.066  0.00  0.00    +0.000 C 
BRANCH  23  24
ATOM     24  O   UNL     1       1.924   5.053  20.982  0.00  0.00    +0.000 OA
ATOM     25  H   UNL     1       1.035   4.796  20.670  0.00  0.00    +0.000 HD
ENDBRANCH  23  24
ENDBRANCH   3  23
TORSDOF 6
ENDMDL
MODEL 6
REMARK VINA RESULT:      -6.1      1.901      2.021
REMARK  Name = 
REMARK  7 active torsions:
REMARK  status: ('A' for Active; 'I' for Inactive)
REMARK    1  A    between atoms: C_1  and  C_2
REMARK    2  A    between atoms: N_4  and  C_5
REMARK    3  A    between atoms: C_6  and  O_7
REMARK    4  A    between atoms: C_8  and  C_9
REMARK    5  A    between atoms: C_9  and  O_10
REMARK    6  A    between atoms: C_12  and  C_13
REMARK    7  A    between atoms: C_15  and  C_16
REMARK                            x       y       z     vdW  Elec       q    Type
REMARK                         _______ _______ _______ _____ _____    ______ ____
ROOT
ATOM      1  C   UNL     1       2.726   4.535  20.475  0.00  0.00    +0.000 C 
ATOM      2  C   UNL     1       1.698   3.637  21.178  0.00  0.00    +0.000 C 
ATOM      3  C   UNL     1       1.515   2.485  20.194  0.00  0.00    +0.000 C 
ATOM      4  O   UNL     1       2.812   2.277  19.596  0.00  0.00    +0.000 OA
ATOM      5  C   UNL     1       3.615   3.465  19.805  0.00  0.00    +0.000 C 
ENDROOT
BRANCH   1   9
ATOM      6  C   UNL     1       2.025   7.480  18.190  0.00  0.00    +0.000 C 
ATOM      7  C   UNL     1       2.776   6.624  19.168  0.00  0.00    +0.000 C 
ATOM      8  O   UNL     1       3.911   6.895  19.547  0.00  0.00    +0.000 OA
ATOM      9  N   UNL     1       2.073   5.517  19.604  0.00  0.00    +0.000 N 
ATOM     10  H   UNL     1       1.300   5.198  19.024  0.00  0.00    +0.000 HD
ENDBRANCH   1   9
BRANCH   5  11
ATOM     11  C   UNL     1       4.300   3.829  18.512  0.00  0.00    +0.000 A 
ATOM     12  N   UNL     1       5.541   4.264  18.395  0.00  0.00    +0.000 NA
ATOM     13  C   UNL     1       5.913   4.292  17.039  0.00  0.00    +0.000 A 
ATOM     14  C   UNL     1       4.902   3.957  16.159  0.00  0.00    +0.000 A 
ATOM     15  S   UNL     1       3.479   3.563  17.011  0.00  0.00    +0.000 S 
BRANCH  13  16
ATOM     16  C   UNL     1       7.274   4.613  16.610  0.00  0.00    +0.000 C 
ATOM     17  N   UNL     1       7.331   5.420  15.510  0.00  0.00    +0.000 N 
ATOM     18  O   UNL     1       8.285   4.226  17.181  0.00  0.00    +0.000 OA
ATOM     19  H   UNL     1       6.480   5.801  15.122  0.00  0.00    +0.000 HD
ATOM     20  H   UNL     1       8.232   5.767  15.212  0.00  0.00    +0.000 HD
ENDBRANCH  13  16
ENDBRANCH   5  11
BRANCH   2  21
ATOM     21  O   UNL     1       2.253   3.162  22.415  0.00  0.00    +0.000 OA
ATOM     22  H   UNL     1       2.162   2.193  22.457  0.00  0.00    +0.000 HD
ENDBRANCH   2  21
BRANCH   3  23
ATOM     23  C   UNL     1       0.526   2.767  19.059  0.00  0.00    +0.000 C 
BRANCH  23  24
ATOM     24  O   UNL     1       0.356   1.588  18.269  0.00  0.00    +0.000 OA
ATOM     25  H   UNL     1       0.433   0.833  18.885  0.00  0.00    +0.000 HD
ENDBRANCH  23  24
ENDBRANCH   3  23
TORSDOF 6
ENDMDL
MODEL 7
REMARK VINA RESULT:      -6.1      2.806      5.757
REMARK  Name = 
REMARK  7 active torsions:
REMARK  status: ('A' for Active; 'I' for Inactive)
REMARK    1  A    between atoms: C_1  and  C_2
REMARK    2  A    between atoms: N_4  and  C_5
REMARK    3  A    between atoms: C_6  and  O_7
REMARK    4  A    between atoms: C_8  and  C_9
REMARK    5  A    between atoms: C_9  and  O_10
REMARK    6  A    between atoms: C_12  and  C_13
REMARK    7  A    between atoms: C_15  and  C_16
REMARK                            x       y       z     vdW  Elec       q    Type
REMARK                         _______ _______ _______ _____ _____    ______ ____
ROOT
ATOM      1  C   UNL     1       5.095   5.872  17.415  0.00  0.00    +0.000 C 
ATOM      2  C   UNL     1       5.682   6.165  16.027  0.00  0.00    +0.000 C 
ATOM      3  C   UNL     1       5.562   4.824  15.309  0.00  0.00    +0.000 C 
ATOM      4  O   UNL     1       4.338   4.234  15.796  0.00  0.00    +0.000 OA
ATOM      5  C   UNL     1       3.968   4.886  17.036  0.00  0.00    +0.000 C 
ENDROOT
BRANCH   1   9
ATOM      6  C   UNL     1       8.173   5.612  19.617  0.00  0.00    +0.000 C 
ATOM      7  C   UNL     1       7.261   6.159  18.557  0.00  0.00    +0.000 C 
ATOM      8  O   UNL     1       7.513   7.185  17.934  0.00  0.00    +0.000 OA
ATOM      9  N   UNL     1       6.127   5.398  18.344  0.00  0.00    +0.000 N 
ATOM     10  H   UNL     1       5.842   4.767  19.089  0.00  0.00    +0.000 HD
ENDBRANCH   1   9
BRANCH   5  11
ATOM     11  C   UNL     1       3.581   3.838  18.047  0.00  0.00    +0.000 A 
ATOM     12  N   UNL     1       3.166   4.074  19.279  0.00  0.00    +0.000 NA
ATOM     13  C   UNL     1       2.687   2.885  19.858  0.00  0.00    +0.000 A 
ATOM     14  C   UNL     1       2.836   1.761  19.070  0.00  0.00    +0.000 A 
ATOM     15  S   UNL     1       3.544   2.173  17.575  0.00  0.00    +0.000 S 
BRANCH  13  16
ATOM     16  C   UNL     1       2.048   2.861  21.174  0.00  0.00    +0.000 C 
ATOM     17  N   UNL     1       0.696   3.040  21.135  0.00  0.00    +0.000 N 
ATOM     18  O   UNL     1       2.647   2.677  22.226  0.00  0.00    +0.000 OA
ATOM     19  H   UNL     1       0.221   3.092  20.244  0.00  0.00    +0.000 HD
ATOM     20  H   UNL     1       0.171   2.937  21.992  0.00  0.00    +0.000 HD
ENDBRANCH  13  16
ENDBRANCH   5  11
BRANCH   2  21
ATOM     21  O   UNL     1       4.878   7.162  15.375  0.00  0.00    +0.000 OA
ATOM     22  H   UNL     1       4.278   6.728  14.742  0.00  0.00    +0.000 HD
ENDBRANCH   2  21
BRANCH   3  23
ATOM     23  C   UNL     1       6.696   3.839  15.605  0.00  0.00    +0.000 C 
BRANCH  23  24
ATOM     24  O   UNL     1       7.865   4.561  16.000  0.00  0.00    +0.000 OA
ATOM     25  H   UNL     1       7.672   5.504  15.835  0.00  0.00    +0.000 HD
ENDBRANCH  23  24
ENDBRANCH   3  23
TORSDOF 6
ENDMDL
MODEL 8
REMARK VINA RESULT:      -6.0      1.866      2.084
REMARK  Name = 
REMARK  7 active torsions:
REMARK  status: ('A' for Active; 'I' for Inactive)
REMARK    1  A    between atoms: C_1  and  C_2
REMARK    2  A    between atoms: N_4  and  C_5
REMARK    3  A    between atoms: C_6  and  O_7
REMARK    4  A    between atoms: C_8  and  C_9
REMARK    5  A    between atoms: C_9  and  O_10
REMARK    6  A    between atoms: C_12  and  C_13
REMARK    7  A    between atoms: C_15  and  C_16
REMARK                            x       y       z     vdW  Elec       q    Type
REMARK                         _______ _______ _______ _____ _____    ______ ____
ROOT
ATOM      1  C   UNL     1       2.867   5.231  20.183  0.00  0.00    +0.000 C 
ATOM      2  C   UNL     1       1.699   4.261  20.412  0.00  0.00    +0.000 C 
ATOM      3  C   UNL     1       1.842   3.269  19.261  0.00  0.00    +0.000 C 
ATOM      4  O   UNL     1       3.263   3.124  19.050  0.00  0.00    +0.000 OA
ATOM      5  C   UNL     1       3.939   4.252  19.657  0.00  0.00    +0.000 C 
ENDROOT
BRANCH   1   9
ATOM      6  C   UNL     1       1.749   8.607  18.864  0.00  0.00    +0.000 C 
ATOM      7  C   UNL     1       1.996   7.514  19.864  0.00  0.00    +0.000 C 
ATOM      8  O   UNL     1       1.778   7.655  21.063  0.00  0.00    +0.000 OA
ATOM      9  N   UNL     1       2.477   6.343  19.310  0.00  0.00    +0.000 N 
ATOM     10  H   UNL     1       2.919   6.407  18.396  0.00  0.00    +0.000 HD
ENDBRANCH   1   9
BRANCH   5  11
ATOM     11  C   UNL     1       4.967   4.787  18.692  0.00  0.00    +0.000 A 
ATOM     12  N   UNL     1       5.641   5.914  18.833  0.00  0.00    +0.000 NA
ATOM     13  C   UNL     1       6.661   5.985  17.868  0.00  0.00    +0.000 A 
ATOM     14  C   UNL     1       6.672   4.940  16.964  0.00  0.00    +0.000 A 
ATOM     15  S   UNL     1       5.430   3.830  17.326  0.00  0.00    +0.000 S 
BRANCH  13  16
ATOM     16  C   UNL     1       7.650   7.063  17.857  0.00  0.00    +0.000 C 
ATOM     17  N   UNL     1       8.425   7.114  18.979  0.00  0.00    +0.000 N 
ATOM     18  O   UNL     1       7.804   7.846  16.928  0.00  0.00    +0.000 OA
ATOM     19  H   UNL     1       8.339   6.394  19.683  0.00  0.00    +0.000 HD
ATOM     20  H   UNL     1       9.196   7.767  19.004  0.00  0.00    +0.000 HD
ENDBRANCH  13  16
ENDBRANCH   5  11
BRANCH   2  21
ATOM     21  O   UNL     1       1.874   3.599  21.674  0.00  0.00    +0.000 OA
ATOM     22  H   UNL     1       1.477   2.711  21.630  0.00  0.00    +0.000 HD
ENDBRANCH   2  21
BRANCH   3  23
ATOM     23  C   UNL     1       1.226   3.735  17.938  0.00  0.00    +0.000 C 
BRANCH  23  24
ATOM     24  O   UNL     1       2.015   3.253  16.847  0.00  0.00    +0.000 OA
ATOM     25  H   UNL     1       1.415   2.719  16.292  0.00  0.00    +0.000 HD
ENDBRANCH  23  24
ENDBRANCH   3  23
TORSDOF 6
ENDMDL
MODEL 9
REMARK VINA RESULT:      -6.0      2.174      5.093
REMARK  Name = 
REMARK  7 active torsions:
REMARK  status: ('A' for Active; 'I' for Inactive)
REMARK    1  A    between atoms: C_1  and  C_2
REMARK    2  A    between atoms: N_4  and  C_5
REMARK    3  A    between atoms: C_6  and  O_7
REMARK    4  A    between atoms: C_8  and  C_9
REMARK    5  A    between atoms: C_9  and  O_10
REMARK    6  A    between atoms: C_12  and  C_13
REMARK    7  A    between atoms: C_15  and  C_16
REMARK                            x       y       z     vdW  Elec       q    Type
REMARK                         _______ _______ _______ _____ _____    ______ ____
ROOT
ATOM      1  C   UNL     1       3.367   3.789  17.604  0.00  0.00    +0.000 C 
ATOM      2  C   UNL     1       3.310   2.297  17.959  0.00  0.00    +0.000 C 
ATOM      3  C   UNL     1       2.812   2.302  19.401  0.00  0.00    +0.000 C 
ATOM      4  O   UNL     1       1.888   3.407  19.487  0.00  0.00    +0.000 OA
ATOM      5  C   UNL     1       2.131   4.303  18.375  0.00  0.00    +0.000 C 
ENDROOT
BRANCH   1   9
ATOM      6  C   UNL     1       6.926   5.092  17.454  0.00  0.00    +0.000 C 
ATOM      7  C   UNL     1       5.691   4.360  17.014  0.00  0.00    +0.000 C 
ATOM      8  O   UNL     1       5.609   3.795  15.928  0.00  0.00    +0.000 OA
ATOM      9  N   UNL     1       4.670   4.372  17.945  0.00  0.00    +0.000 N 
ATOM     10  H   UNL     1       4.693   5.101  18.653  0.00  0.00    +0.000 HD
ENDBRANCH   1   9
BRANCH   5  11
ATOM     11  C   UNL     1       2.160   5.722  18.884  0.00  0.00    +0.000 A 
ATOM     12  N   UNL     1       2.210   6.808  18.133  0.00  0.00    +0.000 NA
ATOM     13  C   UNL     1       2.001   7.949  18.927  0.00  0.00    +0.000 A 
ATOM     14  C   UNL     1       1.884   7.694  20.280  0.00  0.00    +0.000 A 
ATOM     15  S   UNL     1       1.996   6.020  20.581  0.00  0.00    +0.000 S 
BRANCH  13  16
ATOM     16  C   UNL     1       1.879   9.288  18.351  0.00  0.00    +0.000 C 
ATOM     17  N   UNL     1       1.201  10.170  19.142  0.00  0.00    +0.000 N 
ATOM     18  O   UNL     1       2.352   9.619  17.271  0.00  0.00    +0.000 OA
ATOM     19  H   UNL     1       0.909   9.892  20.069  0.00  0.00    +0.000 HD
ATOM     20  H   UNL     1       1.161  11.139  18.860  0.00  0.00    +0.000 HD
ENDBRANCH  13  16
ENDBRANCH   5  11
BRANCH   2  21
ATOM     21  O   UNL     1       2.363   1.642  17.099  0.00  0.00    +0.000 OA
ATOM     22  H   UNL     1       2.733   0.793  16.799  0.00  0.00    +0.000 HD
ENDBRANCH   2  21
BRANCH   3  23
ATOM     23  C   UNL     1       3.902   2.532  20.451  0.00  0.00    +0.000 C 
BRANCH  23  24
ATOM     24  O   UNL     1       5.148   2.023  19.967  0.00  0.00    +0.000 OA
ATOM     25  H   UNL     1       5.619   1.669  20.746  0.00  0.00    +0.000 HD
ENDBRANCH  23  24
ENDBRANCH   3  23
TORSDOF 6
ENDMDL
