MODEL 1
REMARK VINA RESULT:      -7.2      0.000      0.000
REMARK  Name = 
REMARK  7 active torsions:
REMARK  status: ('A' for Active; 'I' for Inactive)
REMARK    1  A    between atoms: C_1  and  C_2
REMARK    2  A    between atoms: C_2  and  O_3
REMARK    3  A    between atoms: O_3  and  C_4
REMARK    4  A    between atoms: C_4  and  C_5
REMARK    5  A    between atoms: C_5  and  C_6
REMARK    6  A    between atoms: C_10  and  C_12
REMARK    7  A    between atoms: C_16  and  N_17
REMARK                            x       y       z     vdW  Elec       q    Type
REMARK                         _______ _______ _______ _____ _____    ______ ____
ROOT
ATOM      1  C   UNL     1       6.338   5.017  14.592  0.00  0.00    +0.000 C 
ATOM      2  C   UNL     1       7.398   5.132  15.701  0.00  0.00    +0.000 C 
ATOM      3  C   UNL     1       7.022   4.383  16.983  0.00  0.00    +0.000 C 
ATOM      4  N   UNL     1       5.685   4.745  17.456  0.00  0.00    +0.000 N 
ATOM      5  C   UNL     1       5.485   4.888  18.840  0.00  0.00    +0.000 C 
ATOM      6  O   UNL     1       6.427   4.908  19.642  0.00  0.00    +0.000 OA
ATOM      7  C   UNL     1       4.625   4.666  16.451  0.00  0.00    +0.000 C 
ATOM      8  C   UNL     1       4.980   5.420  15.177  0.00  0.00    +0.000 C 
ENDROOT
BRANCH   5   9
ATOM      9  C   UNL     1       4.103   5.086  19.407  0.00  0.00    +0.000 A 
ATOM     10  C   UNL     1       3.503   4.054  20.116  0.00  0.00    +0.000 A 
ATOM     11  C   UNL     1       2.274   4.292  20.727  0.00  0.00    +0.000 A 
ATOM     12  C   UNL     1       1.688   5.553  20.624  0.00  0.00    +0.000 A 
ATOM     13  C   UNL     1       2.341   6.527  19.875  0.00  0.00    +0.000 A 
ATOM     14  N   UNL     1       3.511   6.296  19.229  0.00  0.00    +0.000 NA
BRANCH  13  15
ATOM     15  N   UNL     1       1.819   7.856  19.832  0.00  0.00    +0.000 N 
ATOM     16  C   UNL     1       1.137   8.489  20.851  0.00  0.00    +0.000 A 
ATOM     17  C   UNL     1       0.751   9.718  20.379  0.00  0.00    +0.000 A 
ATOM     18  C   UNL     1       1.240   9.756  19.065  0.00  0.00    +0.000 A 
ATOM     19  N   UNL     1       1.890   8.640  18.722  0.00  0.00    +0.000 NA
ENDBRANCH  13  15
ENDBRANCH   5   9
BRANCH   1  20
ATOM     20  C   UNL     1       6.345   3.639  13.895  0.00  0.00    +0.000 C 
BRANCH  20  21
ATOM     21  C   UNL     1       6.907   3.718  12.472  0.00  0.00    +0.000 C 
BRANCH  21  22
ATOM     22  O   UNL     1       5.869   3.900  11.508  0.00  0.00    +0.000 OA
BRANCH  22  24
ATOM     23  C   UNL     1       3.617   3.271  10.895  0.00  0.00    +0.000 C 
ATOM     24  C   UNL     1       4.846   2.918  11.707  0.00  0.00    +0.000 C 
ENDBRANCH  22  24
ENDBRANCH  21  22
ENDBRANCH  20  21
ENDBRANCH   1  20
TORSDOF 6
ENDMDL
MODEL 2
REMARK VINA RESULT:      -7.1      0.880      1.219
REMARK  Name = 
REMARK  7 active torsions:
REMARK  status: ('A' for Active; 'I' for Inactive)
REMARK    1  A    between atoms: C_1  and  C_2
REMARK    2  A    between atoms: C_2  and  O_3
REMARK    3  A    between atoms: O_3  and  C_4
REMARK    4  A    between atoms: C_4  and  C_5
REMARK    5  A    between atoms: C_5  and  C_6
REMARK    6  A    between atoms: C_10  and  C_12
REMARK    7  A    between atoms: C_16  and  N_17
REMARK                            x       y       z     vdW  Elec       q    Type
REMARK                         _______ _______ _______ _____ _____    ______ ____
ROOT
ATOM      1  C   UNL     1       6.344   4.995  14.514  0.00  0.00    +0.000 C 
ATOM      2  C   UNL     1       7.414   5.126  15.611  0.00  0.00    +0.000 C 
ATOM      3  C   UNL     1       7.075   4.353  16.889  0.00  0.00    +0.000 C 
ATOM      4  N   UNL     1       5.734   4.672  17.383  0.00  0.00    +0.000 N 
ATOM      5  C   UNL     1       5.548   4.795  18.771  0.00  0.00    +0.000 C 
ATOM      6  O   UNL     1       6.500   4.831  19.561  0.00  0.00    +0.000 OA
ATOM      7  C   UNL     1       4.665   4.577  16.391  0.00  0.00    +0.000 C 
ATOM      8  C   UNL     1       4.983   5.353  15.121  0.00  0.00    +0.000 C 
ENDROOT
BRANCH   5   9
ATOM      9  C   UNL     1       4.169   4.949  19.357  0.00  0.00    +0.000 A 
ATOM     10  C   UNL     1       3.607   3.893  20.063  0.00  0.00    +0.000 A 
ATOM     11  C   UNL     1       2.379   4.091  20.691  0.00  0.00    +0.000 A 
ATOM     12  C   UNL     1       1.758   5.336  20.610  0.00  0.00    +0.000 A 
ATOM     13  C   UNL     1       2.374   6.336  19.863  0.00  0.00    +0.000 A 
ATOM     14  N   UNL     1       3.542   6.144  19.200  0.00  0.00    +0.000 NA
BRANCH  13  15
ATOM     15  N   UNL     1       1.816   7.650  19.841  0.00  0.00    +0.000 N 
ATOM     16  C   UNL     1       1.824   8.513  18.763  0.00  0.00    +0.000 A 
ATOM     17  C   UNL     1       1.254   9.689  19.180  0.00  0.00    +0.000 A 
ATOM     18  C   UNL     1       0.923   9.458  20.524  0.00  0.00    +0.000 A 
ATOM     19  N   UNL     1       1.253   8.231  20.935  0.00  0.00    +0.000 NA
ENDBRANCH  13  15
ENDBRANCH   5   9
BRANCH   1  20
ATOM     20  C   UNL     1       6.380   3.625  13.802  0.00  0.00    +0.000 C 
BRANCH  20  21
ATOM     21  C   UNL     1       6.527   3.772  12.284  0.00  0.00    +0.000 C 
BRANCH  21  22
ATOM     22  O   UNL     1       6.926   2.543  11.674  0.00  0.00    +0.000 OA
BRANCH  22  24
ATOM     23  C   UNL     1       6.173   0.299  11.183  0.00  0.00    +0.000 C 
ATOM     24  C   UNL     1       5.770   1.744  11.396  0.00  0.00    +0.000 C 
ENDBRANCH  22  24
ENDBRANCH  21  22
ENDBRANCH  20  21
ENDBRANCH   1  20
TORSDOF 6
ENDMDL
MODEL 3
REMARK VINA RESULT:      -6.8      2.010      3.336
REMARK  Name = 
REMARK  7 active torsions:
REMARK  status: ('A' for Active; 'I' for Inactive)
REMARK    1  A    between atoms: C_1  and  C_2
REMARK    2  A    between atoms: C_2  and  O_3
REMARK    3  A    between atoms: O_3  and  C_4
REMARK    4  A    between atoms: C_4  and  C_5
REMARK    5  A    between atoms: C_5  and  C_6
REMARK    6  A    between atoms: C_10  and  C_12
REMARK    7  A    between atoms: C_16  and  N_17
REMARK                            x       y       z     vdW  Elec       q    Type
REMARK                         _______ _______ _______ _____ _____    ______ ____
ROOT
ATOM      1  C   UNL     1       6.024   4.635  17.130  0.00  0.00    +0.000 C 
ATOM      2  C   UNL     1       5.470   3.999  18.416  0.00  0.00    +0.000 C 
ATOM      3  C   UNL     1       3.972   4.242  18.620  0.00  0.00    +0.000 C 
ATOM      4  N   UNL     1       3.628   5.661  18.513  0.00  0.00    +0.000 N 
ATOM      5  C   UNL     1       2.671   6.182  19.401  0.00  0.00    +0.000 C 
ATOM      6  O   UNL     1       2.259   5.541  20.375  0.00  0.00    +0.000 OA
ATOM      7  C   UNL     1       4.130   6.336  17.317  0.00  0.00    +0.000 C 
ATOM      8  C   UNL     1       5.621   6.114  17.111  0.00  0.00    +0.000 C 
ENDROOT
BRANCH   5   9
ATOM      9  C   UNL     1       2.144   7.584  19.236  0.00  0.00    +0.000 A 
ATOM     10  C   UNL     1       2.184   8.184  17.984  0.00  0.00    +0.000 A 
ATOM     11  C   UNL     1       1.593   9.436  17.826  0.00  0.00    +0.000 A 
ATOM     12  C   UNL     1       0.969  10.044  18.914  0.00  0.00    +0.000 A 
ATOM     13  C   UNL     1       0.993   9.389  20.142  0.00  0.00    +0.000 A 
ATOM     14  N   UNL     1       1.611   8.195  20.326  0.00  0.00    +0.000 NA
BRANCH  13  15
ATOM     15  N   UNL     1       0.280   9.936  21.251  0.00  0.00    +0.000 N 
ATOM     16  C   UNL     1       0.164   9.360  22.501  0.00  0.00    +0.000 A 
ATOM     17  C   UNL     1      -0.657  10.167  23.246  0.00  0.00    +0.000 A 
ATOM     18  C   UNL     1      -0.997  11.214  22.377  0.00  0.00    +0.000 A 
ATOM     19  N   UNL     1      -0.437  11.090  21.171  0.00  0.00    +0.000 NA
ENDBRANCH  13  15
ENDBRANCH   5   9
BRANCH   1  20
ATOM     20  C   UNL     1       5.633   3.855  15.856  0.00  0.00    +0.000 C 
BRANCH  20  21
ATOM     21  C   UNL     1       5.957   4.638  14.581  0.00  0.00    +0.000 C 
BRANCH  21  22
ATOM     22  O   UNL     1       5.304   4.077  13.440  0.00  0.00    +0.000 OA
BRANCH  22  24
ATOM     23  C   UNL     1       5.659   2.465  11.674  0.00  0.00    +0.000 C 
ATOM     24  C   UNL     1       6.281   3.541  12.540  0.00  0.00    +0.000 C 
ENDBRANCH  22  24
ENDBRANCH  21  22
ENDBRANCH  20  21
ENDBRANCH   1  20
TORSDOF 6
ENDMDL
MODEL 4
REMARK VINA RESULT:      -6.5      3.424      5.893
REMARK  Name = 
REMARK  7 active torsions:
REMARK  status: ('A' for Active; 'I' for Inactive)
REMARK    1  A    between atoms: C_1  and  C_2
REMARK    2  A    between atoms: C_2  and  O_3
REMARK    3  A    between atoms: O_3  and  C_4
REMARK    4  A    between atoms: C_4  and  C_5
REMARK    5  A    between atoms: C_5  and  C_6
REMARK    6  A    between atoms: C_10  and  C_12
REMARK    7  A    between atoms: C_16  and  N_17
REMARK                            x       y       z     vdW  Elec       q    Type
REMARK                         _______ _______ _______ _____ _____    ______ ____
ROOT
ATOM      1  C   UNL     1       3.494   4.773  17.944  0.00  0.00    +0.000 C 
ATOM      2  C   UNL     1       4.096   5.867  17.046  0.00  0.00    +0.000 C 
ATOM      3  C   UNL     1       4.071   7.260  17.682  0.00  0.00    +0.000 C 
ATOM      4  N   UNL     1       2.736   7.615  18.169  0.00  0.00    +0.000 N 
ATOM      5  C   UNL     1       2.295   8.938  17.993  0.00  0.00    +0.000 C 
ATOM      6  O   UNL     1       2.906   9.746  17.282  0.00  0.00    +0.000 OA
ATOM      7  C   UNL     1       2.097   6.616  19.024  0.00  0.00    +0.000 C 
ATOM      8  C   UNL     1       2.102   5.229  18.397  0.00  0.00    +0.000 C 
ENDROOT
BRANCH   5   9
ATOM      9  C   UNL     1       1.011   9.416  18.620  0.00  0.00    +0.000 A 
ATOM     10  C   UNL     1       0.974   9.674  19.984  0.00  0.00    +0.000 A 
ATOM     11  C   UNL     1      -0.187  10.220  20.527  0.00  0.00    +0.000 A 
ATOM     12  C   UNL     1      -1.268  10.504  19.694  0.00  0.00    +0.000 A 
ATOM     13  C   UNL     1      -1.161  10.194  18.342  0.00  0.00    +0.000 A 
ATOM     14  N   UNL     1      -0.059   9.612  17.806  0.00  0.00    +0.000 NA
BRANCH  13  15
ATOM     15  N   UNL     1      -2.209  10.563  17.445  0.00  0.00    +0.000 N 
ATOM     16  C   UNL     1      -3.278  11.385  17.746  0.00  0.00    +0.000 A 
ATOM     17  C   UNL     1      -4.084  11.424  16.637  0.00  0.00    +0.000 A 
ATOM     18  C   UNL     1      -3.435  10.601  15.704  0.00  0.00    +0.000 A 
ATOM     19  N   UNL     1      -2.300  10.078  16.177  0.00  0.00    +0.000 NA
ENDBRANCH  13  15
ENDBRANCH   5   9
BRANCH   1  20
ATOM     20  C   UNL     1       4.433   4.360  19.099  0.00  0.00    +0.000 C 
BRANCH  20  21
ATOM     21  C   UNL     1       5.908   4.549  18.734  0.00  0.00    +0.000 C 
BRANCH  21  22
ATOM     22  O   UNL     1       6.588   5.358  19.697  0.00  0.00    +0.000 OA
BRANCH  22  24
ATOM     23  C   UNL     1       7.741   6.876  18.212  0.00  0.00    +0.000 C 
ATOM     24  C   UNL     1       7.875   5.730  19.193  0.00  0.00    +0.000 C 
ENDBRANCH  22  24
ENDBRANCH  21  22
ENDBRANCH  20  21
ENDBRANCH   1  20
TORSDOF 6
ENDMDL
MODEL 5
REMARK VINA RESULT:      -6.5      3.275      7.750
REMARK  Name = 
REMARK  7 active torsions:
REMARK  status: ('A' for Active; 'I' for Inactive)
REMARK    1  A    between atoms: C_1  and  C_2
REMARK    2  A    between atoms: C_2  and  O_3
REMARK    3  A    between atoms: O_3  and  C_4
REMARK    4  A    between atoms: C_4  and  C_5
REMARK    5  A    between atoms: C_5  and  C_6
REMARK    6  A    between atoms: C_10  and  C_12
REMARK    7  A    between atoms: C_16  and  N_17
REMARK                            x       y       z     vdW  Elec       q    Type
REMARK                         _______ _______ _______ _____ _____    ______ ____
ROOT
ATOM      1  C   UNL     1       0.841  10.353  18.936  0.00  0.00    +0.000 C 
ATOM      2  C   UNL     1       0.394   9.662  20.236  0.00  0.00    +0.000 C 
ATOM      3  C   UNL     1       1.392   8.618  20.746  0.00  0.00    +0.000 C 
ATOM      4  N   UNL     1       1.758   7.656  19.704  0.00  0.00    +0.000 N 
ATOM      5  C   UNL     1       1.906   6.306  20.069  0.00  0.00    +0.000 C 
ATOM      6  O   UNL     1       1.557   5.882  21.177  0.00  0.00    +0.000 OA
ATOM      7  C   UNL     1       2.186   8.242  18.435  0.00  0.00    +0.000 C 
ATOM      8  C   UNL     1       1.194   9.271  17.910  0.00  0.00    +0.000 C 
ENDROOT
BRANCH   5   9
ATOM      9  C   UNL     1       2.447   5.295  19.092  0.00  0.00    +0.000 A 
ATOM     10  C   UNL     1       1.564   4.471  18.406  0.00  0.00    +0.000 A 
ATOM     11  C   UNL     1       2.071   3.620  17.427  0.00  0.00    +0.000 A 
ATOM     12  C   UNL     1       3.438   3.626  17.151  0.00  0.00    +0.000 A 
ATOM     13  C   UNL     1       4.260   4.464  17.899  0.00  0.00    +0.000 A 
ATOM     14  N   UNL     1       3.790   5.259  18.893  0.00  0.00    +0.000 NA
BRANCH  13  15
ATOM     15  N   UNL     1       5.647   4.568  17.576  0.00  0.00    +0.000 N 
ATOM     16  C   UNL     1       6.178   4.626  16.303  0.00  0.00    +0.000 A 
ATOM     17  C   UNL     1       7.543   4.649  16.433  0.00  0.00    +0.000 A 
ATOM     18  C   UNL     1       7.762   4.604  17.818  0.00  0.00    +0.000 A 
ATOM     19  N   UNL     1       6.627   4.559  18.521  0.00  0.00    +0.000 NA
ENDBRANCH  13  15
ENDBRANCH   5   9
BRANCH   1  20
ATOM     20  C   UNL     1       1.954  11.399  19.164  0.00  0.00    +0.000 C 
BRANCH  20  21
ATOM     21  C   UNL     1       2.397  12.060  17.856  0.00  0.00    +0.000 C 
BRANCH  21  22
ATOM     22  O   UNL     1       2.182  13.472  17.882  0.00  0.00    +0.000 OA
BRANCH  22  24
ATOM     23  C   UNL     1       3.729  15.316  17.657  0.00  0.00    +0.000 C 
ATOM     24  C   UNL     1       3.306  14.121  18.487  0.00  0.00    +0.000 C 
ENDBRANCH  22  24
ENDBRANCH  21  22
ENDBRANCH  20  21
ENDBRANCH   1  20
TORSDOF 6
ENDMDL
MODEL 6
REMARK VINA RESULT:      -6.4      3.829      6.376
REMARK  Name = 
REMARK  7 active torsions:
REMARK  status: ('A' for Active; 'I' for Inactive)
REMARK    1  A    between atoms: C_1  and  C_2
REMARK    2  A    between atoms: C_2  and  O_3
REMARK    3  A    between atoms: O_3  and  C_4
REMARK    4  A    between atoms: C_4  and  C_5
REMARK    5  A    between atoms: C_5  and  C_6
REMARK    6  A    between atoms: C_10  and  C_12
REMARK    7  A    between atoms: C_16  and  N_17
REMARK                            x       y       z     vdW  Elec       q    Type
REMARK                         _______ _______ _______ _____ _____    ______ ____
ROOT
ATOM      1  C   UNL     1       3.852   6.026  18.171  0.00  0.00    +0.000 C 
ATOM      2  C   UNL     1       3.635   5.960  19.692  0.00  0.00    +0.000 C 
ATOM      3  C   UNL     1       2.239   6.414  20.129  0.00  0.00    +0.000 C 
ATOM      4  N   UNL     1       1.892   7.724  19.577  0.00  0.00    +0.000 N 
ATOM      5  C   UNL     1       1.194   8.628  20.397  0.00  0.00    +0.000 C 
ATOM      6  O   UNL     1       1.037   8.430  21.609  0.00  0.00    +0.000 OA
ATOM      7  C   UNL     1       2.081   7.864  18.134  0.00  0.00    +0.000 C 
ATOM      8  C   UNL     1       3.470   7.430  17.688  0.00  0.00    +0.000 C 
ENDROOT
BRANCH   5   9
ATOM      9  C   UNL     1       0.655   9.920  19.842  0.00  0.00    +0.000 A 
ATOM     10  C   UNL     1       1.399  11.084  19.980  0.00  0.00    +0.000 A 
ATOM     11  C   UNL     1       0.938  12.247  19.366  0.00  0.00    +0.000 A 
ATOM     12  C   UNL     1      -0.240  12.211  18.622  0.00  0.00    +0.000 A 
ATOM     13  C   UNL     1      -0.942  11.011  18.553  0.00  0.00    +0.000 A 
ATOM     14  N   UNL     1      -0.536   9.883  19.189  0.00  0.00    +0.000 NA
BRANCH  13  15
ATOM     15  N   UNL     1      -2.098  10.913  17.720  0.00  0.00    +0.000 N 
ATOM     16  C   UNL     1      -2.223  10.112  16.602  0.00  0.00    +0.000 A 
ATOM     17  C   UNL     1      -3.455  10.368  16.055  0.00  0.00    +0.000 A 
ATOM     18  C   UNL     1      -4.018  11.335  16.901  0.00  0.00    +0.000 A 
ATOM     19  N   UNL     1      -3.212  11.672  17.912  0.00  0.00    +0.000 NA
ENDBRANCH  13  15
ENDBRANCH   5   9
BRANCH   1  20
ATOM     20  C   UNL     1       3.145   4.881  17.413  0.00  0.00    +0.000 C 
BRANCH  20  21
ATOM     21  C   UNL     1       3.175   3.568  18.201  0.00  0.00    +0.000 C 
BRANCH  21  22
ATOM     22  O   UNL     1       1.859   3.050  18.407  0.00  0.00    +0.000 OA
BRANCH  22  24
ATOM     23  C   UNL     1       1.251   2.922  20.743  0.00  0.00    +0.000 C 
ATOM     24  C   UNL     1       1.851   2.196  19.557  0.00  0.00    +0.000 C 
ENDBRANCH  22  24
ENDBRANCH  21  22
ENDBRANCH  20  21
ENDBRANCH   1  20
TORSDOF 6
ENDMDL
MODEL 7
REMARK VINA RESULT:      -6.3      3.257      7.934
REMARK  Name = 
REMARK  7 active torsions:
REMARK  status: ('A' for Active; 'I' for Inactive)
REMARK    1  A    between atoms: C_1  and  C_2
REMARK    2  A    between atoms: C_2  and  O_3
REMARK    3  A    between atoms: O_3  and  C_4
REMARK    4  A    between atoms: C_4  and  C_5
REMARK    5  A    between atoms: C_5  and  C_6
REMARK    6  A    between atoms: C_10  and  C_12
REMARK    7  A    between atoms: C_16  and  N_17
REMARK                            x       y       z     vdW  Elec       q    Type
REMARK                         _______ _______ _______ _____ _____    ______ ____
ROOT
ATOM      1  C   UNL     1       0.898  10.362  18.937  0.00  0.00    +0.000 C 
ATOM      2  C   UNL     1       0.459   9.683  20.246  0.00  0.00    +0.000 C 
ATOM      3  C   UNL     1       1.453   8.634  20.751  0.00  0.00    +0.000 C 
ATOM      4  N   UNL     1       1.798   7.662  19.713  0.00  0.00    +0.000 N 
ATOM      5  C   UNL     1       1.939   6.313  20.084  0.00  0.00    +0.000 C 
ATOM      6  O   UNL     1       1.597   5.899  21.199  0.00  0.00    +0.000 OA
ATOM      7  C   UNL     1       2.218   8.236  18.435  0.00  0.00    +0.000 C 
ATOM      8  C   UNL     1       1.231   9.270  17.914  0.00  0.00    +0.000 C 
ENDROOT
BRANCH   5   9
ATOM      9  C   UNL     1       2.459   5.291  19.108  0.00  0.00    +0.000 A 
ATOM     10  C   UNL     1       1.563   4.458  18.452  0.00  0.00    +0.000 A 
ATOM     11  C   UNL     1       2.050   3.595  17.472  0.00  0.00    +0.000 A 
ATOM     12  C   UNL     1       3.411   3.600  17.167  0.00  0.00    +0.000 A 
ATOM     13  C   UNL     1       4.247   4.447  17.886  0.00  0.00    +0.000 A 
ATOM     14  N   UNL     1       3.798   5.254  18.880  0.00  0.00    +0.000 NA
BRANCH  13  15
ATOM     15  N   UNL     1       5.627   4.549  17.532  0.00  0.00    +0.000 N 
ATOM     16  C   UNL     1       6.129   4.612  16.247  0.00  0.00    +0.000 A 
ATOM     17  C   UNL     1       7.497   4.631  16.346  0.00  0.00    +0.000 A 
ATOM     18  C   UNL     1       7.747   4.579  17.725  0.00  0.00    +0.000 A 
ATOM     19  N   UNL     1       6.628   4.533  18.454  0.00  0.00    +0.000 NA
ENDBRANCH  13  15
ENDBRANCH   5   9
BRANCH   1  20
ATOM     20  C   UNL     1       2.023  11.399  19.146  0.00  0.00    +0.000 C 
BRANCH  20  21
ATOM     21  C   UNL     1       1.911  12.573  18.168  0.00  0.00    +0.000 C 
BRANCH  21  22
ATOM     22  O   UNL     1       2.055  13.828  18.836  0.00  0.00    +0.000 OA
BRANCH  22  24
ATOM     23  C   UNL     1      -0.343  14.130  18.782  0.00  0.00    +0.000 C 
ATOM     24  C   UNL     1       0.901  14.079  19.646  0.00  0.00    +0.000 C 
ENDBRANCH  22  24
ENDBRANCH  21  22
ENDBRANCH  20  21
ENDBRANCH   1  20
TORSDOF 6
ENDMDL
MODEL 8
REMARK VINA RESULT:      -6.3      3.255      5.889
REMARK  Name = 
REMARK  7 active torsions:
REMARK  status: ('A' for Active; 'I' for Inactive)
REMARK    1  A    between atoms: C_1  and  C_2
REMARK    2  A    between atoms: C_2  and  O_3
REMARK    3  A    between atoms: O_3  and  C_4
REMARK    4  A    between atoms: C_4  and  C_5
REMARK    5  A    between atoms: C_5  and  C_6
REMARK    6  A    between atoms: C_10  and  C_12
REMARK    7  A    between atoms: C_16  and  N_17
REMARK                            x       y       z     vdW  Elec       q    Type
REMARK                         _______ _______ _______ _____ _____    ______ ____
ROOT
ATOM      1  C   UNL     1       3.528   5.275  18.486  0.00  0.00    +0.000 C 
ATOM      2  C   UNL     1       3.967   6.253  17.383  0.00  0.00    +0.000 C 
ATOM      3  C   UNL     1       3.894   7.723  17.807  0.00  0.00    +0.000 C 
ATOM      4  N   UNL     1       2.584   8.067  18.363  0.00  0.00    +0.000 N 
ATOM      5  C   UNL     1       2.032   9.319  18.038  0.00  0.00    +0.000 C 
ATOM      6  O   UNL     1       2.518  10.044  17.162  0.00  0.00    +0.000 OA
ATOM      7  C   UNL     1       2.097   7.174  19.413  0.00  0.00    +0.000 C 
ATOM      8  C   UNL     1       2.151   5.711  18.998  0.00  0.00    +0.000 C 
ENDROOT
BRANCH   5   9
ATOM      9  C   UNL     1       0.775   9.808  18.709  0.00  0.00    +0.000 A 
ATOM     10  C   UNL     1       0.804  10.124  20.061  0.00  0.00    +0.000 A 
ATOM     11  C   UNL     1      -0.336  10.680  20.640  0.00  0.00    +0.000 A 
ATOM     12  C   UNL     1      -1.461  10.916  19.852  0.00  0.00    +0.000 A 
ATOM     13  C   UNL     1      -1.419  10.549  18.510  0.00  0.00    +0.000 A 
ATOM     14  N   UNL     1      -0.337   9.957  17.944  0.00  0.00    +0.000 NA
BRANCH  13  15
ATOM     15  N   UNL     1      -2.516  10.867  17.654  0.00  0.00    +0.000 N 
ATOM     16  C   UNL     1      -3.710  11.438  18.048  0.00  0.00    +0.000 A 
ATOM     17  C   UNL     1      -4.512  11.509  16.937  0.00  0.00    +0.000 A 
ATOM     18  C   UNL     1      -3.731  10.963  15.908  0.00  0.00    +0.000 A 
ATOM     19  N   UNL     1      -2.523  10.575  16.324  0.00  0.00    +0.000 NA
ENDBRANCH  13  15
ENDBRANCH   5   9
BRANCH   1  20
ATOM     20  C   UNL     1       4.591   5.101  19.592  0.00  0.00    +0.000 C 
BRANCH  20  21
ATOM     21  C   UNL     1       6.008   5.365  19.073  0.00  0.00    +0.000 C 
BRANCH  21  22
ATOM     22  O   UNL     1       6.575   4.196  18.478  0.00  0.00    +0.000 OA
BRANCH  22  24
ATOM     23  C   UNL     1       7.028   4.507  16.125  0.00  0.00    +0.000 C 
ATOM     24  C   UNL     1       7.582   4.574  17.533  0.00  0.00    +0.000 C 
ENDBRANCH  22  24
ENDBRANCH  21  22
ENDBRANCH  20  21
ENDBRANCH   1  20
TORSDOF 6
ENDMDL
MODEL 9
REMARK VINA RESULT:      -6.3      3.597      8.174
REMARK  Name = 
REMARK  7 active torsions:
REMARK  status: ('A' for Active; 'I' for Inactive)
REMARK    1  A    between atoms: C_1  and  C_2
REMARK    2  A    between atoms: C_2  and  O_3
REMARK    3  A    between atoms: O_3  and  C_4
REMARK    4  A    between atoms: C_4  and  C_5
REMARK    5  A    between atoms: C_5  and  C_6
REMARK    6  A    between atoms: C_10  and  C_12
REMARK    7  A    between atoms: C_16  and  N_17
REMARK                            x       y       z     vdW  Elec       q    Type
REMARK                         _______ _______ _______ _____ _____    ______ ____
ROOT
ATOM      1  C   UNL     1       0.576  10.506  18.768  0.00  0.00    +0.000 C 
ATOM      2  C   UNL     1       0.092   9.843  20.068  0.00  0.00    +0.000 C 
ATOM      3  C   UNL     1       1.113   8.879  20.680  0.00  0.00    +0.000 C 
ATOM      4  N   UNL     1       1.593   7.899  19.704  0.00  0.00    +0.000 N 
ATOM      5  C   UNL     1       1.793   6.576  20.134  0.00  0.00    +0.000 C 
ATOM      6  O   UNL     1       1.402   6.176  21.237  0.00  0.00    +0.000 OA
ATOM      7  C   UNL     1       2.064   8.458  18.437  0.00  0.00    +0.000 C 
ATOM      8  C   UNL     1       1.050   9.406  17.812  0.00  0.00    +0.000 C 
ENDROOT
BRANCH   5   9
ATOM      9  C   UNL     1       2.447   5.559  19.234  0.00  0.00    +0.000 A 
ATOM     10  C   UNL     1       1.654   4.760  18.421  0.00  0.00    +0.000 A 
ATOM     11  C   UNL     1       2.278   3.904  17.516  0.00  0.00    +0.000 A 
ATOM     12  C   UNL     1       3.670   3.881  17.439  0.00  0.00    +0.000 A 
ATOM     13  C   UNL     1       4.394   4.696  18.304  0.00  0.00    +0.000 A 
ATOM     14  N   UNL     1       3.804   5.494  19.229  0.00  0.00    +0.000 NA
BRANCH  13  15
ATOM     15  N   UNL     1       5.815   4.771  18.184  0.00  0.00    +0.000 N 
ATOM     16  C   UNL     1       6.668   5.400  19.069  0.00  0.00    +0.000 A 
ATOM     17  C   UNL     1       7.934   5.302  18.550  0.00  0.00    +0.000 A 
ATOM     18  C   UNL     1       7.766   4.598  17.349  0.00  0.00    +0.000 A 
ATOM     19  N   UNL     1       6.492   4.268  17.116  0.00  0.00    +0.000 NA
ENDBRANCH  13  15
ENDBRANCH   5   9
BRANCH   1  20
ATOM     20  C   UNL     1       1.615  11.623  19.015  0.00  0.00    +0.000 C 
BRANCH  20  21
ATOM     21  C   UNL     1       1.148  12.613  20.086  0.00  0.00    +0.000 C 
BRANCH  21  22
ATOM     22  O   UNL     1       0.233  13.571  19.552  0.00  0.00    +0.000 OA
BRANCH  22  24
ATOM     23  C   UNL     1      -2.036  12.901  20.051  0.00  0.00    +0.000 C 
ATOM     24  C   UNL     1      -0.856  13.759  20.463  0.00  0.00    +0.000 C 
ENDBRANCH  22  24
ENDBRANCH  21  22
ENDBRANCH  20  21
ENDBRANCH   1  20
TORSDOF 6
ENDMDL
