MODEL 1
REMARK VINA RESULT:      -9.1      0.000      0.000
REMARK  Name = 
REMARK  7 active torsions:
REMARK  status: ('A' for Active; 'I' for Inactive)
REMARK    1  A    between atoms: C_2  and  C_3
REMARK    2  A    between atoms: C_2  and  C_17
REMARK    3  A    between atoms: C_6  and  S_7
REMARK    4  A    between atoms: S_7  and  C_8
REMARK    5  A    between atoms: C_11  and  O_12
REMARK    6  A    between atoms: C_21  and  C_23
REMARK    7  A    between atoms: C_27  and  O_28
REMARK                            x       y       z     vdW  Elec       q    Type
REMARK                         _______ _______ _______ _____ _____    ______ ____
ROOT
ATOM      1  O   UNL     1       1.392   3.427  19.170  0.00  0.00    +0.000 OA
ATOM      2  C   UNL     1       2.355   4.156  18.928  0.00  0.00    +0.000 C 
ENDROOT
BRANCH   2   3
ATOM      3  C   UNL     1       3.621   3.612  18.231  0.00  0.00    +0.000 C 
ATOM      4  C   UNL     1       4.932   4.022  18.969  0.00  0.00    +0.000 C 
ATOM      5  C   UNL     1       5.711   5.200  18.363  0.00  0.00    +0.000 C 
ATOM      6  N   UNL     1       5.754   5.136  16.906  0.00  0.00    +0.000 N 
ATOM      7  C   UNL     1       6.935   4.721  16.271  0.00  0.00    +0.000 C 
ATOM      8  O   UNL     1       7.948   4.420  16.908  0.00  0.00    +0.000 OA
ATOM      9  C   UNL     1       4.430   5.117  16.322  0.00  0.00    +0.000 C 
ATOM     10  C   UNL     1       3.727   3.837  16.715  0.00  0.00    +0.000 C 
BRANCH   7  11
ATOM     11  C   UNL     1       7.004   4.586  14.776  0.00  0.00    +0.000 A 
ATOM     12  C   UNL     1       7.805   5.491  14.057  0.00  0.00    +0.000 A 
ATOM     13  C   UNL     1       7.905   5.404  12.663  0.00  0.00    +0.000 A 
ATOM     14  C   UNL     1       7.225   4.399  11.976  0.00  0.00    +0.000 A 
ATOM     15  C   UNL     1       6.412   3.524  12.686  0.00  0.00    +0.000 A 
ATOM     16  C   UNL     1       6.257   3.643  14.064  0.00  0.00    +0.000 A 
BRANCH  15  17
ATOM     17  O   UNL     1       5.738   2.513  12.065  0.00  0.00    +0.000 OA
ATOM     18  H   UNL     1       6.371   1.818  11.819  0.00  0.00    +0.000 HD
ENDBRANCH  15  17
ENDBRANCH   7  11
ENDBRANCH   2   3
BRANCH   2  19
ATOM     19  C   UNL     1       2.207   5.608  19.264  0.00  0.00    +0.000 A 
ATOM     20  C   UNL     1       2.405   6.538  18.235  0.00  0.00    +0.000 A 
ATOM     21  C   UNL     1       2.155   7.898  18.444  0.00  0.00    +0.000 A 
ATOM     22  C   UNL     1       1.670   8.346  19.675  0.00  0.00    +0.000 A 
ATOM     23  C   UNL     1       1.535   7.428  20.721  0.00  0.00    +0.000 A 
ATOM     24  C   UNL     1       1.863   6.079  20.534  0.00  0.00    +0.000 A 
BRANCH  22  25
ATOM     25  S   UNL     1       1.358  10.076  19.934  0.00  0.00    +0.000 S 
BRANCH  25  26
ATOM     26  C   UNL     1      -0.073  10.458  18.933  0.00  0.00    +0.000 A 
ATOM     27  C   UNL     1      -0.707  11.689  19.170  0.00  0.00    +0.000 A 
ATOM     28  C   UNL     1      -1.819  12.087  18.421  0.00  0.00    +0.000 A 
ATOM     29  C   UNL     1      -2.300  11.250  17.423  0.00  0.00    +0.000 A 
ATOM     30  C   UNL     1      -1.680  10.037  17.158  0.00  0.00    +0.000 A 
ATOM     31  C   UNL     1      -0.567   9.641  17.910  0.00  0.00    +0.000 A 
BRANCH  29  32
ATOM     32  O   UNL     1      -3.385  11.590  16.672  0.00  0.00    +0.000 OA
ATOM     33  H   UNL     1      -3.611  10.844  16.091  0.00  0.00    +0.000 HD
ENDBRANCH  29  32
ENDBRANCH  25  26
ENDBRANCH  22  25
ENDBRANCH   2  19
TORSDOF 7
ENDMDL
MODEL 2
REMARK VINA RESULT:      -9.0      3.995     11.617
REMARK  Name = 
REMARK  7 active torsions:
REMARK  status: ('A' for Active; 'I' for Inactive)
REMARK    1  A    between atoms: C_2  and  C_3
REMARK    2  A    between atoms: C_2  and  C_17
REMARK    3  A    between atoms: C_6  and  S_7
REMARK    4  A    between atoms: S_7  and  C_8
REMARK    5  A    between atoms: C_11  and  O_12
REMARK    6  A    between atoms: C_21  and  C_23
REMARK    7  A    between atoms: C_27  and  O_28
REMARK                            x       y       z     vdW  Elec       q    Type
REMARK                         _______ _______ _______ _____ _____    ______ ____
ROOT
ATOM      1  O   UNL     1       1.445  11.321  19.063  0.00  0.00    +0.000 OA
ATOM      2  C   UNL     1       0.850  10.295  19.397  0.00  0.00    +0.000 C 
ENDROOT
BRANCH   2   3
ATOM      3  C   UNL     1      -0.611  10.337  19.895  0.00  0.00    +0.000 C 
ATOM      4  C   UNL     1      -1.637  10.453  18.727  0.00  0.00    +0.000 C 
ATOM      5  C   UNL     1      -2.210  11.855  18.465  0.00  0.00    +0.000 C 
ATOM      6  N   UNL     1      -2.524  12.557  19.704  0.00  0.00    +0.000 N 
ATOM      7  C   UNL     1      -3.862  12.669  20.113  0.00  0.00    +0.000 C 
ATOM      8  O   UNL     1      -4.789  12.199  19.447  0.00  0.00    +0.000 OA
ATOM      9  C   UNL     1      -1.366  12.693  20.562  0.00  0.00    +0.000 C 
ATOM     10  C   UNL     1      -0.927  11.324  21.030  0.00  0.00    +0.000 C 
BRANCH   7  11
ATOM     11  C   UNL     1      -4.224  13.334  21.411  0.00  0.00    +0.000 A 
ATOM     12  C   UNL     1      -4.572  14.696  21.391  0.00  0.00    +0.000 A 
ATOM     13  C   UNL     1      -4.920  15.360  22.573  0.00  0.00    +0.000 A 
ATOM     14  C   UNL     1      -4.947  14.665  23.783  0.00  0.00    +0.000 A 
ATOM     15  C   UNL     1      -4.574  13.327  23.803  0.00  0.00    +0.000 A 
ATOM     16  C   UNL     1      -4.166  12.676  22.642  0.00  0.00    +0.000 A 
BRANCH  15  17
ATOM     17  O   UNL     1      -4.598  12.597  24.955  0.00  0.00    +0.000 OA
ATOM     18  H   UNL     1      -3.753  12.127  25.048  0.00  0.00    +0.000 HD
ENDBRANCH  15  17
ENDBRANCH   7  11
ENDBRANCH   2   3
BRANCH   2  19
ATOM     19  C   UNL     1       1.580   8.999  19.215  0.00  0.00    +0.000 A 
ATOM     20  C   UNL     1       1.655   8.134  20.314  0.00  0.00    +0.000 A 
ATOM     21  C   UNL     1       2.205   6.855  20.179  0.00  0.00    +0.000 A 
ATOM     22  C   UNL     1       2.656   6.408  18.936  0.00  0.00    +0.000 A 
ATOM     23  C   UNL     1       2.642   7.293  17.854  0.00  0.00    +0.000 A 
ATOM     24  C   UNL     1       2.166   8.602  18.010  0.00  0.00    +0.000 A 
BRANCH  22  25
ATOM     25  S   UNL     1       3.357   4.783  18.774  0.00  0.00    +0.000 S 
BRANCH  25  26
ATOM     26  C   UNL     1       4.738   4.968  17.653  0.00  0.00    +0.000 A 
ATOM     27  C   UNL     1       4.644   4.316  16.413  0.00  0.00    +0.000 A 
ATOM     28  C   UNL     1       5.663   4.421  15.461  0.00  0.00    +0.000 A 
ATOM     29  C   UNL     1       6.784   5.188  15.748  0.00  0.00    +0.000 A 
ATOM     30  C   UNL     1       6.891   5.856  16.961  0.00  0.00    +0.000 A 
ATOM     31  C   UNL     1       5.869   5.748  17.912  0.00  0.00    +0.000 A 
BRANCH  29  32
ATOM     32  O   UNL     1       7.807   5.315  14.857  0.00  0.00    +0.000 OA
ATOM     33  H   UNL     1       8.297   4.477  14.821  0.00  0.00    +0.000 HD
ENDBRANCH  29  32
ENDBRANCH  25  26
ENDBRANCH  22  25
ENDBRANCH   2  19
TORSDOF 7
ENDMDL
MODEL 3
REMARK VINA RESULT:      -9.0      4.238     10.560
REMARK  Name = 
REMARK  7 active torsions:
REMARK  status: ('A' for Active; 'I' for Inactive)
REMARK    1  A    between atoms: C_2  and  C_3
REMARK    2  A    between atoms: C_2  and  C_17
REMARK    3  A    between atoms: C_6  and  S_7
REMARK    4  A    between atoms: S_7  and  C_8
REMARK    5  A    between atoms: C_11  and  O_12
REMARK    6  A    between atoms: C_21  and  C_23
REMARK    7  A    between atoms: C_27  and  O_28
REMARK                            x       y       z     vdW  Elec       q    Type
REMARK                         _______ _______ _______ _____ _____    ______ ____
ROOT
ATOM      1  O   UNL     1      -0.757   9.870  19.136  0.00  0.00    +0.000 OA
ATOM      2  C   UNL     1       0.441  10.081  19.335  0.00  0.00    +0.000 C 
ENDROOT
BRANCH   2   3
ATOM      3  C   UNL     1       0.962  11.491  19.692  0.00  0.00    +0.000 C 
ATOM      4  C   UNL     1       0.297  12.063  20.981  0.00  0.00    +0.000 C 
ATOM      5  C   UNL     1      -0.835  13.081  20.765  0.00  0.00    +0.000 C 
ATOM      6  N   UNL     1      -0.526  14.023  19.695  0.00  0.00    +0.000 N 
ATOM      7  C   UNL     1      -0.133  15.331  20.022  0.00  0.00    +0.000 C 
ATOM      8  O   UNL     1      -0.052  15.715  21.191  0.00  0.00    +0.000 OA
ATOM      9  C   UNL     1      -0.270  13.354  18.437  0.00  0.00    +0.000 C 
ATOM     10  C   UNL     1       0.990  12.527  18.558  0.00  0.00    +0.000 C 
BRANCH   7  11
ATOM     11  C   UNL     1       0.248  16.315  18.952  0.00  0.00    +0.000 A 
ATOM     12  C   UNL     1      -0.765  17.092  18.364  0.00  0.00    +0.000 A 
ATOM     13  C   UNL     1      -0.460  18.025  17.366  0.00  0.00    +0.000 A 
ATOM     14  C   UNL     1       0.863  18.209  16.963  0.00  0.00    +0.000 A 
ATOM     15  C   UNL     1       1.858  17.419  17.526  0.00  0.00    +0.000 A 
ATOM     16  C   UNL     1       1.554  16.445  18.473  0.00  0.00    +0.000 A 
BRANCH  15  17
ATOM     17  O   UNL     1       3.169  17.569  17.179  0.00  0.00    +0.000 OA
ATOM     18  H   UNL     1       3.227  17.703  16.219  0.00  0.00    +0.000 HD
ENDBRANCH  15  17
ENDBRANCH   7  11
ENDBRANCH   2   3
BRANCH   2  19
ATOM     19  C   UNL     1       1.353   8.894  19.297  0.00  0.00    +0.000 A 
ATOM     20  C   UNL     1       1.407   8.078  20.434  0.00  0.00    +0.000 A 
ATOM     21  C   UNL     1       2.135   6.883  20.422  0.00  0.00    +0.000 A 
ATOM     22  C   UNL     1       2.791   6.468  19.262  0.00  0.00    +0.000 A 
ATOM     23  C   UNL     1       2.792   7.313  18.148  0.00  0.00    +0.000 A 
ATOM     24  C   UNL     1       2.131   8.548  18.188  0.00  0.00    +0.000 A 
BRANCH  22  25
ATOM     25  S   UNL     1       3.716   4.951  19.255  0.00  0.00    +0.000 S 
BRANCH  25  26
ATOM     26  C   UNL     1       4.936   5.141  17.962  0.00  0.00    +0.000 A 
ATOM     27  C   UNL     1       4.669   4.511  16.736  0.00  0.00    +0.000 A 
ATOM     28  C   UNL     1       5.552   4.622  15.657  0.00  0.00    +0.000 A 
ATOM     29  C   UNL     1       6.710   5.374  15.803  0.00  0.00    +0.000 A 
ATOM     30  C   UNL     1       6.987   6.022  16.999  0.00  0.00    +0.000 A 
ATOM     31  C   UNL     1       6.100   5.908  18.077  0.00  0.00    +0.000 A 
BRANCH  29  32
ATOM     32  O   UNL     1       7.606   5.506  14.784  0.00  0.00    +0.000 OA
ATOM     33  H   UNL     1       7.940   4.625  14.544  0.00  0.00    +0.000 HD
ENDBRANCH  29  32
ENDBRANCH  25  26
ENDBRANCH  22  25
ENDBRANCH   2  19
TORSDOF 7
ENDMDL
MODEL 4
REMARK VINA RESULT:      -8.9      0.968      1.297
REMARK  Name = 
REMARK  7 active torsions:
REMARK  status: ('A' for Active; 'I' for Inactive)
REMARK    1  A    between atoms: C_2  and  C_3
REMARK    2  A    between atoms: C_2  and  C_17
REMARK    3  A    between atoms: C_6  and  S_7
REMARK    4  A    between atoms: S_7  and  C_8
REMARK    5  A    between atoms: C_11  and  O_12
REMARK    6  A    between atoms: C_21  and  C_23
REMARK    7  A    between atoms: C_27  and  O_28
REMARK                            x       y       z     vdW  Elec       q    Type
REMARK                         _______ _______ _______ _____ _____    ______ ____
ROOT
ATOM      1  O   UNL     1       1.466   3.762  19.606  0.00  0.00    +0.000 OA
ATOM      2  C   UNL     1       2.379   4.467  19.173  0.00  0.00    +0.000 C 
ENDROOT
BRANCH   2   3
ATOM      3  C   UNL     1       3.597   3.852  18.449  0.00  0.00    +0.000 C 
ATOM      4  C   UNL     1       4.940   4.157  19.178  0.00  0.00    +0.000 C 
ATOM      5  C   UNL     1       5.791   5.292  18.585  0.00  0.00    +0.000 C 
ATOM      6  N   UNL     1       5.813   5.253  17.127  0.00  0.00    +0.000 N 
ATOM      7  C   UNL     1       6.956   4.772  16.469  0.00  0.00    +0.000 C 
ATOM      8  O   UNL     1       7.953   4.390  17.087  0.00  0.00    +0.000 OA
ATOM      9  C   UNL     1       4.484   5.337  16.559  0.00  0.00    +0.000 C 
ATOM     10  C   UNL     1       3.700   4.100  16.937  0.00  0.00    +0.000 C 
BRANCH   7  11
ATOM     11  C   UNL     1       6.998   4.662  14.971  0.00  0.00    +0.000 A 
ATOM     12  C   UNL     1       6.250   3.646  14.351  0.00  0.00    +0.000 A 
ATOM     13  C   UNL     1       6.253   3.505  12.959  0.00  0.00    +0.000 A 
ATOM     14  C   UNL     1       6.985   4.392  12.169  0.00  0.00    +0.000 A 
ATOM     15  C   UNL     1       7.746   5.378  12.786  0.00  0.00    +0.000 A 
ATOM     16  C   UNL     1       7.798   5.484  14.172  0.00  0.00    +0.000 A 
BRANCH  15  17
ATOM     17  O   UNL     1       8.467   6.280  12.060  0.00  0.00    +0.000 OA
ATOM     18  H   UNL     1       7.876   6.996  11.771  0.00  0.00    +0.000 HD
ENDBRANCH  15  17
ENDBRANCH   7  11
ENDBRANCH   2   3
BRANCH   2  19
ATOM     19  C   UNL     1       2.211   5.949  19.305  0.00  0.00    +0.000 A 
ATOM     20  C   UNL     1       2.328   6.724  18.145  0.00  0.00    +0.000 A 
ATOM     21  C   UNL     1       2.054   8.096  18.171  0.00  0.00    +0.000 A 
ATOM     22  C   UNL     1       1.625   8.707  19.351  0.00  0.00    +0.000 A 
ATOM     23  C   UNL     1       1.571   7.949  20.524  0.00  0.00    +0.000 A 
ATOM     24  C   UNL     1       1.925   6.593  20.513  0.00  0.00    +0.000 A 
BRANCH  22  25
ATOM     25  S   UNL     1       1.282  10.450  19.377  0.00  0.00    +0.000 S 
BRANCH  25  26
ATOM     26  C   UNL     1      -0.395  10.617  18.780  0.00  0.00    +0.000 A 
ATOM     27  C   UNL     1      -1.192  11.603  19.384  0.00  0.00    +0.000 A 
ATOM     28  C   UNL     1      -2.509  11.824  18.968  0.00  0.00    +0.000 A 
ATOM     29  C   UNL     1      -3.034  11.056  17.937  0.00  0.00    +0.000 A 
ATOM     30  C   UNL     1      -2.260  10.087  17.313  0.00  0.00    +0.000 A 
ATOM     31  C   UNL     1      -0.942   9.868  17.732  0.00  0.00    +0.000 A 
BRANCH  29  32
ATOM     32  O   UNL     1      -4.314  11.228  17.503  0.00  0.00    +0.000 OA
ATOM     33  H   UNL     1      -4.661  12.058  17.870  0.00  0.00    +0.000 HD
ENDBRANCH  29  32
ENDBRANCH  25  26
ENDBRANCH  22  25
ENDBRANCH   2  19
TORSDOF 7
ENDMDL
MODEL 5
REMARK VINA RESULT:      -8.8      0.518      1.008
REMARK  Name = 
REMARK  7 active torsions:
REMARK  status: ('A' for Active; 'I' for Inactive)
REMARK    1  A    between atoms: C_2  and  C_3
REMARK    2  A    between atoms: C_2  and  C_17
REMARK    3  A    between atoms: C_6  and  S_7
REMARK    4  A    between atoms: S_7  and  C_8
REMARK    5  A    between atoms: C_11  and  O_12
REMARK    6  A    between atoms: C_21  and  C_23
REMARK    7  A    between atoms: C_27  and  O_28
REMARK                            x       y       z     vdW  Elec       q    Type
REMARK                         _______ _______ _______ _____ _____    ______ ____
ROOT
ATOM      1  O   UNL     1       1.535   2.898  19.198  0.00  0.00    +0.000 OA
ATOM      2  C   UNL     1       2.415   3.717  18.928  0.00  0.00    +0.000 C 
ENDROOT
BRANCH   2   3
ATOM      3  C   UNL     1       3.723   3.291  18.225  0.00  0.00    +0.000 C 
ATOM      4  C   UNL     1       4.994   3.819  18.959  0.00  0.00    +0.000 C 
ATOM      5  C   UNL     1       5.660   5.063  18.351  0.00  0.00    +0.000 C 
ATOM      6  N   UNL     1       5.703   5.003  16.894  0.00  0.00    +0.000 N 
ATOM      7  C   UNL     1       6.915   4.698  16.254  0.00  0.00    +0.000 C 
ATOM      8  O   UNL     1       7.953   4.490  16.887  0.00  0.00    +0.000 OA
ATOM      9  C   UNL     1       4.384   4.864  16.314  0.00  0.00    +0.000 C 
ATOM     10  C   UNL     1       3.803   3.525  16.709  0.00  0.00    +0.000 C 
BRANCH   7  11
ATOM     11  C   UNL     1       6.990   4.570  14.758  0.00  0.00    +0.000 A 
ATOM     12  C   UNL     1       7.790   5.482  14.047  0.00  0.00    +0.000 A 
ATOM     13  C   UNL     1       7.896   5.401  12.653  0.00  0.00    +0.000 A 
ATOM     14  C   UNL     1       7.223   4.396  11.959  0.00  0.00    +0.000 A 
ATOM     15  C   UNL     1       6.411   3.514  12.662  0.00  0.00    +0.000 A 
ATOM     16  C   UNL     1       6.251   3.627  14.040  0.00  0.00    +0.000 A 
BRANCH  15  17
ATOM     17  O   UNL     1       5.745   2.503  12.033  0.00  0.00    +0.000 OA
ATOM     18  H   UNL     1       6.266   2.211  11.267  0.00  0.00    +0.000 HD
ENDBRANCH  15  17
ENDBRANCH   7  11
ENDBRANCH   2   3
BRANCH   2  19
ATOM     19  C   UNL     1       2.122   5.154  19.234  0.00  0.00    +0.000 A 
ATOM     20  C   UNL     1       1.637   5.461  20.512  0.00  0.00    +0.000 A 
ATOM     21  C   UNL     1       1.466   6.791  20.909  0.00  0.00    +0.000 A 
ATOM     22  C   UNL     1       1.810   7.835  20.049  0.00  0.00    +0.000 A 
ATOM     23  C   UNL     1       2.231   7.529  18.751  0.00  0.00    +0.000 A 
ATOM     24  C   UNL     1       2.324   6.197  18.326  0.00  0.00    +0.000 A 
BRANCH  22  25
ATOM     25  S   UNL     1       1.587   9.522  20.560  0.00  0.00    +0.000 S 
BRANCH  25  26
ATOM     26  C   UNL     1       0.250  10.153  19.554  0.00  0.00    +0.000 A 
ATOM     27  C   UNL     1      -0.498  11.218  20.083  0.00  0.00    +0.000 A 
ATOM     28  C   UNL     1      -1.548  11.794  19.361  0.00  0.00    +0.000 A 
ATOM     29  C   UNL     1      -1.851  11.306  18.097  0.00  0.00    +0.000 A 
ATOM     30  C   UNL     1      -1.115  10.265  17.546  0.00  0.00    +0.000 A 
ATOM     31  C   UNL     1      -0.065   9.690  18.272  0.00  0.00    +0.000 A 
BRANCH  29  32
ATOM     32  O   UNL     1      -2.870  11.828  17.358  0.00  0.00    +0.000 OA
ATOM     33  H   UNL     1      -3.707  11.431  17.653  0.00  0.00    +0.000 HD
ENDBRANCH  29  32
ENDBRANCH  25  26
ENDBRANCH  22  25
ENDBRANCH   2  19
TORSDOF 7
ENDMDL
MODEL 6
REMARK VINA RESULT:      -8.8      4.038     11.549
REMARK  Name = 
REMARK  7 active torsions:
REMARK  status: ('A' for Active; 'I' for Inactive)
REMARK    1  A    between atoms: C_2  and  C_3
REMARK    2  A    between atoms: C_2  and  C_17
REMARK    3  A    between atoms: C_6  and  S_7
REMARK    4  A    between atoms: S_7  and  C_8
REMARK    5  A    between atoms: C_11  and  O_12
REMARK    6  A    between atoms: C_21  and  C_23
REMARK    7  A    between atoms: C_27  and  O_28
REMARK                            x       y       z     vdW  Elec       q    Type
REMARK                         _______ _______ _______ _____ _____    ______ ____
ROOT
ATOM      1  O   UNL     1       1.530  10.847  18.584  0.00  0.00    +0.000 OA
ATOM      2  C   UNL     1       0.938   9.939  19.170  0.00  0.00    +0.000 C 
ENDROOT
BRANCH   2   3
ATOM      3  C   UNL     1      -0.458  10.160  19.794  0.00  0.00    +0.000 C 
ATOM      4  C   UNL     1      -1.522  10.591  18.740  0.00  0.00    +0.000 C 
ATOM      5  C   UNL     1      -1.858  12.090  18.689  0.00  0.00    +0.000 C 
ATOM      6  N   UNL     1      -1.962  12.672  20.022  0.00  0.00    +0.000 N 
ATOM      7  C   UNL     1      -3.231  12.950  20.555  0.00  0.00    +0.000 C 
ATOM      8  O   UNL     1      -4.267  12.728  19.922  0.00  0.00    +0.000 OA
ATOM      9  C   UNL     1      -0.744  12.504  20.787  0.00  0.00    +0.000 C 
ATOM     10  C   UNL     1      -0.521  11.034  21.057  0.00  0.00    +0.000 C 
BRANCH   7  11
ATOM     11  C   UNL     1      -3.385  13.497  21.946  0.00  0.00    +0.000 A 
ATOM     12  C   UNL     1      -3.765  12.616  22.974  0.00  0.00    +0.000 A 
ATOM     13  C   UNL     1      -3.917  13.076  24.287  0.00  0.00    +0.000 A 
ATOM     14  C   UNL     1      -3.669  14.415  24.591  0.00  0.00    +0.000 A 
ATOM     15  C   UNL     1      -3.321  15.288  23.568  0.00  0.00    +0.000 A 
ATOM     16  C   UNL     1      -3.230  14.852  22.250  0.00  0.00    +0.000 A 
BRANCH  15  17
ATOM     17  O   UNL     1      -3.053  16.603  23.814  0.00  0.00    +0.000 OA
ATOM     18  H   UNL     1      -3.628  17.151  23.255  0.00  0.00    +0.000 HD
ENDBRANCH  15  17
ENDBRANCH   7  11
ENDBRANCH   2   3
BRANCH   2  19
ATOM     19  C   UNL     1       1.595   8.593  19.173  0.00  0.00    +0.000 A 
ATOM     20  C   UNL     1       2.274   8.197  18.014  0.00  0.00    +0.000 A 
ATOM     21  C   UNL     1       3.019   7.014  17.992  0.00  0.00    +0.000 A 
ATOM     22  C   UNL     1       3.126   6.225  19.140  0.00  0.00    +0.000 A 
ATOM     23  C   UNL     1       2.395   6.586  20.276  0.00  0.00    +0.000 A 
ATOM     24  C   UNL     1       1.584   7.728  20.271  0.00  0.00    +0.000 A 
BRANCH  22  25
ATOM     25  S   UNL     1       4.071   4.722  19.104  0.00  0.00    +0.000 S 
BRANCH  25  26
ATOM     26  C   UNL     1       5.220   4.913  17.747  0.00  0.00    +0.000 A 
ATOM     27  C   UNL     1       4.935   4.209  16.566  0.00  0.00    +0.000 A 
ATOM     28  C   UNL     1       5.762   4.314  15.443  0.00  0.00    +0.000 A 
ATOM     29  C   UNL     1       6.881   5.133  15.498  0.00  0.00    +0.000 A 
ATOM     30  C   UNL     1       7.174   5.852  16.649  0.00  0.00    +0.000 A 
ATOM     31  C   UNL     1       6.345   5.745  17.772  0.00  0.00    +0.000 A 
BRANCH  29  32
ATOM     32  O   UNL     1       7.722   5.261  14.433  0.00  0.00    +0.000 OA
ATOM     33  H   UNL     1       7.576   6.129  14.021  0.00  0.00    +0.000 HD
ENDBRANCH  29  32
ENDBRANCH  25  26
ENDBRANCH  22  25
ENDBRANCH   2  19
TORSDOF 7
ENDMDL
MODEL 7
REMARK VINA RESULT:      -8.6      4.059     11.146
REMARK  Name = 
REMARK  7 active torsions:
REMARK  status: ('A' for Active; 'I' for Inactive)
REMARK    1  A    between atoms: C_2  and  C_3
REMARK    2  A    between atoms: C_2  and  C_17
REMARK    3  A    between atoms: C_6  and  S_7
REMARK    4  A    between atoms: S_7  and  C_8
REMARK    5  A    between atoms: C_11  and  O_12
REMARK    6  A    between atoms: C_21  and  C_23
REMARK    7  A    between atoms: C_27  and  O_28
REMARK                            x       y       z     vdW  Elec       q    Type
REMARK                         _______ _______ _______ _____ _____    ______ ____
ROOT
ATOM      1  O   UNL     1       2.138   8.951  22.036  0.00  0.00    +0.000 OA
ATOM      2  C   UNL     1       1.266   8.420  21.345  0.00  0.00    +0.000 C 
ENDROOT
BRANCH   2   3
ATOM      3  C   UNL     1      -0.134   9.053  21.190  0.00  0.00    +0.000 C 
ATOM      4  C   UNL     1      -0.293   9.825  19.845  0.00  0.00    +0.000 C 
ATOM      5  C   UNL     1      -0.159  11.354  19.922  0.00  0.00    +0.000 C 
ATOM      6  N   UNL     1      -0.830  11.904  21.094  0.00  0.00    +0.000 N 
ATOM      7  C   UNL     1      -2.064  12.555  20.938  0.00  0.00    +0.000 C 
ATOM      8  O   UNL     1      -2.597  12.688  19.834  0.00  0.00    +0.000 OA
ATOM      9  C   UNL     1      -0.323  11.341  22.327  0.00  0.00    +0.000 C 
ATOM     10  C   UNL     1      -0.661   9.868  22.381  0.00  0.00    +0.000 C 
BRANCH   7  11
ATOM     11  C   UNL     1      -2.816  13.085  22.126  0.00  0.00    +0.000 A 
ATOM     12  C   UNL     1      -2.792  14.469  22.372  0.00  0.00    +0.000 A 
ATOM     13  C   UNL     1      -3.480  15.012  23.464  0.00  0.00    +0.000 A 
ATOM     14  C   UNL     1      -4.218  14.181  24.307  0.00  0.00    +0.000 A 
ATOM     15  C   UNL     1      -4.216  12.810  24.078  0.00  0.00    +0.000 A 
ATOM     16  C   UNL     1      -3.483  12.256  23.033  0.00  0.00    +0.000 A 
BRANCH  15  17
ATOM     17  O   UNL     1      -4.934  11.956  24.863  0.00  0.00    +0.000 OA
ATOM     18  H   UNL     1      -5.879  12.069  24.668  0.00  0.00    +0.000 HD
ENDBRANCH  15  17
ENDBRANCH   7  11
ENDBRANCH   2   3
BRANCH   2  19
ATOM     19  C   UNL     1       1.655   7.181  20.598  0.00  0.00    +0.000 A 
ATOM     20  C   UNL     1       2.353   7.339  19.394  0.00  0.00    +0.000 A 
ATOM     21  C   UNL     1       2.860   6.228  18.712  0.00  0.00    +0.000 A 
ATOM     22  C   UNL     1       2.708   4.945  19.241  0.00  0.00    +0.000 A 
ATOM     23  C   UNL     1       1.955   4.781  20.407  0.00  0.00    +0.000 A 
ATOM     24  C   UNL     1       1.378   5.886  21.046  0.00  0.00    +0.000 A 
BRANCH  22  25
ATOM     25  S   UNL     1       3.353   3.539  18.367  0.00  0.00    +0.000 S 
BRANCH  25  26
ATOM     26  C   UNL     1       4.731   4.160  17.412  0.00  0.00    +0.000 A 
ATOM     27  C   UNL     1       4.524   4.335  16.034  0.00  0.00    +0.000 A 
ATOM     28  C   UNL     1       5.535   4.838  15.209  0.00  0.00    +0.000 A 
ATOM     29  C   UNL     1       6.761   5.175  15.765  0.00  0.00    +0.000 A 
ATOM     30  C   UNL     1       6.983   5.028  17.128  0.00  0.00    +0.000 A 
ATOM     31  C   UNL     1       5.969   4.523  17.951  0.00  0.00    +0.000 A 
BRANCH  29  32
ATOM     32  O   UNL     1       7.780   5.661  15.001  0.00  0.00    +0.000 OA
ATOM     33  H   UNL     1       7.406   6.063  14.199  0.00  0.00    +0.000 HD
ENDBRANCH  29  32
ENDBRANCH  25  26
ENDBRANCH  22  25
ENDBRANCH   2  19
TORSDOF 7
ENDMDL
MODEL 8
REMARK VINA RESULT:      -8.6      3.606     11.500
REMARK  Name = 
REMARK  7 active torsions:
REMARK  status: ('A' for Active; 'I' for Inactive)
REMARK    1  A    between atoms: C_2  and  C_3
REMARK    2  A    between atoms: C_2  and  C_17
REMARK    3  A    between atoms: C_6  and  S_7
REMARK    4  A    between atoms: S_7  and  C_8
REMARK    5  A    between atoms: C_11  and  O_12
REMARK    6  A    between atoms: C_21  and  C_23
REMARK    7  A    between atoms: C_27  and  O_28
REMARK                            x       y       z     vdW  Elec       q    Type
REMARK                         _______ _______ _______ _____ _____    ______ ____
ROOT
ATOM      1  O   UNL     1       1.050  11.319  18.563  0.00  0.00    +0.000 OA
ATOM      2  C   UNL     1       0.538  10.253  18.909  0.00  0.00    +0.000 C 
ENDROOT
BRANCH   2   3
ATOM      3  C   UNL     1      -0.973  10.147  19.211  0.00  0.00    +0.000 C 
ATOM      4  C   UNL     1      -1.817   9.845  17.936  0.00  0.00    +0.000 C 
ATOM      5  C   UNL     1      -2.536  11.045  17.299  0.00  0.00    +0.000 C 
ATOM      6  N   UNL     1      -3.129  11.922  18.303  0.00  0.00    +0.000 N 
ATOM      7  C   UNL     1      -4.516  11.884  18.516  0.00  0.00    +0.000 C 
ATOM      8  O   UNL     1      -5.256  11.137  17.871  0.00  0.00    +0.000 OA
ATOM      9  C   UNL     1      -2.144  12.426  19.236  0.00  0.00    +0.000 C 
ATOM     10  C   UNL     1      -1.592  11.277  20.049  0.00  0.00    +0.000 C 
BRANCH   7  11
ATOM     11  C   UNL     1      -5.159  12.730  19.579  0.00  0.00    +0.000 A 
ATOM     12  C   UNL     1      -5.032  12.330  20.922  0.00  0.00    +0.000 A 
ATOM     13  C   UNL     1      -5.610  13.087  21.948  0.00  0.00    +0.000 A 
ATOM     14  C   UNL     1      -6.300  14.261  21.647  0.00  0.00    +0.000 A 
ATOM     15  C   UNL     1      -6.449  14.637  20.318  0.00  0.00    +0.000 A 
ATOM     16  C   UNL     1      -5.932  13.857  19.287  0.00  0.00    +0.000 A 
BRANCH  15  17
ATOM     17  O   UNL     1      -7.100  15.784  19.970  0.00  0.00    +0.000 OA
ATOM     18  H   UNL     1      -6.449  16.435  19.661  0.00  0.00    +0.000 HD
ENDBRANCH  15  17
ENDBRANCH   7  11
ENDBRANCH   2   3
BRANCH   2  19
ATOM     19  C   UNL     1       1.431   9.051  18.939  0.00  0.00    +0.000 A 
ATOM     20  C   UNL     1       1.486   8.310  20.127  0.00  0.00    +0.000 A 
ATOM     21  C   UNL     1       2.194   7.106  20.185  0.00  0.00    +0.000 A 
ATOM     22  C   UNL     1       2.829   6.605  19.047  0.00  0.00    +0.000 A 
ATOM     23  C   UNL     1       2.830   7.375  17.880  0.00  0.00    +0.000 A 
ATOM     24  C   UNL     1       2.189   8.621  17.847  0.00  0.00    +0.000 A 
BRANCH  22  25
ATOM     25  S   UNL     1       3.730   5.075  19.129  0.00  0.00    +0.000 S 
BRANCH  25  26
ATOM     26  C   UNL     1       4.971   5.182  17.847  0.00  0.00    +0.000 A 
ATOM     27  C   UNL     1       4.741   4.445  16.674  0.00  0.00    +0.000 A 
ATOM     28  C   UNL     1       5.644   4.484  15.606  0.00  0.00    +0.000 A 
ATOM     29  C   UNL     1       6.783   5.271  15.708  0.00  0.00    +0.000 A 
ATOM     30  C   UNL     1       7.022   6.023  16.850  0.00  0.00    +0.000 A 
ATOM     31  C   UNL     1       6.117   5.981  17.918  0.00  0.00    +0.000 A 
BRANCH  29  32
ATOM     32  O   UNL     1       7.695   5.335  14.698  0.00  0.00    +0.000 OA
ATOM     33  H   UNL     1       7.971   6.260  14.582  0.00  0.00    +0.000 HD
ENDBRANCH  29  32
ENDBRANCH  25  26
ENDBRANCH  22  25
ENDBRANCH   2  19
TORSDOF 7
ENDMDL
MODEL 9
REMARK VINA RESULT:      -8.5      3.935     11.587
REMARK  Name = 
REMARK  7 active torsions:
REMARK  status: ('A' for Active; 'I' for Inactive)
REMARK    1  A    between atoms: C_2  and  C_3
REMARK    2  A    between atoms: C_2  and  C_17
REMARK    3  A    between atoms: C_6  and  S_7
REMARK    4  A    between atoms: S_7  and  C_8
REMARK    5  A    between atoms: C_11  and  O_12
REMARK    6  A    between atoms: C_21  and  C_23
REMARK    7  A    between atoms: C_27  and  O_28
REMARK                            x       y       z     vdW  Elec       q    Type
REMARK                         _______ _______ _______ _____ _____    ______ ____
ROOT
ATOM      1  O   UNL     1       1.153  11.207  18.278  0.00  0.00    +0.000 OA
ATOM      2  C   UNL     1       0.712  10.236  18.894  0.00  0.00    +0.000 C 
ENDROOT
BRANCH   2   3
ATOM      3  C   UNL     1      -0.687  10.264  19.548  0.00  0.00    +0.000 C 
ATOM      4  C   UNL     1      -1.834  10.379  18.498  0.00  0.00    +0.000 C 
ATOM      5  C   UNL     1      -2.442  11.778  18.308  0.00  0.00    +0.000 C 
ATOM      6  N   UNL     1      -2.625  12.471  19.579  0.00  0.00    +0.000 N 
ATOM      7  C   UNL     1      -3.912  12.569  20.130  0.00  0.00    +0.000 C 
ATOM      8  O   UNL     1      -4.902  12.096  19.566  0.00  0.00    +0.000 OA
ATOM      9  C   UNL     1      -1.382  12.610  20.307  0.00  0.00    +0.000 C 
ATOM     10  C   UNL     1      -0.885  11.242  20.716  0.00  0.00    +0.000 C 
BRANCH   7  11
ATOM     11  C   UNL     1      -4.136  13.225  21.464  0.00  0.00    +0.000 A 
ATOM     12  C   UNL     1      -3.341  14.332  21.808  0.00  0.00    +0.000 A 
ATOM     13  C   UNL     1      -3.514  14.980  23.037  0.00  0.00    +0.000 A 
ATOM     14  C   UNL     1      -4.497  14.542  23.925  0.00  0.00    +0.000 A 
ATOM     15  C   UNL     1      -5.262  13.430  23.594  0.00  0.00    +0.000 A 
ATOM     16  C   UNL     1      -5.053  12.742  22.402  0.00  0.00    +0.000 A 
BRANCH  15  17
ATOM     17  O   UNL     1      -6.247  12.971  24.418  0.00  0.00    +0.000 OA
ATOM     18  H   UNL     1      -5.873  12.296  25.009  0.00  0.00    +0.000 HD
ENDBRANCH  15  17
ENDBRANCH   7  11
ENDBRANCH   2   3
BRANCH   2  19
ATOM     19  C   UNL     1       1.558   8.999  18.904  0.00  0.00    +0.000 A 
ATOM     20  C   UNL     1       1.550   8.214  20.064  0.00  0.00    +0.000 A 
ATOM     21  C   UNL     1       2.210   6.982  20.097  0.00  0.00    +0.000 A 
ATOM     22  C   UNL     1       2.860   6.499  18.959  0.00  0.00    +0.000 A 
ATOM     23  C   UNL     1       2.925   7.311  17.823  0.00  0.00    +0.000 A 
ATOM     24  C   UNL     1       2.332   8.581  17.819  0.00  0.00    +0.000 A 
BRANCH  22  25
ATOM     25  S   UNL     1       3.700   4.934  19.009  0.00  0.00    +0.000 S 
BRANCH  25  26
ATOM     26  C   UNL     1       4.872   4.977  17.660  0.00  0.00    +0.000 A 
ATOM     27  C   UNL     1       6.085   5.646  17.890  0.00  0.00    +0.000 A 
ATOM     28  C   UNL     1       7.074   5.712  16.903  0.00  0.00    +0.000 A 
ATOM     29  C   UNL     1       6.851   5.101  15.677  0.00  0.00    +0.000 A 
ATOM     30  C   UNL     1       5.667   4.419  15.432  0.00  0.00    +0.000 A 
ATOM     31  C   UNL     1       4.679   4.355  16.422  0.00  0.00    +0.000 A 
BRANCH  29  32
ATOM     32  O   UNL     1       7.780   5.146  14.680  0.00  0.00    +0.000 OA
ATOM     33  H   UNL     1       7.644   4.386  14.091  0.00  0.00    +0.000 HD
ENDBRANCH  29  32
ENDBRANCH  25  26
ENDBRANCH  22  25
ENDBRANCH   2  19
TORSDOF 7
ENDMDL
