MODEL 1
REMARK VINA RESULT:      -8.6      0.000      0.000
REMARK  Name = 
REMARK  10 active torsions:
REMARK  status: ('A' for Active; 'I' for Inactive)
REMARK    1  A    between atoms: C_1  and  C_2
REMARK    2  A    between atoms: C_5  and  C_6
REMARK    3  A    between atoms: C_7  and  N_8
REMARK    4  A    between atoms: N_8  and  C_9
REMARK    5  A    between atoms: C_9  and  C_10
REMARK    6  A    between atoms: C_16  and  S_17
REMARK    7  A    between atoms: S_17  and  N_20
REMARK    8  A    between atoms: N_20  and  C_21
REMARK    9  A    between atoms: N_20  and  C_22
REMARK   10  A    between atoms: C_22  and  C_23
REMARK                            x       y       z     vdW  Elec       q    Type
REMARK                         _______ _______ _______ _____ _____    ______ ____
ROOT
ATOM      1  C   UNL     1       5.416   3.599  15.471  0.00  0.00    +0.000 C 
ATOM      2  C   UNL     1       6.245   4.719  15.971  0.00  0.00    +0.000 A 
ATOM      3  N   UNL     1       7.174   5.250  15.169  0.00  0.00    +0.000 NA
ATOM      4  O   UNL     1       7.776   6.250  15.895  0.00  0.00    +0.000 OA
ATOM      5  C   UNL     1       7.228   6.343  17.153  0.00  0.00    +0.000 A 
ATOM      6  C   UNL     1       6.251   5.364  17.229  0.00  0.00    +0.000 A 
ENDROOT
BRANCH   6   7
ATOM      7  S   UNL     1       5.266   4.975  18.572  0.00  0.00    +0.000 S 
ATOM      8  O   UNL     1       5.377   3.544  18.760  0.00  0.00    +0.000 OA
ATOM      9  O   UNL     1       5.682   5.889  19.613  0.00  0.00    +0.000 OA
BRANCH   7  10
ATOM     10  N   UNL     1       3.621   5.285  18.228  0.00  0.00    +0.000 NA
ATOM     11  C   UNL     1       2.824   4.070  17.922  0.00  0.00    +0.000 C 
BRANCH  10  12
ATOM     12  C   UNL     1       2.988   6.102  19.330  0.00  0.00    +0.000 C 
BRANCH  12  13
ATOM     13  C   UNL     1       2.559   7.519  18.941  0.00  0.00    +0.000 C 
ATOM     14  O   UNL     1       2.935   8.025  17.883  0.00  0.00    +0.000 OA
ATOM     15  N   UNL     1       1.702   8.155  19.834  0.00  0.00    +0.000 N 
ATOM     16  C   UNL     1       1.509   7.822  21.259  0.00  0.00    +0.000 C 
ATOM     17  C   UNL     1       0.363   8.700  21.783  0.00  0.00    +0.000 C 
ATOM     18  C   UNL     1       0.226   9.705  20.685  0.00  0.00    +0.000 A 
ATOM     19  C   UNL     1      -0.593  10.827  20.670  0.00  0.00    +0.000 A 
ATOM     20  C   UNL     1      -0.638  11.598  19.507  0.00  0.00    +0.000 A 
ATOM     21  C   UNL     1       0.123  11.236  18.386  0.00  0.00    +0.000 A 
ATOM     22  C   UNL     1       0.942  10.102  18.415  0.00  0.00    +0.000 A 
ATOM     23  C   UNL     1       0.989   9.345  19.573  0.00  0.00    +0.000 A 
ENDBRANCH  12  13
ENDBRANCH  10  12
ENDBRANCH   7  10
ENDBRANCH   6   7
BRANCH   5  24
ATOM     24  C   UNL     1       7.702   7.279  18.101  0.00  0.00    +0.000 C 
ATOM     25  C   UNL     1       8.114   8.492  17.720  0.00  0.00    +0.000 C 
BRANCH  25  26
ATOM     26  N   UNL     1       8.536   9.468  18.597  0.00  0.00    +0.000 N 
ATOM     27  H   UNL     1       7.742   9.873  19.090  0.00  0.00    +0.000 HD
BRANCH  26  28
ATOM     28  C   UNL     1       9.431  10.538  18.168  0.00  0.00    +0.000 C 
BRANCH  28  29
ATOM     29  C   UNL     1       9.634  11.462  19.331  0.00  0.00    +0.000 A 
ATOM     30  C   UNL     1      10.146  12.752  19.173  0.00  0.00    +0.000 A 
ATOM     31  C   UNL     1      10.237  13.594  20.274  0.00  0.00    +0.000 A 
ATOM     32  C   UNL     1       9.811  13.115  21.505  0.00  0.00    +0.000 A 
ATOM     33  N   UNL     1       9.317  11.873  21.699  0.00  0.00    +0.000 NA
ATOM     34  C   UNL     1       9.229  11.083  20.606  0.00  0.00    +0.000 A 
ENDBRANCH  28  29
ENDBRANCH  26  28
ENDBRANCH  25  26
ENDBRANCH   5  24
TORSDOF 8
ENDMDL
MODEL 2
REMARK VINA RESULT:      -8.4      0.869      1.029
REMARK  Name = 
REMARK  10 active torsions:
REMARK  status: ('A' for Active; 'I' for Inactive)
REMARK    1  A    between atoms: C_1  and  C_2
REMARK    2  A    between atoms: C_5  and  C_6
REMARK    3  A    between atoms: C_7  and  N_8
REMARK    4  A    between atoms: N_8  and  C_9
REMARK    5  A    between atoms: C_9  and  C_10
REMARK    6  A    between atoms: C_16  and  S_17
REMARK    7  A    between atoms: S_17  and  N_20
REMARK    8  A    between atoms: N_20  and  C_21
REMARK    9  A    between atoms: N_20  and  C_22
REMARK   10  A    between atoms: C_22  and  C_23
REMARK                            x       y       z     vdW  Elec       q    Type
REMARK                         _______ _______ _______ _____ _____    ______ ____
ROOT
ATOM      1  C   UNL     1       5.664   3.302  15.414  0.00  0.00    +0.000 C 
ATOM      2  C   UNL     1       6.301   4.552  15.888  0.00  0.00    +0.000 A 
ATOM      3  N   UNL     1       7.268   5.110  15.152  0.00  0.00    +0.000 NA
ATOM      4  O   UNL     1       7.662   6.236  15.834  0.00  0.00    +0.000 OA
ATOM      5  C   UNL     1       6.945   6.382  16.998  0.00  0.00    +0.000 A 
ATOM      6  C   UNL     1       6.073   5.308  17.060  0.00  0.00    +0.000 A 
ENDROOT
BRANCH   6   7
ATOM      7  S   UNL     1       4.963   4.935  18.307  0.00  0.00    +0.000 S 
ATOM      8  O   UNL     1       5.018   3.500  18.488  0.00  0.00    +0.000 OA
ATOM      9  O   UNL     1       5.311   5.828  19.391  0.00  0.00    +0.000 OA
BRANCH   7  10
ATOM     10  N   UNL     1       3.364   5.296  17.823  0.00  0.00    +0.000 NA
ATOM     11  C   UNL     1       2.602   4.123  17.322  0.00  0.00    +0.000 C 
BRANCH  10  12
ATOM     12  C   UNL     1       2.619   6.013  18.925  0.00  0.00    +0.000 C 
BRANCH  12  13
ATOM     13  C   UNL     1       2.452   7.522  18.738  0.00  0.00    +0.000 C 
ATOM     14  O   UNL     1       2.973   8.102  17.784  0.00  0.00    +0.000 OA
ATOM     15  N   UNL     1       1.655   8.161  19.682  0.00  0.00    +0.000 N 
ATOM     16  C   UNL     1       1.320   7.667  21.033  0.00  0.00    +0.000 C 
ATOM     17  C   UNL     1       0.301   8.644  21.638  0.00  0.00    +0.000 C 
ATOM     18  C   UNL     1       0.400   9.803  20.700  0.00  0.00    +0.000 A 
ATOM     19  C   UNL     1      -0.224  11.038  20.822  0.00  0.00    +0.000 A 
ATOM     20  C   UNL     1      -0.068  11.963  19.788  0.00  0.00    +0.000 A 
ATOM     21  C   UNL     1       0.695  11.640  18.655  0.00  0.00    +0.000 A 
ATOM     22  C   UNL     1       1.314  10.391  18.545  0.00  0.00    +0.000 A 
ATOM     23  C   UNL     1       1.163   9.481  19.577  0.00  0.00    +0.000 A 
ENDBRANCH  12  13
ENDBRANCH  10  12
ENDBRANCH   7  10
ENDBRANCH   6   7
BRANCH   5  24
ATOM     24  C   UNL     1       7.190   7.452  17.890  0.00  0.00    +0.000 C 
ATOM     25  C   UNL     1       8.438   7.781  18.241  0.00  0.00    +0.000 C 
BRANCH  25  26
ATOM     26  N   UNL     1       8.748   8.843  19.061  0.00  0.00    +0.000 N 
ATOM     27  H   UNL     1       8.311   8.729  19.975  0.00  0.00    +0.000 HD
BRANCH  26  28
ATOM     28  C   UNL     1       8.572  10.222  18.615  0.00  0.00    +0.000 C 
BRANCH  28  29
ATOM     29  C   UNL     1       9.835  10.970  18.923  0.00  0.00    +0.000 A 
ATOM     30  C   UNL     1      10.757  11.308  17.931  0.00  0.00    +0.000 A 
ATOM     31  C   UNL     1      11.871  12.072  18.259  0.00  0.00    +0.000 A 
ATOM     32  C   UNL     1      12.025  12.474  19.578  0.00  0.00    +0.000 A 
ATOM     33  N   UNL     1      11.159  12.163  20.567  0.00  0.00    +0.000 NA
ATOM     34  C   UNL     1      10.080  11.430  20.213  0.00  0.00    +0.000 A 
ENDBRANCH  28  29
ENDBRANCH  26  28
ENDBRANCH  25  26
ENDBRANCH   5  24
TORSDOF 8
ENDMDL
MODEL 3
REMARK VINA RESULT:      -8.2      4.585      7.906
REMARK  Name = 
REMARK  10 active torsions:
REMARK  status: ('A' for Active; 'I' for Inactive)
REMARK    1  A    between atoms: C_1  and  C_2
REMARK    2  A    between atoms: C_5  and  C_6
REMARK    3  A    between atoms: C_7  and  N_8
REMARK    4  A    between atoms: N_8  and  C_9
REMARK    5  A    between atoms: C_9  and  C_10
REMARK    6  A    between atoms: C_16  and  S_17
REMARK    7  A    between atoms: S_17  and  N_20
REMARK    8  A    between atoms: N_20  and  C_21
REMARK    9  A    between atoms: N_20  and  C_22
REMARK   10  A    between atoms: C_22  and  C_23
REMARK                            x       y       z     vdW  Elec       q    Type
REMARK                         _______ _______ _______ _____ _____    ______ ____
ROOT
ATOM      1  C   UNL     1      -0.122  10.100  21.869  0.00  0.00    +0.000 C 
ATOM      2  C   UNL     1       0.682   9.128  21.092  0.00  0.00    +0.000 A 
ATOM      3  N   UNL     1       1.111   8.012  21.691  0.00  0.00    +0.000 NA
ATOM      4  O   UNL     1       1.820   7.319  20.739  0.00  0.00    +0.000 OA
ATOM      5  C   UNL     1       1.839   8.002  19.546  0.00  0.00    +0.000 A 
ATOM      6  C   UNL     1       1.124   9.171  19.751  0.00  0.00    +0.000 A 
ENDROOT
BRANCH   6   7
ATOM      7  S   UNL     1       0.851  10.437  18.633  0.00  0.00    +0.000 S 
ATOM      8  O   UNL     1       2.142  10.772  18.072  0.00  0.00    +0.000 OA
ATOM      9  O   UNL     1      -0.218   9.958  17.785  0.00  0.00    +0.000 OA
BRANCH   7  10
ATOM     10  N   UNL     1       0.297  11.842  19.433  0.00  0.00    +0.000 NA
ATOM     11  C   UNL     1       1.350  12.866  19.663  0.00  0.00    +0.000 C 
BRANCH  10  12
ATOM     12  C   UNL     1      -0.900  12.427  18.721  0.00  0.00    +0.000 C 
BRANCH  12  13
ATOM     13  C   UNL     1      -2.241  12.270  19.442  0.00  0.00    +0.000 C 
ATOM     14  O   UNL     1      -2.330  12.451  20.658  0.00  0.00    +0.000 OA
ATOM     15  N   UNL     1      -3.327  11.954  18.632  0.00  0.00    +0.000 N 
ATOM     16  C   UNL     1      -3.277  11.348  17.287  0.00  0.00    +0.000 C 
ATOM     17  C   UNL     1      -4.711  11.328  16.740  0.00  0.00    +0.000 C 
ATOM     18  C   UNL     1      -5.507  11.621  17.969  0.00  0.00    +0.000 A 
ATOM     19  C   UNL     1      -6.891  11.617  18.096  0.00  0.00    +0.000 A 
ATOM     20  C   UNL     1      -7.445  12.002  19.318  0.00  0.00    +0.000 A 
ATOM     21  C   UNL     1      -6.618  12.391  20.381  0.00  0.00    +0.000 A 
ATOM     22  C   UNL     1      -5.227  12.394  20.239  0.00  0.00    +0.000 A 
ATOM     23  C   UNL     1      -4.682  12.002  19.028  0.00  0.00    +0.000 A 
ENDBRANCH  12  13
ENDBRANCH  10  12
ENDBRANCH   7  10
ENDBRANCH   6   7
BRANCH   5  24
ATOM     24  C   UNL     1       2.534   7.507  18.419  0.00  0.00    +0.000 C 
ATOM     25  C   UNL     1       3.173   6.333  18.469  0.00  0.00    +0.000 C 
BRANCH  25  26
ATOM     26  N   UNL     1       3.822   5.769  17.392  0.00  0.00    +0.000 N 
ATOM     27  H   UNL     1       3.150   5.457  16.693  0.00  0.00    +0.000 HD
BRANCH  26  28
ATOM     28  C   UNL     1       4.839   4.737  17.575  0.00  0.00    +0.000 C 
BRANCH  28  29
ATOM     29  C   UNL     1       5.685   4.701  16.338  0.00  0.00    +0.000 A 
ATOM     30  C   UNL     1       5.317   3.968  15.208  0.00  0.00    +0.000 A 
ATOM     31  C   UNL     1       6.097   4.035  14.060  0.00  0.00    +0.000 A 
ATOM     32  C   UNL     1       7.229   4.839  14.082  0.00  0.00    +0.000 A 
ATOM     33  N   UNL     1       7.621   5.558  15.156  0.00  0.00    +0.000 NA
ATOM     34  C   UNL     1       6.834   5.481  16.252  0.00  0.00    +0.000 A 
ENDBRANCH  28  29
ENDBRANCH  26  28
ENDBRANCH  25  26
ENDBRANCH   5  24
TORSDOF 8
ENDMDL
MODEL 4
REMARK VINA RESULT:      -7.9      1.243      1.969
REMARK  Name = 
REMARK  10 active torsions:
REMARK  status: ('A' for Active; 'I' for Inactive)
REMARK    1  A    between atoms: C_1  and  C_2
REMARK    2  A    between atoms: C_5  and  C_6
REMARK    3  A    between atoms: C_7  and  N_8
REMARK    4  A    between atoms: N_8  and  C_9
REMARK    5  A    between atoms: C_9  and  C_10
REMARK    6  A    between atoms: C_16  and  S_17
REMARK    7  A    between atoms: S_17  and  N_20
REMARK    8  A    between atoms: N_20  and  C_21
REMARK    9  A    between atoms: N_20  and  C_22
REMARK   10  A    between atoms: C_22  and  C_23
REMARK                            x       y       z     vdW  Elec       q    Type
REMARK                         _______ _______ _______ _____ _____    ______ ____
ROOT
ATOM      1  C   UNL     1       5.591   3.204  15.768  0.00  0.00    +0.000 C 
ATOM      2  C   UNL     1       6.339   4.430  16.127  0.00  0.00    +0.000 A 
ATOM      3  N   UNL     1       7.220   4.934  15.257  0.00  0.00    +0.000 NA
ATOM      4  O   UNL     1       7.752   6.050  15.857  0.00  0.00    +0.000 OA
ATOM      5  C   UNL     1       7.207   6.244  17.105  0.00  0.00    +0.000 A 
ATOM      6  C   UNL     1       6.305   5.211  17.304  0.00  0.00    +0.000 A 
ENDROOT
BRANCH   6   7
ATOM      7  S   UNL     1       5.361   4.906  18.697  0.00  0.00    +0.000 S 
ATOM      8  O   UNL     1       5.783   3.617  19.203  0.00  0.00    +0.000 OA
ATOM      9  O   UNL     1       5.500   6.096  19.507  0.00  0.00    +0.000 OA
BRANCH   7  10
ATOM     10  N   UNL     1       3.710   4.741  18.286  0.00  0.00    +0.000 NA
ATOM     11  C   UNL     1       2.937   3.871  19.210  0.00  0.00    +0.000 C 
BRANCH  10  12
ATOM     12  C   UNL     1       3.060   6.095  18.124  0.00  0.00    +0.000 C 
BRANCH  12  13
ATOM     13  C   UNL     1       2.250   6.588  19.326  0.00  0.00    +0.000 C 
ATOM     14  O   UNL     1       2.055   5.859  20.299  0.00  0.00    +0.000 OA
ATOM     15  N   UNL     1       1.799   7.902  19.249  0.00  0.00    +0.000 N 
ATOM     16  C   UNL     1       1.635   8.708  18.023  0.00  0.00    +0.000 C 
ATOM     17  C   UNL     1       1.255  10.131  18.458  0.00  0.00    +0.000 C 
ATOM     18  C   UNL     1       0.906   9.924  19.895  0.00  0.00    +0.000 A 
ATOM     19  C   UNL     1       0.377  10.861  20.775  0.00  0.00    +0.000 A 
ATOM     20  C   UNL     1       0.198  10.489  22.108  0.00  0.00    +0.000 A 
ATOM     21  C   UNL     1       0.554   9.203  22.541  0.00  0.00    +0.000 A 
ATOM     22  C   UNL     1       1.088   8.272  21.645  0.00  0.00    +0.000 A 
ATOM     23  C   UNL     1       1.256   8.643  20.322  0.00  0.00    +0.000 A 
ENDBRANCH  12  13
ENDBRANCH  10  12
ENDBRANCH   7  10
ENDBRANCH   6   7
BRANCH   5  24
ATOM     24  C   UNL     1       7.616   7.313  17.935  0.00  0.00    +0.000 C 
ATOM     25  C   UNL     1       7.823   8.533  17.429  0.00  0.00    +0.000 C 
BRANCH  25  26
ATOM     26  N   UNL     1       8.170   9.628  18.190  0.00  0.00    +0.000 N 
ATOM     27  H   UNL     1       8.259  10.457  17.604  0.00  0.00    +0.000 HD
BRANCH  26  28
ATOM     28  C   UNL     1       9.289   9.578  19.125  0.00  0.00    +0.000 C 
BRANCH  28  29
ATOM     29  C   UNL     1       9.881  10.953  19.209  0.00  0.00    +0.000 A 
ATOM     30  C   UNL     1      10.082  11.601  20.429  0.00  0.00    +0.000 A 
ATOM     31  C   UNL     1      10.709  12.841  20.454  0.00  0.00    +0.000 A 
ATOM     32  C   UNL     1      11.117  13.395  19.248  0.00  0.00    +0.000 A 
ATOM     33  N   UNL     1      10.936  12.802  18.048  0.00  0.00    +0.000 NA
ATOM     34  C   UNL     1      10.335  11.592  18.059  0.00  0.00    +0.000 A 
ENDBRANCH  28  29
ENDBRANCH  26  28
ENDBRANCH  25  26
ENDBRANCH   5  24
TORSDOF 8
ENDMDL
MODEL 5
REMARK VINA RESULT:      -7.9      4.771      8.180
REMARK  Name = 
REMARK  10 active torsions:
REMARK  status: ('A' for Active; 'I' for Inactive)
REMARK    1  A    between atoms: C_1  and  C_2
REMARK    2  A    between atoms: C_5  and  C_6
REMARK    3  A    between atoms: C_7  and  N_8
REMARK    4  A    between atoms: N_8  and  C_9
REMARK    5  A    between atoms: C_9  and  C_10
REMARK    6  A    between atoms: C_16  and  S_17
REMARK    7  A    between atoms: S_17  and  N_20
REMARK    8  A    between atoms: N_20  and  C_21
REMARK    9  A    between atoms: N_20  and  C_22
REMARK   10  A    between atoms: C_22  and  C_23
REMARK                            x       y       z     vdW  Elec       q    Type
REMARK                         _______ _______ _______ _____ _____    ______ ____
ROOT
ATOM      1  C   UNL     1      -0.039   9.503  21.783  0.00  0.00    +0.000 C 
ATOM      2  C   UNL     1       0.830   8.683  20.909  0.00  0.00    +0.000 A 
ATOM      3  N   UNL     1       1.345   7.545  21.385  0.00  0.00    +0.000 NA
ATOM      4  O   UNL     1       2.099   7.013  20.366  0.00  0.00    +0.000 OA
ATOM      5  C   UNL     1       2.059   7.820  19.253  0.00  0.00    +0.000 A 
ATOM      6  C   UNL     1       1.260   8.903  19.581  0.00  0.00    +0.000 A 
ENDROOT
BRANCH   6   7
ATOM      7  S   UNL     1       0.886  10.257  18.604  0.00  0.00    +0.000 S 
ATOM      8  O   UNL     1       2.139  10.718  18.047  0.00  0.00    +0.000 OA
ATOM      9  O   UNL     1      -0.183   9.806  17.740  0.00  0.00    +0.000 OA
BRANCH   7  10
ATOM     10  N   UNL     1       0.284  11.542  19.556  0.00  0.00    +0.000 NA
ATOM     11  C   UNL     1       1.323  12.502  20.010  0.00  0.00    +0.000 C 
BRANCH  10  12
ATOM     12  C   UNL     1      -0.851  12.247  18.850  0.00  0.00    +0.000 C 
BRANCH  12  13
ATOM     13  C   UNL     1      -2.220  12.142  19.527  0.00  0.00    +0.000 C 
ATOM     14  O   UNL     1      -2.336  12.297  20.744  0.00  0.00    +0.000 OA
ATOM     15  N   UNL     1      -3.295  11.904  18.678  0.00  0.00    +0.000 N 
ATOM     16  C   UNL     1      -3.235  11.331  17.319  0.00  0.00    +0.000 C 
ATOM     17  C   UNL     1      -4.652  11.401  16.729  0.00  0.00    +0.000 C 
ATOM     18  C   UNL     1      -5.469  11.704  17.943  0.00  0.00    +0.000 A 
ATOM     19  C   UNL     1      -6.854  11.768  18.029  0.00  0.00    +0.000 A 
ATOM     20  C   UNL     1      -7.425  12.151  19.244  0.00  0.00    +0.000 A 
ATOM     21  C   UNL     1      -6.611  12.468  20.341  0.00  0.00    +0.000 A 
ATOM     22  C   UNL     1      -5.218  12.402  20.240  0.00  0.00    +0.000 A 
ATOM     23  C   UNL     1      -4.657  12.013  19.035  0.00  0.00    +0.000 A 
ENDBRANCH  12  13
ENDBRANCH  10  12
ENDBRANCH   7  10
ENDBRANCH   6   7
BRANCH   5  24
ATOM     24  C   UNL     1       2.783   7.502  18.080  0.00  0.00    +0.000 C 
ATOM     25  C   UNL     1       3.676   6.507  18.075  0.00  0.00    +0.000 C 
BRANCH  25  26
ATOM     26  N   UNL     1       4.374   6.111  16.954  0.00  0.00    +0.000 N 
ATOM     27  H   UNL     1       3.821   6.273  16.113  0.00  0.00    +0.000 HD
BRANCH  26  28
ATOM     28  C   UNL     1       4.994   4.792  16.874  0.00  0.00    +0.000 C 
BRANCH  28  29
ATOM     29  C   UNL     1       4.122   3.826  17.617  0.00  0.00    +0.000 A 
ATOM     30  C   UNL     1       4.440   3.376  18.900  0.00  0.00    +0.000 A 
ATOM     31  C   UNL     1       3.554   2.545  19.576  0.00  0.00    +0.000 A 
ATOM     32  C   UNL     1       2.372   2.190  18.941  0.00  0.00    +0.000 A 
ATOM     33  N   UNL     1       2.032   2.600  17.700  0.00  0.00    +0.000 NA
ATOM     34  C   UNL     1       2.908   3.417  17.074  0.00  0.00    +0.000 A 
ENDBRANCH  28  29
ENDBRANCH  26  28
ENDBRANCH  25  26
ENDBRANCH   5  24
TORSDOF 8
ENDMDL
MODEL 6
REMARK VINA RESULT:      -7.7      3.991      7.369
REMARK  Name = 
REMARK  10 active torsions:
REMARK  status: ('A' for Active; 'I' for Inactive)
REMARK    1  A    between atoms: C_1  and  C_2
REMARK    2  A    between atoms: C_5  and  C_6
REMARK    3  A    between atoms: C_7  and  N_8
REMARK    4  A    between atoms: N_8  and  C_9
REMARK    5  A    between atoms: C_9  and  C_10
REMARK    6  A    between atoms: C_16  and  S_17
REMARK    7  A    between atoms: S_17  and  N_20
REMARK    8  A    between atoms: N_20  and  C_21
REMARK    9  A    between atoms: N_20  and  C_22
REMARK   10  A    between atoms: C_22  and  C_23
REMARK                            x       y       z     vdW  Elec       q    Type
REMARK                         _______ _______ _______ _____ _____    ______ ____
ROOT
ATOM      1  C   UNL     1      -0.286   9.308  22.140  0.00  0.00    +0.000 C 
ATOM      2  C   UNL     1       0.609   8.734  21.109  0.00  0.00    +0.000 A 
ATOM      3  N   UNL     1       1.143   7.525  21.310  0.00  0.00    +0.000 NA
ATOM      4  O   UNL     1       1.917   7.263  20.205  0.00  0.00    +0.000 OA
ATOM      5  C   UNL     1       1.872   8.309  19.314  0.00  0.00    +0.000 A 
ATOM      6  C   UNL     1       1.047   9.270  19.877  0.00  0.00    +0.000 A 
ENDROOT
BRANCH   6   7
ATOM      7  S   UNL     1       0.655  10.809  19.244  0.00  0.00    +0.000 S 
ATOM      8  O   UNL     1       1.755  11.191  18.384  0.00  0.00    +0.000 OA
ATOM      9  O   UNL     1      -0.680  10.660  18.707  0.00  0.00    +0.000 OA
BRANCH   7  10
ATOM     10  N   UNL     1       0.592  11.978  20.488  0.00  0.00    +0.000 NA
ATOM     11  C   UNL     1       1.799  12.841  20.574  0.00  0.00    +0.000 C 
BRANCH  10  12
ATOM     12  C   UNL     1      -0.672  12.801  20.389  0.00  0.00    +0.000 C 
BRANCH  12  13
ATOM     13  C   UNL     1      -1.676  12.612  21.527  0.00  0.00    +0.000 C 
ATOM     14  O   UNL     1      -1.296  12.503  22.694  0.00  0.00    +0.000 OA
ATOM     15  N   UNL     1      -3.016  12.613  21.154  0.00  0.00    +0.000 N 
ATOM     16  C   UNL     1      -3.557  12.348  19.806  0.00  0.00    +0.000 C 
ATOM     17  C   UNL     1      -5.069  12.608  19.860  0.00  0.00    +0.000 C 
ATOM     18  C   UNL     1      -5.312  12.675  21.332  0.00  0.00    +0.000 A 
ATOM     19  C   UNL     1      -6.538  12.781  21.978  0.00  0.00    +0.000 A 
ATOM     20  C   UNL     1      -6.544  12.915  23.368  0.00  0.00    +0.000 A 
ATOM     21  C   UNL     1      -5.338  12.948  24.083  0.00  0.00    +0.000 A 
ATOM     22  C   UNL     1      -4.112  12.844  23.420  0.00  0.00    +0.000 A 
ATOM     23  C   UNL     1      -4.111  12.702  22.042  0.00  0.00    +0.000 A 
ENDBRANCH  12  13
ENDBRANCH  10  12
ENDBRANCH   7  10
ENDBRANCH   6   7
BRANCH   5  24
ATOM     24  C   UNL     1       2.613   8.290  18.110  0.00  0.00    +0.000 C 
ATOM     25  C   UNL     1       3.427   7.269  17.822  0.00  0.00    +0.000 C 
BRANCH  25  26
ATOM     26  N   UNL     1       4.134   7.163  16.644  0.00  0.00    +0.000 N 
ATOM     27  H   UNL     1       3.530   7.351  15.846  0.00  0.00    +0.000 HD
BRANCH  26  28
ATOM     28  C   UNL     1       4.959   5.994  16.357  0.00  0.00    +0.000 C 
BRANCH  28  29
ATOM     29  C   UNL     1       6.070   5.955  17.363  0.00  0.00    +0.000 A 
ATOM     30  C   UNL     1       7.058   6.940  17.415  0.00  0.00    +0.000 A 
ATOM     31  C   UNL     1       8.017   6.899  18.420  0.00  0.00    +0.000 A 
ATOM     32  C   UNL     1       7.955   5.867  19.345  0.00  0.00    +0.000 A 
ATOM     33  N   UNL     1       7.019   4.893  19.325  0.00  0.00    +0.000 NA
ATOM     34  C   UNL     1       6.093   4.968  18.344  0.00  0.00    +0.000 A 
ENDBRANCH  28  29
ENDBRANCH  26  28
ENDBRANCH  25  26
ENDBRANCH   5  24
TORSDOF 8
ENDMDL
MODEL 7
REMARK VINA RESULT:      -7.7      3.309      4.879
REMARK  Name = 
REMARK  10 active torsions:
REMARK  status: ('A' for Active; 'I' for Inactive)
REMARK    1  A    between atoms: C_1  and  C_2
REMARK    2  A    between atoms: C_5  and  C_6
REMARK    3  A    between atoms: C_7  and  N_8
REMARK    4  A    between atoms: N_8  and  C_9
REMARK    5  A    between atoms: C_9  and  C_10
REMARK    6  A    between atoms: C_16  and  S_17
REMARK    7  A    between atoms: S_17  and  N_20
REMARK    8  A    between atoms: N_20  and  C_21
REMARK    9  A    between atoms: N_20  and  C_22
REMARK   10  A    between atoms: C_22  and  C_23
REMARK                            x       y       z     vdW  Elec       q    Type
REMARK                         _______ _______ _______ _____ _____    ______ ____
ROOT
ATOM      1  C   UNL     1       0.330   3.642  20.022  0.00  0.00    +0.000 C 
ATOM      2  C   UNL     1       1.402   3.364  19.038  0.00  0.00    +0.000 A 
ATOM      3  N   UNL     1       1.223   2.393  18.137  0.00  0.00    +0.000 NA
ATOM      4  O   UNL     1       2.366   2.366  17.375  0.00  0.00    +0.000 OA
ATOM      5  C   UNL     1       3.263   3.317  17.801  0.00  0.00    +0.000 A 
ATOM      6  C   UNL     1       2.671   3.963  18.874  0.00  0.00    +0.000 A 
ENDROOT
BRANCH   6   7
ATOM      7  S   UNL     1       3.337   5.209  19.839  0.00  0.00    +0.000 S 
ATOM      8  O   UNL     1       2.782   5.041  21.165  0.00  0.00    +0.000 OA
ATOM      9  O   UNL     1       4.764   5.122  19.622  0.00  0.00    +0.000 OA
BRANCH   7  10
ATOM     10  N   UNL     1       2.816   6.742  19.292  0.00  0.00    +0.000 NA
ATOM     11  C   UNL     1       2.421   6.775  17.860  0.00  0.00    +0.000 C 
BRANCH  10  12
ATOM     12  C   UNL     1       1.722   7.285  20.182  0.00  0.00    +0.000 C 
BRANCH  12  13
ATOM     13  C   UNL     1       1.360   8.756  19.963  0.00  0.00    +0.000 C 
ATOM     14  O   UNL     1       1.617   9.319  18.898  0.00  0.00    +0.000 OA
ATOM     15  N   UNL     1       0.702   9.378  21.019  0.00  0.00    +0.000 N 
ATOM     16  C   UNL     1       0.694   8.945  22.431  0.00  0.00    +0.000 C 
ATOM     17  C   UNL     1      -0.285   9.857  23.184  0.00  0.00    +0.000 C 
ATOM     18  C   UNL     1      -0.497  10.955  22.193  0.00  0.00    +0.000 A 
ATOM     19  C   UNL     1      -1.214  12.131  22.382  0.00  0.00    +0.000 A 
ATOM     20  C   UNL     1      -1.365  12.995  21.297  0.00  0.00    +0.000 A 
ATOM     21  C   UNL     1      -0.810  12.672  20.049  0.00  0.00    +0.000 A 
ATOM     22  C   UNL     1      -0.095  11.484  19.873  0.00  0.00    +0.000 A 
ATOM     23  C   UNL     1       0.060  10.634  20.955  0.00  0.00    +0.000 A 
ENDBRANCH  12  13
ENDBRANCH  10  12
ENDBRANCH   7  10
ENDBRANCH   6   7
BRANCH   5  24
ATOM     24  C   UNL     1       4.531   3.465  17.193  0.00  0.00    +0.000 C 
ATOM     25  C   UNL     1       4.641   3.908  15.936  0.00  0.00    +0.000 C 
BRANCH  25  26
ATOM     26  N   UNL     1       5.847   4.125  15.305  0.00  0.00    +0.000 N 
ATOM     27  H   UNL     1       6.533   3.430  15.595  0.00  0.00    +0.000 HD
BRANCH  26  28
ATOM     28  C   UNL     1       6.472   5.444  15.298  0.00  0.00    +0.000 C 
BRANCH  28  29
ATOM     29  C   UNL     1       7.122   5.652  16.633  0.00  0.00    +0.000 A 
ATOM     30  C   UNL     1       7.267   6.921  17.198  0.00  0.00    +0.000 A 
ATOM     31  C   UNL     1       7.803   7.047  18.474  0.00  0.00    +0.000 A 
ATOM     32  C   UNL     1       8.179   5.893  19.146  0.00  0.00    +0.000 A 
ATOM     33  N   UNL     1       8.060   4.650  18.632  0.00  0.00    +0.000 NA
ATOM     34  C   UNL     1       7.524   4.559  17.395  0.00  0.00    +0.000 A 
ENDBRANCH  28  29
ENDBRANCH  26  28
ENDBRANCH  25  26
ENDBRANCH   5  24
TORSDOF 8
ENDMDL
MODEL 8
REMARK VINA RESULT:      -7.5      4.154      6.101
REMARK  Name = 
REMARK  10 active torsions:
REMARK  status: ('A' for Active; 'I' for Inactive)
REMARK    1  A    between atoms: C_1  and  C_2
REMARK    2  A    between atoms: C_5  and  C_6
REMARK    3  A    between atoms: C_7  and  N_8
REMARK    4  A    between atoms: N_8  and  C_9
REMARK    5  A    between atoms: C_9  and  C_10
REMARK    6  A    between atoms: C_16  and  S_17
REMARK    7  A    between atoms: S_17  and  N_20
REMARK    8  A    between atoms: N_20  and  C_21
REMARK    9  A    between atoms: N_20  and  C_22
REMARK   10  A    between atoms: C_22  and  C_23
REMARK                            x       y       z     vdW  Elec       q    Type
REMARK                         _______ _______ _______ _____ _____    ______ ____
ROOT
ATOM      1  C   UNL     1       0.614   3.519  20.139  0.00  0.00    +0.000 C 
ATOM      2  C   UNL     1       1.547   3.471  18.991  0.00  0.00    +0.000 A 
ATOM      3  N   UNL     1       1.350   2.566  18.027  0.00  0.00    +0.000 NA
ATOM      4  O   UNL     1       2.359   2.757  17.113  0.00  0.00    +0.000 OA
ATOM      5  C   UNL     1       3.190   3.779  17.506  0.00  0.00    +0.000 A 
ATOM      6  C   UNL     1       2.696   4.246  18.713  0.00  0.00    +0.000 A 
ENDROOT
BRANCH   6   7
ATOM      7  S   UNL     1       3.348   5.483  19.699  0.00  0.00    +0.000 S 
ATOM      8  O   UNL     1       2.425   5.656  20.801  0.00  0.00    +0.000 OA
ATOM      9  O   UNL     1       4.716   5.080  19.941  0.00  0.00    +0.000 OA
BRANCH   7  10
ATOM     10  N   UNL     1       3.379   6.972  18.862  0.00  0.00    +0.000 NA
ATOM     11  C   UNL     1       4.382   7.033  17.767  0.00  0.00    +0.000 C 
BRANCH  10  12
ATOM     12  C   UNL     1       1.999   7.341  18.371  0.00  0.00    +0.000 C 
BRANCH  12  13
ATOM     13  C   UNL     1       1.670   8.835  18.378  0.00  0.00    +0.000 C 
ATOM     14  O   UNL     1       1.954   9.550  17.415  0.00  0.00    +0.000 OA
ATOM     15  N   UNL     1       1.009   9.301  19.510  0.00  0.00    +0.000 N 
ATOM     16  C   UNL     1       0.972   8.656  20.838  0.00  0.00    +0.000 C 
ATOM     17  C   UNL     1       0.002   9.463  21.712  0.00  0.00    +0.000 C 
ATOM     18  C   UNL     1      -0.173  10.705  20.901  0.00  0.00    +0.000 A 
ATOM     19  C   UNL     1      -0.868  11.854  21.261  0.00  0.00    +0.000 A 
ATOM     20  C   UNL     1      -0.985  12.878  20.321  0.00  0.00    +0.000 A 
ATOM     21  C   UNL     1      -0.420  12.739  19.045  0.00  0.00    +0.000 A 
ATOM     22  C   UNL     1       0.274  11.576  18.695  0.00  0.00    +0.000 A 
ATOM     23  C   UNL     1       0.395  10.566  19.634  0.00  0.00    +0.000 A 
ENDBRANCH  12  13
ENDBRANCH  10  12
ENDBRANCH   7  10
ENDBRANCH   6   7
BRANCH   5  24
ATOM     24  C   UNL     1       4.324   4.147  16.745  0.00  0.00    +0.000 C 
ATOM     25  C   UNL     1       5.542   3.702  17.070  0.00  0.00    +0.000 C 
BRANCH  25  26
ATOM     26  N   UNL     1       6.678   3.978  16.341  0.00  0.00    +0.000 N 
ATOM     27  H   UNL     1       7.506   3.917  16.931  0.00  0.00    +0.000 HD
BRANCH  26  28
ATOM     28  C   UNL     1       6.771   5.171  15.505  0.00  0.00    +0.000 C 
BRANCH  28  29
ATOM     29  C   UNL     1       6.778   4.730  14.072  0.00  0.00    +0.000 A 
ATOM     30  C   UNL     1       7.687   5.240  13.143  0.00  0.00    +0.000 A 
ATOM     31  C   UNL     1       7.702   4.736  11.848  0.00  0.00    +0.000 A 
ATOM     32  C   UNL     1       6.801   3.732  11.523  0.00  0.00    +0.000 A 
ATOM     33  N   UNL     1       5.903   3.217  12.391  0.00  0.00    +0.000 NA
ATOM     34  C   UNL     1       5.922   3.719  13.646  0.00  0.00    +0.000 A 
ENDBRANCH  28  29
ENDBRANCH  26  28
ENDBRANCH  25  26
ENDBRANCH   5  24
TORSDOF 8
ENDMDL
MODEL 9
REMARK VINA RESULT:      -7.5      4.706      7.847
REMARK  Name = 
REMARK  10 active torsions:
REMARK  status: ('A' for Active; 'I' for Inactive)
REMARK    1  A    between atoms: C_1  and  C_2
REMARK    2  A    between atoms: C_5  and  C_6
REMARK    3  A    between atoms: C_7  and  N_8
REMARK    4  A    between atoms: N_8  and  C_9
REMARK    5  A    between atoms: C_9  and  C_10
REMARK    6  A    between atoms: C_16  and  S_17
REMARK    7  A    between atoms: S_17  and  N_20
REMARK    8  A    between atoms: N_20  and  C_21
REMARK    9  A    between atoms: N_20  and  C_22
REMARK   10  A    between atoms: C_22  and  C_23
REMARK                            x       y       z     vdW  Elec       q    Type
REMARK                         _______ _______ _______ _____ _____    ______ ____
ROOT
ATOM      1  C   UNL     1      -0.157  11.124  21.884  0.00  0.00    +0.000 C 
ATOM      2  C   UNL     1       0.557   9.919  21.402  0.00  0.00    +0.000 A 
ATOM      3  N   UNL     1       0.908   8.975  22.281  0.00  0.00    +0.000 NA
ATOM      4  O   UNL     1       1.547   7.999  21.554  0.00  0.00    +0.000 OA
ATOM      5  C   UNL     1       1.599   8.333  20.221  0.00  0.00    +0.000 A 
ATOM      6  C   UNL     1       0.979   9.566  20.101  0.00  0.00    +0.000 A 
ENDROOT
BRANCH   6   7
ATOM      7  S   UNL     1       0.786  10.503  18.682  0.00  0.00    +0.000 S 
ATOM      8  O   UNL     1       2.068  10.495  18.010  0.00  0.00    +0.000 OA
ATOM      9  O   UNL     1      -0.388   9.958  18.036  0.00  0.00    +0.000 OA
BRANCH   7  10
ATOM     10  N   UNL     1       0.460  12.134  19.073  0.00  0.00    +0.000 NA
ATOM     11  C   UNL     1       1.589  13.061  18.801  0.00  0.00    +0.000 C 
BRANCH  10  12
ATOM     12  C   UNL     1      -0.814  12.600  18.409  0.00  0.00    +0.000 C 
BRANCH  12  13
ATOM     13  C   UNL     1      -2.058  12.616  19.300  0.00  0.00    +0.000 C 
ATOM     14  O   UNL     1      -2.954  11.784  19.150  0.00  0.00    +0.000 OA
ATOM     15  N   UNL     1      -2.076  13.593  20.290  0.00  0.00    +0.000 N 
ATOM     16  C   UNL     1      -1.285  14.840  20.314  0.00  0.00    +0.000 C 
ATOM     17  C   UNL     1      -1.536  15.516  21.670  0.00  0.00    +0.000 C 
ATOM     18  C   UNL     1      -2.721  14.756  22.171  0.00  0.00    +0.000 A 
ATOM     19  C   UNL     1      -3.460  15.013  23.319  0.00  0.00    +0.000 A 
ATOM     20  C   UNL     1      -4.486  14.129  23.658  0.00  0.00    +0.000 A 
ATOM     21  C   UNL     1      -4.751  13.009  22.856  0.00  0.00    +0.000 A 
ATOM     22  C   UNL     1      -3.997  12.761  21.705  0.00  0.00    +0.000 A 
ATOM     23  C   UNL     1      -2.986  13.645  21.369  0.00  0.00    +0.000 A 
ENDBRANCH  12  13
ENDBRANCH  10  12
ENDBRANCH   7  10
ENDBRANCH   6   7
BRANCH   5  24
ATOM     24  C   UNL     1       2.236   7.500  19.272  0.00  0.00    +0.000 C 
ATOM     25  C   UNL     1       2.717   6.303  19.625  0.00  0.00    +0.000 C 
BRANCH  25  26
ATOM     26  N   UNL     1       3.300   5.422  18.739  0.00  0.00    +0.000 N 
ATOM     27  H   UNL     1       2.646   4.681  18.491  0.00  0.00    +0.000 HD
BRANCH  26  28
ATOM     28  C   UNL     1       4.611   4.838  19.002  0.00  0.00    +0.000 C 
BRANCH  28  29
ATOM     29  C   UNL     1       5.387   4.853  17.720  0.00  0.00    +0.000 A 
ATOM     30  C   UNL     1       4.793   5.171  16.497  0.00  0.00    +0.000 A 
ATOM     31  C   UNL     1       5.577   5.249  15.352  0.00  0.00    +0.000 A 
ATOM     32  C   UNL     1       6.938   5.005  15.470  0.00  0.00    +0.000 A 
ATOM     33  N   UNL     1       7.548   4.689  16.633  0.00  0.00    +0.000 NA
ATOM     34  C   UNL     1       6.761   4.633  17.730  0.00  0.00    +0.000 A 
ENDBRANCH  28  29
ENDBRANCH  26  28
ENDBRANCH  25  26
ENDBRANCH   5  24
TORSDOF 8
ENDMDL
