MODEL 1
REMARK VINA RESULT:      -7.5      0.000      0.000
REMARK  Name = 
REMARK  6 active torsions:
REMARK  status: ('A' for Active; 'I' for Inactive)
REMARK    1  A    between atoms: C_5  and  C_6
REMARK    2  A    between atoms: C_8  and  C_9
REMARK    3  A    between atoms: C_9  and  O_10
REMARK    4  A    between atoms: C_11  and  O_12
REMARK    5  A    between atoms: C_13  and  O_14
REMARK    6  A    between atoms: N_15  and  C_16
REMARK                            x       y       z     vdW  Elec       q    Type
REMARK                         _______ _______ _______ _____ _____    ______ ____
ROOT
ATOM      1  O   UNL     1       0.509   4.060  20.137  0.00  0.00    +0.000 OA
ATOM      2  C   UNL     1       1.695   3.848  19.911  0.00  0.00    +0.000 C 
ATOM      3  C   UNL     1       2.288   2.472  20.082  0.00  0.00    +0.000 C 
ATOM      4  S   UNL     1       3.964   2.537  19.439  0.00  0.00    +0.000 S 
ATOM      5  C   UNL     1       4.047   4.364  19.529  0.00  0.00    +0.000 C 
ATOM      6  N   UNL     1       2.656   4.807  19.549  0.00  0.00    +0.000 N 
ENDROOT
BRANCH   6   7
ATOM      7  C   UNL     1       2.286   6.175  19.435  0.00  0.00    +0.000 A 
ATOM      8  C   UNL     1       2.329   6.797  18.177  0.00  0.00    +0.000 A 
ATOM      9  C   UNL     1       2.024   8.152  18.032  0.00  0.00    +0.000 A 
ATOM     10  C   UNL     1       1.631   8.892  19.142  0.00  0.00    +0.000 A 
ATOM     11  C   UNL     1       1.557   8.273  20.390  0.00  0.00    +0.000 A 
ATOM     12 CL   UNL     1       1.023   9.177  21.754  0.00  0.00    +0.000 Cl
ATOM     13  C   UNL     1       1.899   6.927  20.547  0.00  0.00    +0.000 A 
ENDBRANCH   6   7
BRANCH   5  14
ATOM     14  C   UNL     1       4.978   4.949  18.415  0.00  0.00    +0.000 C 
ATOM     15  O   UNL     1       5.811   6.033  18.925  0.00  0.00    +0.000 OA
ATOM     16  C   UNL     1       7.188   5.758  18.562  0.00  0.00    +0.000 C 
ATOM     17  C   UNL     1       7.122   4.816  17.377  0.00  0.00    +0.000 C 
ATOM     18  C   UNL     1       5.918   3.953  17.727  0.00  0.00    +0.000 C 
BRANCH  17  19
ATOM     19  O   UNL     1       8.311   4.065  17.180  0.00  0.00    +0.000 OA
ATOM     20  H   UNL     1       8.138   3.133  17.400  0.00  0.00    +0.000 HD
ENDBRANCH  17  19
BRANCH  18  21
ATOM     21  O   UNL     1       5.351   3.364  16.560  0.00  0.00    +0.000 OA
ATOM     22  H   UNL     1       5.734   2.478  16.423  0.00  0.00    +0.000 HD
ENDBRANCH  18  21
BRANCH  16  23
ATOM     23  C   UNL     1       7.900   7.067  18.227  0.00  0.00    +0.000 C 
BRANCH  23  24
ATOM     24  O   UNL     1       7.900   7.277  16.816  0.00  0.00    +0.000 OA
ATOM     25  H   UNL     1       8.385   8.110  16.665  0.00  0.00    +0.000 HD
ENDBRANCH  23  24
ENDBRANCH  16  23
ENDBRANCH   5  14
TORSDOF 6
ENDMDL
MODEL 2
REMARK VINA RESULT:      -7.2      1.146      1.539
REMARK  Name = 
REMARK  6 active torsions:
REMARK  status: ('A' for Active; 'I' for Inactive)
REMARK    1  A    between atoms: C_5  and  C_6
REMARK    2  A    between atoms: C_8  and  C_9
REMARK    3  A    between atoms: C_9  and  O_10
REMARK    4  A    between atoms: C_11  and  O_12
REMARK    5  A    between atoms: C_13  and  O_14
REMARK    6  A    between atoms: N_15  and  C_16
REMARK                            x       y       z     vdW  Elec       q    Type
REMARK                         _______ _______ _______ _____ _____    ______ ____
ROOT
ATOM      1  O   UNL     1       0.422   3.665  19.644  0.00  0.00    +0.000 OA
ATOM      2  C   UNL     1       1.589   3.525  19.297  0.00  0.00    +0.000 C 
ATOM      3  C   UNL     1       2.164   2.156  19.028  0.00  0.00    +0.000 C 
ATOM      4  S   UNL     1       3.803   2.400  18.333  0.00  0.00    +0.000 S 
ATOM      5  C   UNL     1       3.927   4.122  18.943  0.00  0.00    +0.000 C 
ATOM      6  N   UNL     1       2.548   4.544  19.172  0.00  0.00    +0.000 N 
ENDROOT
BRANCH   6   7
ATOM      7  C   UNL     1       2.199   5.887  19.480  0.00  0.00    +0.000 A 
ATOM      8  C   UNL     1       1.759   6.205  20.775  0.00  0.00    +0.000 A 
ATOM      9  C   UNL     1       1.357   7.502  21.102  0.00  0.00    +0.000 A 
ATOM     10  C   UNL     1       1.430   8.508  20.145  0.00  0.00    +0.000 A 
ATOM     11  C   UNL     1       1.895   8.206  18.865  0.00  0.00    +0.000 A 
ATOM     12 CL   UNL     1       2.033   9.462  17.696  0.00  0.00    +0.000 Cl
ATOM     13  C   UNL     1       2.262   6.902  18.522  0.00  0.00    +0.000 A 
ENDBRANCH   6   7
BRANCH   5  14
ATOM     14  C   UNL     1       4.805   5.002  17.993  0.00  0.00    +0.000 C 
ATOM     15  O   UNL     1       5.763   5.810  18.741  0.00  0.00    +0.000 OA
ATOM     16  C   UNL     1       7.078   5.608  18.165  0.00  0.00    +0.000 C 
ATOM     17  C   UNL     1       6.838   5.123  16.750  0.00  0.00    +0.000 C 
ATOM     18  C   UNL     1       5.602   4.252  16.920  0.00  0.00    +0.000 C 
BRANCH  17  19
ATOM     19  O   UNL     1       7.942   4.426  16.192  0.00  0.00    +0.000 OA
ATOM     20  H   UNL     1       7.613   3.767  15.555  0.00  0.00    +0.000 HD
ENDBRANCH  17  19
BRANCH  18  21
ATOM     21  O   UNL     1       4.895   4.117  15.691  0.00  0.00    +0.000 OA
ATOM     22  H   UNL     1       4.848   3.175  15.442  0.00  0.00    +0.000 HD
ENDBRANCH  18  21
BRANCH  16  23
ATOM     23  C   UNL     1       7.863   6.917  18.208  0.00  0.00    +0.000 C 
BRANCH  23  24
ATOM     24  O   UNL     1       7.789   7.573  16.943  0.00  0.00    +0.000 OA
ATOM     25  H   UNL     1       7.647   6.870  16.280  0.00  0.00    +0.000 HD
ENDBRANCH  23  24
ENDBRANCH  16  23
ENDBRANCH   5  14
TORSDOF 6
ENDMDL
MODEL 3
REMARK VINA RESULT:      -7.1      3.299      5.725
REMARK  Name = 
REMARK  6 active torsions:
REMARK  status: ('A' for Active; 'I' for Inactive)
REMARK    1  A    between atoms: C_5  and  C_6
REMARK    2  A    between atoms: C_8  and  C_9
REMARK    3  A    between atoms: C_9  and  O_10
REMARK    4  A    between atoms: C_11  and  O_12
REMARK    5  A    between atoms: C_13  and  O_14
REMARK    6  A    between atoms: N_15  and  C_16
REMARK                            x       y       z     vdW  Elec       q    Type
REMARK                         _______ _______ _______ _____ _____    ______ ____
ROOT
ATOM      1  O   UNL     1       3.840   1.275  18.434  0.00  0.00    +0.000 OA
ATOM      2  C   UNL     1       3.117   2.245  18.633  0.00  0.00    +0.000 C 
ATOM      3  C   UNL     1       1.728   2.079  19.197  0.00  0.00    +0.000 C 
ATOM      4  S   UNL     1       1.101   3.726  19.547  0.00  0.00    +0.000 S 
ATOM      5  C   UNL     1       2.325   4.544  18.457  0.00  0.00    +0.000 C 
ATOM      6  N   UNL     1       3.414   3.581  18.320  0.00  0.00    +0.000 N 
ENDROOT
BRANCH   6   7
ATOM      7  C   UNL     1       4.649   3.906  17.694  0.00  0.00    +0.000 A 
ATOM      8  C   UNL     1       5.739   4.302  18.485  0.00  0.00    +0.000 A 
ATOM      9  C   UNL     1       6.951   4.680  17.904  0.00  0.00    +0.000 A 
ATOM     10  C   UNL     1       7.100   4.624  16.523  0.00  0.00    +0.000 A 
ATOM     11  C   UNL     1       6.031   4.202  15.733  0.00  0.00    +0.000 A 
ATOM     12 CL   UNL     1       6.233   4.086  14.027  0.00  0.00    +0.000 Cl
ATOM     13  C   UNL     1       4.804   3.861  16.306  0.00  0.00    +0.000 A 
ENDBRANCH   6   7
BRANCH   5  14
ATOM     14  C   UNL     1       2.685   5.976  18.977  0.00  0.00    +0.000 C 
ATOM     15  O   UNL     1       2.662   6.960  17.900  0.00  0.00    +0.000 OA
ATOM     16  C   UNL     1       1.841   8.078  18.322  0.00  0.00    +0.000 C 
ATOM     17  C   UNL     1       1.823   8.028  19.836  0.00  0.00    +0.000 C 
ATOM     18  C   UNL     1       1.803   6.529  20.101  0.00  0.00    +0.000 C 
BRANCH  17  19
ATOM     19  O   UNL     1       0.723   8.714  20.415  0.00  0.00    +0.000 OA
ATOM     20  H   UNL     1       0.308   8.141  21.086  0.00  0.00    +0.000 HD
ENDBRANCH  17  19
BRANCH  18  21
ATOM     21  O   UNL     1       2.303   6.231  21.402  0.00  0.00    +0.000 OA
ATOM     22  H   UNL     1       1.631   5.733  21.904  0.00  0.00    +0.000 HD
ENDBRANCH  18  21
BRANCH  16  23
ATOM     23  C   UNL     1       2.436   9.380  17.790  0.00  0.00    +0.000 C 
BRANCH  23  24
ATOM     24  O   UNL     1       1.477  10.432  17.889  0.00  0.00    +0.000 OA
ATOM     25  H   UNL     1       1.804  11.153  17.318  0.00  0.00    +0.000 HD
ENDBRANCH  23  24
ENDBRANCH  16  23
ENDBRANCH   5  14
TORSDOF 6
ENDMDL
MODEL 4
REMARK VINA RESULT:      -6.9      3.027      5.539
REMARK  Name = 
REMARK  6 active torsions:
REMARK  status: ('A' for Active; 'I' for Inactive)
REMARK    1  A    between atoms: C_5  and  C_6
REMARK    2  A    between atoms: C_8  and  C_9
REMARK    3  A    between atoms: C_9  and  O_10
REMARK    4  A    between atoms: C_11  and  O_12
REMARK    5  A    between atoms: C_13  and  O_14
REMARK    6  A    between atoms: N_15  and  C_16
REMARK                            x       y       z     vdW  Elec       q    Type
REMARK                         _______ _______ _______ _____ _____    ______ ____
ROOT
ATOM      1  O   UNL     1       3.864   1.385  18.249  0.00  0.00    +0.000 OA
ATOM      2  C   UNL     1       3.130   2.351  18.420  0.00  0.00    +0.000 C 
ATOM      3  C   UNL     1       1.693   2.174  18.844  0.00  0.00    +0.000 C 
ATOM      4  S   UNL     1       1.044   3.811  19.202  0.00  0.00    +0.000 S 
ATOM      5  C   UNL     1       2.368   4.663  18.267  0.00  0.00    +0.000 C 
ATOM      6  N   UNL     1       3.461   3.697  18.192  0.00  0.00    +0.000 N 
ENDROOT
BRANCH   6   7
ATOM      7  C   UNL     1       4.750   4.037  17.698  0.00  0.00    +0.000 A 
ATOM      8  C   UNL     1       5.035   3.855  16.335  0.00  0.00    +0.000 A 
ATOM      9  C   UNL     1       6.305   4.127  15.822  0.00  0.00    +0.000 A 
ATOM     10  C   UNL     1       7.296   4.624  16.661  0.00  0.00    +0.000 A 
ATOM     11  C   UNL     1       7.011   4.835  18.010  0.00  0.00    +0.000 A 
ATOM     12 CL   UNL     1       8.222   5.498  19.038  0.00  0.00    +0.000 Cl
ATOM     13  C   UNL     1       5.754   4.528  18.537  0.00  0.00    +0.000 A 
ENDBRANCH   6   7
BRANCH   5  14
ATOM     14  C   UNL     1       2.684   6.068  18.877  0.00  0.00    +0.000 C 
ATOM     15  O   UNL     1       2.609   7.121  17.869  0.00  0.00    +0.000 OA
ATOM     16  C   UNL     1       1.755   8.177  18.377  0.00  0.00    +0.000 C 
ATOM     17  C   UNL     1       1.762   8.025  19.885  0.00  0.00    +0.000 C 
ATOM     18  C   UNL     1       1.801   6.512  20.048  0.00  0.00    +0.000 C 
BRANCH  17  19
ATOM     19  O   UNL     1       0.647   8.629  20.523  0.00  0.00    +0.000 OA
ATOM     20  H   UNL     1      -0.172   8.306  20.106  0.00  0.00    +0.000 HD
ENDBRANCH  17  19
BRANCH  18  21
ATOM     21  O   UNL     1       2.331   6.146  21.319  0.00  0.00    +0.000 OA
ATOM     22  H   UNL     1       3.148   6.650  21.490  0.00  0.00    +0.000 HD
ENDBRANCH  18  21
BRANCH  16  23
ATOM     23  C   UNL     1       2.293   9.533  17.926  0.00  0.00    +0.000 C 
BRANCH  23  24
ATOM     24  O   UNL     1       1.304  10.542  18.123  0.00  0.00    +0.000 OA
ATOM     25  H   UNL     1       0.625  10.395  17.436  0.00  0.00    +0.000 HD
ENDBRANCH  23  24
ENDBRANCH  16  23
ENDBRANCH   5  14
TORSDOF 6
ENDMDL
MODEL 5
REMARK VINA RESULT:      -6.8      3.054      5.496
REMARK  Name = 
REMARK  6 active torsions:
REMARK  status: ('A' for Active; 'I' for Inactive)
REMARK    1  A    between atoms: C_5  and  C_6
REMARK    2  A    between atoms: C_8  and  C_9
REMARK    3  A    between atoms: C_9  and  O_10
REMARK    4  A    between atoms: C_11  and  O_12
REMARK    5  A    between atoms: C_13  and  O_14
REMARK    6  A    between atoms: N_15  and  C_16
REMARK                            x       y       z     vdW  Elec       q    Type
REMARK                         _______ _______ _______ _____ _____    ______ ____
ROOT
ATOM      1  O   UNL     1       4.058   2.046  19.664  0.00  0.00    +0.000 OA
ATOM      2  C   UNL     1       3.259   2.974  19.722  0.00  0.00    +0.000 C 
ATOM      3  C   UNL     1       1.902   2.795  20.355  0.00  0.00    +0.000 C 
ATOM      4  S   UNL     1       1.144   4.422  20.445  0.00  0.00    +0.000 S 
ATOM      5  C   UNL     1       2.270   5.138  19.191  0.00  0.00    +0.000 C 
ATOM      6  N   UNL     1       3.434   4.257  19.178  0.00  0.00    +0.000 N 
ENDROOT
BRANCH   6   7
ATOM      7  C   UNL     1       4.623   4.569  18.463  0.00  0.00    +0.000 A 
ATOM      8  C   UNL     1       4.713   4.238  17.102  0.00  0.00    +0.000 A 
ATOM      9  C   UNL     1       5.883   4.479  16.378  0.00  0.00    +0.000 A 
ATOM     10  C   UNL     1       6.964   5.094  17.000  0.00  0.00    +0.000 A 
ATOM     11  C   UNL     1       6.870   5.452  18.345  0.00  0.00    +0.000 A 
ATOM     12 CL   UNL     1       8.190   6.259  19.101  0.00  0.00    +0.000 Cl
ATOM     13  C   UNL     1       5.716   5.178  19.084  0.00  0.00    +0.000 A 
ENDBRANCH   6   7
BRANCH   5  14
ATOM     14  C   UNL     1       2.517   6.661  19.449  0.00  0.00    +0.000 C 
ATOM     15  O   UNL     1       2.648   7.404  18.200  0.00  0.00    +0.000 OA
ATOM     16  C   UNL     1       1.750   8.542  18.251  0.00  0.00    +0.000 C 
ATOM     17  C   UNL     1       1.492   8.799  19.721  0.00  0.00    +0.000 C 
ATOM     18  C   UNL     1       1.457   7.386  20.287  0.00  0.00    +0.000 C 
BRANCH  17  19
ATOM     19  O   UNL     1       0.301   9.532  19.971  0.00  0.00    +0.000 OA
ATOM     20  H   UNL     1      -0.111   9.199  20.788  0.00  0.00    +0.000 HD
ENDBRANCH  17  19
BRANCH  18  21
ATOM     21  O   UNL     1       1.748   7.384  21.681  0.00  0.00    +0.000 OA
ATOM     22  H   UNL     1       2.710   7.285  21.814  0.00  0.00    +0.000 HD
ENDBRANCH  18  21
BRANCH  16  23
ATOM     23  C   UNL     1       2.399   9.738  17.556  0.00  0.00    +0.000 C 
BRANCH  23  24
ATOM     24  O   UNL     1       1.763  10.947  17.968  0.00  0.00    +0.000 OA
ATOM     25  H   UNL     1       2.301  11.299  18.703  0.00  0.00    +0.000 HD
ENDBRANCH  23  24
ENDBRANCH  16  23
ENDBRANCH   5  14
TORSDOF 6
ENDMDL
MODEL 6
REMARK VINA RESULT:      -6.7      1.335      2.045
REMARK  Name = 
REMARK  6 active torsions:
REMARK  status: ('A' for Active; 'I' for Inactive)
REMARK    1  A    between atoms: C_5  and  C_6
REMARK    2  A    between atoms: C_8  and  C_9
REMARK    3  A    between atoms: C_9  and  O_10
REMARK    4  A    between atoms: C_11  and  O_12
REMARK    5  A    between atoms: C_13  and  O_14
REMARK    6  A    between atoms: N_15  and  C_16
REMARK                            x       y       z     vdW  Elec       q    Type
REMARK                         _______ _______ _______ _____ _____    ______ ____
ROOT
ATOM      1  O   UNL     1       0.436   3.417  18.952  0.00  0.00    +0.000 OA
ATOM      2  C   UNL     1       1.620   3.103  18.989  0.00  0.00    +0.000 C 
ATOM      3  C   UNL     1       2.039   1.659  19.120  0.00  0.00    +0.000 C 
ATOM      4  S   UNL     1       3.822   1.607  18.906  0.00  0.00    +0.000 S 
ATOM      5  C   UNL     1       4.027   3.396  19.244  0.00  0.00    +0.000 C 
ATOM      6  N   UNL     1       2.714   3.983  18.990  0.00  0.00    +0.000 N 
ENDROOT
BRANCH   6   7
ATOM      7  C   UNL     1       2.495   5.387  18.966  0.00  0.00    +0.000 A 
ATOM      8  C   UNL     1       2.567   6.074  17.744  0.00  0.00    +0.000 A 
ATOM      9  C   UNL     1       2.410   7.461  17.685  0.00  0.00    +0.000 A 
ATOM     10  C   UNL     1       2.138   8.172  18.849  0.00  0.00    +0.000 A 
ATOM     11  C   UNL     1       2.037   7.493  20.062  0.00  0.00    +0.000 A 
ATOM     12 CL   UNL     1       1.650   8.368  21.493  0.00  0.00    +0.000 Cl
ATOM     13  C   UNL     1       2.231   6.111  20.132  0.00  0.00    +0.000 A 
ENDBRANCH   6   7
BRANCH   5  14
ATOM     14  C   UNL     1       5.249   3.988  18.467  0.00  0.00    +0.000 C 
ATOM     15  O   UNL     1       5.013   4.004  17.027  0.00  0.00    +0.000 OA
ATOM     16  C   UNL     1       5.301   5.337  16.533  0.00  0.00    +0.000 C 
ATOM     17  C   UNL     1       6.227   5.965  17.555  0.00  0.00    +0.000 C 
ATOM     18  C   UNL     1       5.680   5.405  18.861  0.00  0.00    +0.000 C 
BRANCH  17  19
ATOM     19  O   UNL     1       6.239   7.384  17.516  0.00  0.00    +0.000 OA
ATOM     20  H   UNL     1       6.065   7.678  16.604  0.00  0.00    +0.000 HD
ENDBRANCH  17  19
BRANCH  18  21
ATOM     21  O   UNL     1       6.672   5.423  19.883  0.00  0.00    +0.000 OA
ATOM     22  H   UNL     1       6.907   4.509  20.128  0.00  0.00    +0.000 HD
ENDBRANCH  18  21
BRANCH  16  23
ATOM     23  C   UNL     1       5.939   5.244  15.149  0.00  0.00    +0.000 C 
BRANCH  23  24
ATOM     24  O   UNL     1       7.325   5.574  15.226  0.00  0.00    +0.000 OA
ATOM     25  H   UNL     1       7.378   6.411  15.727  0.00  0.00    +0.000 HD
ENDBRANCH  23  24
ENDBRANCH  16  23
ENDBRANCH   5  14
TORSDOF 6
ENDMDL
MODEL 7
REMARK VINA RESULT:      -6.5      2.718      4.175
REMARK  Name = 
REMARK  6 active torsions:
REMARK  status: ('A' for Active; 'I' for Inactive)
REMARK    1  A    between atoms: C_5  and  C_6
REMARK    2  A    between atoms: C_8  and  C_9
REMARK    3  A    between atoms: C_9  and  O_10
REMARK    4  A    between atoms: C_11  and  O_12
REMARK    5  A    between atoms: C_13  and  O_14
REMARK    6  A    between atoms: N_15  and  C_16
REMARK                            x       y       z     vdW  Elec       q    Type
REMARK                         _______ _______ _______ _____ _____    ______ ____
ROOT
ATOM      1  O   UNL     1       1.127   7.516  20.720  0.00  0.00    +0.000 OA
ATOM      2  C   UNL     1       1.834   7.437  19.722  0.00  0.00    +0.000 C 
ATOM      3  C   UNL     1       2.156   8.657  18.896  0.00  0.00    +0.000 C 
ATOM      4  S   UNL     1       3.385   8.162  17.682  0.00  0.00    +0.000 S 
ATOM      5  C   UNL     1       3.013   6.378  17.869  0.00  0.00    +0.000 C 
ATOM      6  N   UNL     1       2.369   6.260  19.174  0.00  0.00    +0.000 N 
ENDROOT
BRANCH   6   7
ATOM      7  C   UNL     1       2.085   5.003  19.776  0.00  0.00    +0.000 A 
ATOM      8  C   UNL     1       2.418   4.795  21.124  0.00  0.00    +0.000 A 
ATOM      9  C   UNL     1       2.203   3.558  21.736  0.00  0.00    +0.000 A 
ATOM     10  C   UNL     1       1.613   2.526  21.016  0.00  0.00    +0.000 A 
ATOM     11  C   UNL     1       1.253   2.735  19.685  0.00  0.00    +0.000 A 
ATOM     12 CL   UNL     1       0.476   1.473  18.809  0.00  0.00    +0.000 Cl
ATOM     13  C   UNL     1       1.501   3.958  19.056  0.00  0.00    +0.000 A 
ENDBRANCH   6   7
BRANCH   5  14
ATOM     14  C   UNL     1       4.281   5.500  17.603  0.00  0.00    +0.000 C 
ATOM     15  O   UNL     1       4.583   5.409  16.179  0.00  0.00    +0.000 OA
ATOM     16  C   UNL     1       5.980   5.747  15.988  0.00  0.00    +0.000 C 
ATOM     17  C   UNL     1       6.651   5.505  17.325  0.00  0.00    +0.000 C 
ATOM     18  C   UNL     1       5.570   5.944  18.303  0.00  0.00    +0.000 C 
BRANCH  17  19
ATOM     19  O   UNL     1       7.872   6.210  17.485  0.00  0.00    +0.000 OA
ATOM     20  H   UNL     1       8.141   6.580  16.625  0.00  0.00    +0.000 HD
ENDBRANCH  17  19
BRANCH  18  21
ATOM     21  O   UNL     1       5.753   5.336  19.578  0.00  0.00    +0.000 OA
ATOM     22  H   UNL     1       5.153   5.748  20.226  0.00  0.00    +0.000 HD
ENDBRANCH  18  21
BRANCH  16  23
ATOM     23  C   UNL     1       6.569   4.882  14.875  0.00  0.00    +0.000 C 
BRANCH  23  24
ATOM     24  O   UNL     1       7.830   5.408  14.462  0.00  0.00    +0.000 OA
ATOM     25  H   UNL     1       8.065   4.937  13.640  0.00  0.00    +0.000 HD
ENDBRANCH  23  24
ENDBRANCH  16  23
ENDBRANCH   5  14
TORSDOF 6
ENDMDL
MODEL 8
REMARK VINA RESULT:      -6.5      2.758      4.319
REMARK  Name = 
REMARK  6 active torsions:
REMARK  status: ('A' for Active; 'I' for Inactive)
REMARK    1  A    between atoms: C_5  and  C_6
REMARK    2  A    between atoms: C_8  and  C_9
REMARK    3  A    between atoms: C_9  and  O_10
REMARK    4  A    between atoms: C_11  and  O_12
REMARK    5  A    between atoms: C_13  and  O_14
REMARK    6  A    between atoms: N_15  and  C_16
REMARK                            x       y       z     vdW  Elec       q    Type
REMARK                         _______ _______ _______ _____ _____    ______ ____
ROOT
ATOM      1  O   UNL     1       1.411   7.107  20.937  0.00  0.00    +0.000 OA
ATOM      2  C   UNL     1       2.003   7.063  19.865  0.00  0.00    +0.000 C 
ATOM      3  C   UNL     1       2.110   8.282  18.982  0.00  0.00    +0.000 C 
ATOM      4  S   UNL     1       3.233   7.865  17.643  0.00  0.00    +0.000 S 
ATOM      5  C   UNL     1       3.058   6.062  17.908  0.00  0.00    +0.000 C 
ATOM      6  N   UNL     1       2.582   5.924  19.282  0.00  0.00    +0.000 N 
ENDROOT
BRANCH   6   7
ATOM      7  C   UNL     1       2.491   4.666  19.938  0.00  0.00    +0.000 A 
ATOM      8  C   UNL     1       1.254   4.245  20.450  0.00  0.00    +0.000 A 
ATOM      9  C   UNL     1       1.134   3.041  21.147  0.00  0.00    +0.000 A 
ATOM     10  C   UNL     1       2.248   2.223  21.305  0.00  0.00    +0.000 A 
ATOM     11  C   UNL     1       3.474   2.622  20.773  0.00  0.00    +0.000 A 
ATOM     12 CL   UNL     1       4.840   1.585  20.926  0.00  0.00    +0.000 Cl
ATOM     13  C   UNL     1       3.607   3.843  20.109  0.00  0.00    +0.000 A 
ENDBRANCH   6   7
BRANCH   5  14
ATOM     14  C   UNL     1       4.365   5.298  17.514  0.00  0.00    +0.000 C 
ATOM     15  O   UNL     1       4.350   4.894  16.112  0.00  0.00    +0.000 OA
ATOM     16  C   UNL     1       5.588   5.333  15.498  0.00  0.00    +0.000 C 
ATOM     17  C   UNL     1       6.574   5.507  16.635  0.00  0.00    +0.000 C 
ATOM     18  C   UNL     1       5.683   6.046  17.745  0.00  0.00    +0.000 C 
BRANCH  17  19
ATOM     19  O   UNL     1       7.660   6.366  16.321  0.00  0.00    +0.000 OA
ATOM     20  H   UNL     1       7.779   7.005  17.046  0.00  0.00    +0.000 HD
ENDBRANCH  17  19
BRANCH  18  21
ATOM     21  O   UNL     1       6.251   5.796  19.027  0.00  0.00    +0.000 OA
ATOM     22  H   UNL     1       7.177   6.100  19.039  0.00  0.00    +0.000 HD
ENDBRANCH  18  21
BRANCH  16  23
ATOM     23  C   UNL     1       6.051   4.295  14.478  0.00  0.00    +0.000 C 
BRANCH  23  24
ATOM     24  O   UNL     1       7.105   4.830  13.679  0.00  0.00    +0.000 OA
ATOM     25  H   UNL     1       7.224   5.754  13.970  0.00  0.00    +0.000 HD
ENDBRANCH  23  24
ENDBRANCH  16  23
ENDBRANCH   5  14
TORSDOF 6
ENDMDL
MODEL 9
REMARK VINA RESULT:      -6.5      1.820      2.378
REMARK  Name = 
REMARK  6 active torsions:
REMARK  status: ('A' for Active; 'I' for Inactive)
REMARK    1  A    between atoms: C_5  and  C_6
REMARK    2  A    between atoms: C_8  and  C_9
REMARK    3  A    between atoms: C_9  and  O_10
REMARK    4  A    between atoms: C_11  and  O_12
REMARK    5  A    between atoms: C_13  and  O_14
REMARK    6  A    between atoms: N_15  and  C_16
REMARK                            x       y       z     vdW  Elec       q    Type
REMARK                         _______ _______ _______ _____ _____    ______ ____
ROOT
ATOM      1  O   UNL     1       0.682   4.537  17.483  0.00  0.00    +0.000 OA
ATOM      2  C   UNL     1       1.854   4.321  17.766  0.00  0.00    +0.000 C 
ATOM      3  C   UNL     1       2.535   3.042  17.345  0.00  0.00    +0.000 C 
ATOM      4  S   UNL     1       4.278   3.216  17.745  0.00  0.00    +0.000 S 
ATOM      5  C   UNL     1       3.985   4.589  18.921  0.00  0.00    +0.000 C 
ATOM      6  N   UNL     1       2.687   5.142  18.543  0.00  0.00    +0.000 N 
ENDROOT
BRANCH   6   7
ATOM      7  C   UNL     1       2.176   6.346  19.101  0.00  0.00    +0.000 A 
ATOM      8  C   UNL     1       1.694   6.343  20.420  0.00  0.00    +0.000 A 
ATOM      9  C   UNL     1       1.136   7.491  20.985  0.00  0.00    +0.000 A 
ATOM     10  C   UNL     1       1.091   8.670  20.249  0.00  0.00    +0.000 A 
ATOM     11  C   UNL     1       1.595   8.688  18.949  0.00  0.00    +0.000 A 
ATOM     12 CL   UNL     1       1.585  10.160  18.056  0.00  0.00    +0.000 Cl
ATOM     13  C   UNL     1       2.119   7.532  18.365  0.00  0.00    +0.000 A 
ENDBRANCH   6   7
BRANCH   5  14
ATOM     14  C   UNL     1       5.204   5.569  18.969  0.00  0.00    +0.000 C 
ATOM     15  O   UNL     1       6.352   4.966  19.638  0.00  0.00    +0.000 OA
ATOM     16  C   UNL     1       7.512   5.122  18.781  0.00  0.00    +0.000 C 
ATOM     17  C   UNL     1       7.193   6.286  17.864  0.00  0.00    +0.000 C 
ATOM     18  C   UNL     1       5.703   6.095  17.619  0.00  0.00    +0.000 C 
BRANCH  17  19
ATOM     19  O   UNL     1       7.960   6.295  16.669  0.00  0.00    +0.000 OA
ATOM     20  H   UNL     1       7.525   5.729  16.007  0.00  0.00    +0.000 HD
ENDBRANCH  17  19
BRANCH  18  21
ATOM     21  O   UNL     1       5.085   7.320  17.233  0.00  0.00    +0.000 OA
ATOM     22  H   UNL     1       5.112   7.408  16.262  0.00  0.00    +0.000 HD
ENDBRANCH  18  21
BRANCH  16  23
ATOM     23  C   UNL     1       8.751   5.377  19.636  0.00  0.00    +0.000 C 
BRANCH  23  24
ATOM     24  O   UNL     1       8.443   5.174  21.015  0.00  0.00    +0.000 OA
ATOM     25  H   UNL     1       9.050   5.752  21.517  0.00  0.00    +0.000 HD
ENDBRANCH  23  24
ENDBRANCH  16  23
ENDBRANCH   5  14
TORSDOF 6
ENDMDL
