MODEL 1
REMARK VINA RESULT:      -5.3      0.000      0.000
REMARK  Name = 
REMARK  17 active torsions:
REMARK  status: ('A' for Active; 'I' for Inactive)
REMARK    1  A    between atoms: C_1  and  C_2
REMARK    2  A    between atoms: C_2  and  N_3
REMARK    3  A    between atoms: N_3  and  C_4
REMARK    4  A    between atoms: N_3  and  S_6
REMARK    5  A    between atoms: C_4  and  C_5
REMARK    6  A    between atoms: S_6  and  C_9
REMARK    7  A    between atoms: C_9  and  C_10
REMARK    8  A    between atoms: C_10  and  P_11
REMARK    9  A    between atoms: P_11  and  O_13
REMARK   10  A    between atoms: P_11  and  C_14
REMARK   11  A    between atoms: C_14  and  C_15
REMARK   12  A    between atoms: C_15  and  S_16
REMARK   13  A    between atoms: S_16  and  N_19
REMARK   14  A    between atoms: N_19  and  C_20
REMARK   15  A    between atoms: N_19  and  C_22
REMARK   16  A    between atoms: C_20  and  C_21
REMARK   17  A    between atoms: C_22  and  C_23
REMARK                            x       y       z     vdW  Elec       q    Type
REMARK                         _______ _______ _______ _____ _____    ______ ____
ROOT
ATOM      1  P   UNL     1       3.397   5.804  18.486  0.00  0.00    +0.000 P 
ATOM      2  O   UNL     1       3.026   7.284  18.315  0.00  0.00    +0.000 OA
ENDROOT
BRANCH   1   3
ATOM      3  O   UNL     1       4.531   5.826  19.686  0.00  0.00    +0.000 OA
ATOM      4  H   UNL     1       4.986   4.955  19.722  0.00  0.00    +0.000 HD
ENDBRANCH   1   3
BRANCH   1   5
ATOM      5  C   UNL     1       2.075   5.627  19.739  0.00  0.00    +0.000 C 
BRANCH   5   6
ATOM      6  C   UNL     1       2.431   4.773  20.948  0.00  0.00    +0.000 C 
BRANCH   6   7
ATOM      7  S   UNL     1       1.633   3.185  20.865  0.00  0.00    +0.000 S 
ATOM      8  O   UNL     1       0.392   3.358  20.136  0.00  0.00    +0.000 OA
ATOM      9  O   UNL     1       1.607   2.634  22.205  0.00  0.00    +0.000 OA
BRANCH   7  10
ATOM     10  N   UNL     1       2.689   2.248  19.903  0.00  0.00    +0.000 NA
BRANCH  10  12
ATOM     11  C   UNL     1       3.469   1.921  17.528  0.00  0.00    +0.000 C 
ATOM     12  C   UNL     1       2.286   2.094  18.471  0.00  0.00    +0.000 C 
ENDBRANCH  10  12
BRANCH  10  13
ATOM     13  C   UNL     1       4.146   2.527  20.120  0.00  0.00    +0.000 C 
ATOM     14  C   UNL     1       4.860   1.438  20.901  0.00  0.00    +0.000 C 
ENDBRANCH  10  13
ENDBRANCH   7  10
ENDBRANCH   6   7
ENDBRANCH   5   6
ENDBRANCH   1   5
BRANCH   1  15
ATOM     15  C   UNL     1       4.719   5.979  17.232  0.00  0.00    +0.000 C 
BRANCH  15  16
ATOM     16  C   UNL     1       5.592   4.752  17.169  0.00  0.00    +0.000 C 
BRANCH  16  17
ATOM     17  S   UNL     1       7.200   5.046  16.456  0.00  0.00    +0.000 S 
ATOM     18  O   UNL     1       7.375   6.484  16.425  0.00  0.00    +0.000 OA
ATOM     19  O   UNL     1       8.160   4.204  17.139  0.00  0.00    +0.000 OA
BRANCH  17  20
ATOM     20  N   UNL     1       7.114   4.512  14.822  0.00  0.00    +0.000 NA
BRANCH  20  21
ATOM     21  C   UNL     1       5.978   3.589  14.509  0.00  0.00    +0.000 C 
ATOM     22  C   UNL     1       5.586   3.563  13.035  0.00  0.00    +0.000 C 
ENDBRANCH  20  21
BRANCH  20  23
ATOM     23  C   UNL     1       7.253   5.663  13.851  0.00  0.00    +0.000 C 
ATOM     24  C   UNL     1       8.487   5.577  12.961  0.00  0.00    +0.000 C 
ENDBRANCH  20  23
ENDBRANCH  17  20
ENDBRANCH  16  17
ENDBRANCH  15  16
ENDBRANCH   1  15
TORSDOF 13
ENDMDL
MODEL 2
REMARK VINA RESULT:      -5.3      1.457      6.340
REMARK  Name = 
REMARK  17 active torsions:
REMARK  status: ('A' for Active; 'I' for Inactive)
REMARK    1  A    between atoms: C_1  and  C_2
REMARK    2  A    between atoms: C_2  and  N_3
REMARK    3  A    between atoms: N_3  and  C_4
REMARK    4  A    between atoms: N_3  and  S_6
REMARK    5  A    between atoms: C_4  and  C_5
REMARK    6  A    between atoms: S_6  and  C_9
REMARK    7  A    between atoms: C_9  and  C_10
REMARK    8  A    between atoms: C_10  and  P_11
REMARK    9  A    between atoms: P_11  and  O_13
REMARK   10  A    between atoms: P_11  and  C_14
REMARK   11  A    between atoms: C_14  and  C_15
REMARK   12  A    between atoms: C_15  and  S_16
REMARK   13  A    between atoms: S_16  and  N_19
REMARK   14  A    between atoms: N_19  and  C_20
REMARK   15  A    between atoms: N_19  and  C_22
REMARK   16  A    between atoms: C_20  and  C_21
REMARK   17  A    between atoms: C_22  and  C_23
REMARK                            x       y       z     vdW  Elec       q    Type
REMARK                         _______ _______ _______ _____ _____    ______ ____
ROOT
ATOM      1  P   UNL     1       2.681   6.609  19.101  0.00  0.00    +0.000 P 
ATOM      2  O   UNL     1       2.108   5.566  18.130  0.00  0.00    +0.000 OA
ENDROOT
BRANCH   1   3
ATOM      3  O   UNL     1       4.032   5.876  19.702  0.00  0.00    +0.000 OA
ATOM      4  H   UNL     1       3.768   5.158  20.319  0.00  0.00    +0.000 HD
ENDBRANCH   1   3
BRANCH   1   5
ATOM      5  C   UNL     1       3.673   7.319  17.737  0.00  0.00    +0.000 C 
BRANCH   5   6
ATOM      6  C   UNL     1       5.073   6.742  17.578  0.00  0.00    +0.000 C 
BRANCH   6   7
ATOM      7  S   UNL     1       5.258   5.938  16.002  0.00  0.00    +0.000 S 
ATOM      8  O   UNL     1       5.048   6.940  14.975  0.00  0.00    +0.000 OA
ATOM      9  O   UNL     1       4.440   4.743  16.017  0.00  0.00    +0.000 OA
BRANCH   7  10
ATOM     10  N   UNL     1       6.904   5.480  15.969  0.00  0.00    +0.000 NA
BRANCH  10  12
ATOM     11  C   UNL     1       7.794   5.220  18.313  0.00  0.00    +0.000 C 
ATOM     12  C   UNL     1       7.327   4.527  17.040  0.00  0.00    +0.000 C 
ENDBRANCH  10  12
BRANCH  10  13
ATOM     13  C   UNL     1       7.439   5.170  14.603  0.00  0.00    +0.000 C 
ATOM     14  C   UNL     1       6.645   4.101  13.872  0.00  0.00    +0.000 C 
ENDBRANCH  10  13
ENDBRANCH   7  10
ENDBRANCH   6   7
ENDBRANCH   5   6
ENDBRANCH   1   5
BRANCH   1  15
ATOM     15  C   UNL     1       1.688   5.901  20.465  0.00  0.00    +0.000 C 
BRANCH  15  16
ATOM     16  C   UNL     1       2.394   4.744  21.124  0.00  0.00    +0.000 C 
BRANCH  16  17
ATOM     17  S   UNL     1       1.556   3.182  20.929  0.00  0.00    +0.000 S 
ATOM     18  O   UNL     1       1.563   2.550  22.232  0.00  0.00    +0.000 OA
ATOM     19  O   UNL     1       0.308   3.420  20.235  0.00  0.00    +0.000 OA
BRANCH  17  20
ATOM     20  N   UNL     1       2.546   2.224  19.898  0.00  0.00    +0.000 NA
BRANCH  20  21
ATOM     21  C   UNL     1       2.051   2.074  18.493  0.00  0.00    +0.000 C 
ATOM     22  C   UNL     1       3.159   2.010  17.446  0.00  0.00    +0.000 C 
ENDBRANCH  20  21
BRANCH  20  23
ATOM     23  C   UNL     1       4.002   2.621  19.995  0.00  0.00    +0.000 C 
ATOM     24  C   UNL     1       4.871   1.615  20.741  0.00  0.00    +0.000 C 
ENDBRANCH  20  23
ENDBRANCH  17  20
ENDBRANCH  16  17
ENDBRANCH  15  16
ENDBRANCH   1  15
TORSDOF 13
ENDMDL
MODEL 3
REMARK VINA RESULT:      -5.3      3.119      6.921
REMARK  Name = 
REMARK  17 active torsions:
REMARK  status: ('A' for Active; 'I' for Inactive)
REMARK    1  A    between atoms: C_1  and  C_2
REMARK    2  A    between atoms: C_2  and  N_3
REMARK    3  A    between atoms: N_3  and  C_4
REMARK    4  A    between atoms: N_3  and  S_6
REMARK    5  A    between atoms: C_4  and  C_5
REMARK    6  A    between atoms: S_6  and  C_9
REMARK    7  A    between atoms: C_9  and  C_10
REMARK    8  A    between atoms: C_10  and  P_11
REMARK    9  A    between atoms: P_11  and  O_13
REMARK   10  A    between atoms: P_11  and  C_14
REMARK   11  A    between atoms: C_14  and  C_15
REMARK   12  A    between atoms: C_15  and  S_16
REMARK   13  A    between atoms: S_16  and  N_19
REMARK   14  A    between atoms: N_19  and  C_20
REMARK   15  A    between atoms: N_19  and  C_22
REMARK   16  A    between atoms: C_20  and  C_21
REMARK   17  A    between atoms: C_22  and  C_23
REMARK                            x       y       z     vdW  Elec       q    Type
REMARK                         _______ _______ _______ _____ _____    ______ ____
ROOT
ATOM      1  P   UNL     1       3.809   4.062  17.561  0.00  0.00    +0.000 P 
ATOM      2  O   UNL     1       2.536   3.425  16.987  0.00  0.00    +0.000 OA
ENDROOT
BRANCH   1   3
ATOM      3  O   UNL     1       4.592   2.792  18.269  0.00  0.00    +0.000 OA
ATOM      4  H   UNL     1       5.129   2.322  17.593  0.00  0.00    +0.000 HD
ENDBRANCH   1   3
BRANCH   1   5
ATOM      5  C   UNL     1       4.679   3.720  15.988  0.00  0.00    +0.000 C 
BRANCH   5   6
ATOM      6  C   UNL     1       6.194   3.848  16.037  0.00  0.00    +0.000 C 
BRANCH   6   7
ATOM      7  S   UNL     1       6.715   5.479  15.552  0.00  0.00    +0.000 S 
ATOM      8  O   UNL     1       5.520   6.255  15.284  0.00  0.00    +0.000 OA
ATOM      9  O   UNL     1       7.722   5.332  14.521  0.00  0.00    +0.000 OA
BRANCH   7  10
ATOM     10  N   UNL     1       7.452   6.107  16.960  0.00  0.00    +0.000 NA
BRANCH  10  12
ATOM     11  C   UNL     1       8.071   8.421  17.743  0.00  0.00    +0.000 C 
ATOM     12  C   UNL     1       6.954   7.445  17.403  0.00  0.00    +0.000 C 
ENDBRANCH  10  12
BRANCH  10  13
ATOM     13  C   UNL     1       7.643   5.109  18.063  0.00  0.00    +0.000 C 
ATOM     14  C   UNL     1       6.947   5.497  19.356  0.00  0.00    +0.000 C 
ENDBRANCH  10  13
ENDBRANCH   7  10
ENDBRANCH   6   7
ENDBRANCH   5   6
ENDBRANCH   1   5
BRANCH   1  15
ATOM     15  C   UNL     1       2.940   4.406  19.135  0.00  0.00    +0.000 C 
BRANCH  15  16
ATOM     16  C   UNL     1       3.161   5.824  19.594  0.00  0.00    +0.000 C 
BRANCH  16  17
ATOM     17  S   UNL     1       2.526   7.053  18.468  0.00  0.00    +0.000 S 
ATOM     18  O   UNL     1       3.664   7.551  17.724  0.00  0.00    +0.000 OA
ATOM     19  O   UNL     1       1.386   6.487  17.775  0.00  0.00    +0.000 OA
BRANCH  17  20
ATOM     20  N   UNL     1       1.947   8.351  19.438  0.00  0.00    +0.000 NA
BRANCH  20  21
ATOM     21  C   UNL     1       1.098   9.355  18.724  0.00  0.00    +0.000 C 
ATOM     22  C   UNL     1       1.870  10.559  18.193  0.00  0.00    +0.000 C 
ENDBRANCH  20  21
BRANCH  20  23
ATOM     23  C   UNL     1       1.348   7.853  20.735  0.00  0.00    +0.000 C 
ATOM     24  C   UNL     1       1.182   8.936  21.795  0.00  0.00    +0.000 C 
ENDBRANCH  20  23
ENDBRANCH  17  20
ENDBRANCH  16  17
ENDBRANCH  15  16
ENDBRANCH   1  15
TORSDOF 13
ENDMDL
MODEL 4
REMARK VINA RESULT:      -5.2      3.834      5.523
REMARK  Name = 
REMARK  17 active torsions:
REMARK  status: ('A' for Active; 'I' for Inactive)
REMARK    1  A    between atoms: C_1  and  C_2
REMARK    2  A    between atoms: C_2  and  N_3
REMARK    3  A    between atoms: N_3  and  C_4
REMARK    4  A    between atoms: N_3  and  S_6
REMARK    5  A    between atoms: C_4  and  C_5
REMARK    6  A    between atoms: S_6  and  C_9
REMARK    7  A    between atoms: C_9  and  C_10
REMARK    8  A    between atoms: C_10  and  P_11
REMARK    9  A    between atoms: P_11  and  O_13
REMARK   10  A    between atoms: P_11  and  C_14
REMARK   11  A    between atoms: C_14  and  C_15
REMARK   12  A    between atoms: C_15  and  S_16
REMARK   13  A    between atoms: S_16  and  N_19
REMARK   14  A    between atoms: N_19  and  C_20
REMARK   15  A    between atoms: N_19  and  C_22
REMARK   16  A    between atoms: C_20  and  C_21
REMARK   17  A    between atoms: C_22  and  C_23
REMARK                            x       y       z     vdW  Elec       q    Type
REMARK                         _______ _______ _______ _____ _____    ______ ____
ROOT
ATOM      1  P   UNL     1       2.446   4.893  20.235  0.00  0.00    +0.000 P 
ATOM      2  O   UNL     1       1.598   3.913  21.059  0.00  0.00    +0.000 OA
ENDROOT
BRANCH   1   3
ATOM      3  O   UNL     1       1.751   4.840  18.738  0.00  0.00    +0.000 OA
ATOM      4  H   UNL     1       0.816   5.139  18.801  0.00  0.00    +0.000 HD
ENDBRANCH   1   3
BRANCH   1   5
ATOM      5  C   UNL     1       1.317   6.253  20.710  0.00  0.00    +0.000 C 
BRANCH   5   6
ATOM      6  C   UNL     1       1.853   7.658  20.478  0.00  0.00    +0.000 C 
BRANCH   6   7
ATOM      7  S   UNL     1       0.846   8.871  21.303  0.00  0.00    +0.000 S 
ATOM      8  O   UNL     1       1.634   9.426  22.386  0.00  0.00    +0.000 OA
ATOM      9  O   UNL     1      -0.436   8.261  21.588  0.00  0.00    +0.000 OA
BRANCH   7  10
ATOM     10  N   UNL     1       0.629  10.090  20.126  0.00  0.00    +0.000 NA
BRANCH  10  12
ATOM     11  C   UNL     1       1.986  10.236  18.006  0.00  0.00    +0.000 C 
ATOM     12  C   UNL     1       0.770   9.644  18.706  0.00  0.00    +0.000 C 
ENDBRANCH  10  12
BRANCH  10  13
ATOM     13  C   UNL     1      -0.526  11.010  20.385  0.00  0.00    +0.000 C 
ATOM     14  C   UNL     1      -1.444  11.180  19.186  0.00  0.00    +0.000 C 
ENDBRANCH  10  13
ENDBRANCH   7  10
ENDBRANCH   6   7
ENDBRANCH   5   6
ENDBRANCH   1   5
BRANCH   1  15
ATOM     15  C   UNL     1       3.576   3.534  19.760  0.00  0.00    +0.000 C 
BRANCH  15  16
ATOM     16  C   UNL     1       4.888   4.059  19.237  0.00  0.00    +0.000 C 
BRANCH  16  17
ATOM     17  S   UNL     1       4.799   4.690  17.572  0.00  0.00    +0.000 S 
ATOM     18  O   UNL     1       4.017   3.735  16.814  0.00  0.00    +0.000 OA
ATOM     19  O   UNL     1       4.400   6.081  17.635  0.00  0.00    +0.000 OA
BRANCH  17  20
ATOM     20  N   UNL     1       6.401   4.641  16.946  0.00  0.00    +0.000 NA
BRANCH  20  21
ATOM     21  C   UNL     1       6.551   3.962  15.621  0.00  0.00    +0.000 C 
ATOM     22  C   UNL     1       6.341   4.881  14.422  0.00  0.00    +0.000 C 
ENDBRANCH  20  21
BRANCH  20  23
ATOM     23  C   UNL     1       7.069   5.996  17.018  0.00  0.00    +0.000 C 
ATOM     24  C   UNL     1       7.695   6.307  18.373  0.00  0.00    +0.000 C 
ENDBRANCH  20  23
ENDBRANCH  17  20
ENDBRANCH  16  17
ENDBRANCH  15  16
ENDBRANCH   1  15
TORSDOF 13
ENDMDL
MODEL 5
REMARK VINA RESULT:      -5.2      5.416      8.610
REMARK  Name = 
REMARK  17 active torsions:
REMARK  status: ('A' for Active; 'I' for Inactive)
REMARK    1  A    between atoms: C_1  and  C_2
REMARK    2  A    between atoms: C_2  and  N_3
REMARK    3  A    between atoms: N_3  and  C_4
REMARK    4  A    between atoms: N_3  and  S_6
REMARK    5  A    between atoms: C_4  and  C_5
REMARK    6  A    between atoms: S_6  and  C_9
REMARK    7  A    between atoms: C_9  and  C_10
REMARK    8  A    between atoms: C_10  and  P_11
REMARK    9  A    between atoms: P_11  and  O_13
REMARK   10  A    between atoms: P_11  and  C_14
REMARK   11  A    between atoms: C_14  and  C_15
REMARK   12  A    between atoms: C_15  and  S_16
REMARK   13  A    between atoms: S_16  and  N_19
REMARK   14  A    between atoms: N_19  and  C_20
REMARK   15  A    between atoms: N_19  and  C_22
REMARK   16  A    between atoms: C_20  and  C_21
REMARK   17  A    between atoms: C_22  and  C_23
REMARK                            x       y       z     vdW  Elec       q    Type
REMARK                         _______ _______ _______ _____ _____    ______ ____
ROOT
ATOM      1  P   UNL     1       7.413   7.419  17.870  0.00  0.00    +0.000 P 
ATOM      2  O   UNL     1       8.136   7.221  16.530  0.00  0.00    +0.000 OA
ENDROOT
BRANCH   1   3
ATOM      3  O   UNL     1       8.622   7.271  18.986  0.00  0.00    +0.000 OA
ATOM      4  H   UNL     1       8.341   7.691  19.829  0.00  0.00    +0.000 HD
ENDBRANCH   1   3
BRANCH   1   5
ATOM      5  C   UNL     1       7.732   9.218  17.765  0.00  0.00    +0.000 C 
BRANCH   5   6
ATOM      6  C   UNL     1       8.853   9.737  18.655  0.00  0.00    +0.000 C 
BRANCH   6   7
ATOM      7  S   UNL     1       9.327  11.387  18.190  0.00  0.00    +0.000 S 
ATOM      8  O   UNL     1       8.230  11.958  17.434  0.00  0.00    +0.000 OA
ATOM      9  O   UNL     1      10.647  11.316  17.598  0.00  0.00    +0.000 OA
BRANCH   7  10
ATOM     10  N   UNL     1       9.433  12.215  19.680  0.00  0.00    +0.000 NA
BRANCH  10  12
ATOM     11  C   UNL     1       9.786  14.695  19.399  0.00  0.00    +0.000 C 
ATOM     12  C   UNL     1       8.806  13.572  19.707  0.00  0.00    +0.000 C 
ENDBRANCH  10  12
BRANCH  10  13
ATOM     13  C   UNL     1       9.155  11.369  20.887  0.00  0.00    +0.000 C 
ATOM     14  C   UNL     1       9.103  12.162  22.182  0.00  0.00    +0.000 C 
ENDBRANCH  10  13
ENDBRANCH   7  10
ENDBRANCH   6   7
ENDBRANCH   5   6
ENDBRANCH   1   5
BRANCH   1  15
ATOM     15  C   UNL     1       7.093   5.620  17.977  0.00  0.00    +0.000 C 
BRANCH  15  16
ATOM     16  C   UNL     1       6.070   5.299  19.035  0.00  0.00    +0.000 C 
BRANCH  16  17
ATOM     17  S   UNL     1       4.854   4.099  18.522  0.00  0.00    +0.000 S 
ATOM     18  O   UNL     1       5.176   3.752  17.153  0.00  0.00    +0.000 OA
ATOM     19  O   UNL     1       4.772   3.073  19.540  0.00  0.00    +0.000 OA
BRANCH  17  20
ATOM     20  N   UNL     1       3.341   4.920  18.493  0.00  0.00    +0.000 NA
BRANCH  20  21
ATOM     21  C   UNL     1       3.392   6.343  18.032  0.00  0.00    +0.000 C 
ATOM     22  C   UNL     1       2.465   7.280  18.800  0.00  0.00    +0.000 C 
ENDBRANCH  20  21
BRANCH  20  23
ATOM     23  C   UNL     1       2.272   4.094  17.812  0.00  0.00    +0.000 C 
ATOM     24  C   UNL     1       1.260   3.478  18.772  0.00  0.00    +0.000 C 
ENDBRANCH  20  23
ENDBRANCH  17  20
ENDBRANCH  16  17
ENDBRANCH  15  16
ENDBRANCH   1  15
TORSDOF 13
ENDMDL
MODEL 6
REMARK VINA RESULT:      -5.1      2.019      2.927
REMARK  Name = 
REMARK  17 active torsions:
REMARK  status: ('A' for Active; 'I' for Inactive)
REMARK    1  A    between atoms: C_1  and  C_2
REMARK    2  A    between atoms: C_2  and  N_3
REMARK    3  A    between atoms: N_3  and  C_4
REMARK    4  A    between atoms: N_3  and  S_6
REMARK    5  A    between atoms: C_4  and  C_5
REMARK    6  A    between atoms: S_6  and  C_9
REMARK    7  A    between atoms: C_9  and  C_10
REMARK    8  A    between atoms: C_10  and  P_11
REMARK    9  A    between atoms: P_11  and  O_13
REMARK   10  A    between atoms: P_11  and  C_14
REMARK   11  A    between atoms: C_14  and  C_15
REMARK   12  A    between atoms: C_15  and  S_16
REMARK   13  A    between atoms: S_16  and  N_19
REMARK   14  A    between atoms: N_19  and  C_20
REMARK   15  A    between atoms: N_19  and  C_22
REMARK   16  A    between atoms: C_20  and  C_21
REMARK   17  A    between atoms: C_22  and  C_23
REMARK                            x       y       z     vdW  Elec       q    Type
REMARK                         _______ _______ _______ _____ _____    ______ ____
ROOT
ATOM      1  P   UNL     1       6.071   5.067  18.552  0.00  0.00    +0.000 P 
ATOM      2  O   UNL     1       6.957   5.542  19.712  0.00  0.00    +0.000 OA
ENDROOT
BRANCH   1   3
ATOM      3  O   UNL     1       5.801   3.475  18.900  0.00  0.00    +0.000 OA
ATOM      4  H   UNL     1       6.459   2.921  18.426  0.00  0.00    +0.000 HD
ENDBRANCH   1   3
BRANCH   1   5
ATOM      5  C   UNL     1       4.583   5.528  19.512  0.00  0.00    +0.000 C 
BRANCH   5   6
ATOM      6  C   UNL     1       3.284   5.576  18.720  0.00  0.00    +0.000 C 
BRANCH   6   7
ATOM      7  S   UNL     1       2.002   4.653  19.539  0.00  0.00    +0.000 S 
ATOM      8  O   UNL     1       0.959   4.398  18.565  0.00  0.00    +0.000 OA
ATOM      9  O   UNL     1       1.679   5.343  20.771  0.00  0.00    +0.000 OA
BRANCH   7  10
ATOM     10  N   UNL     1       2.750   3.165  19.919  0.00  0.00    +0.000 NA
BRANCH  10  12
ATOM     11  C   UNL     1       1.313   2.382  21.836  0.00  0.00    +0.000 C 
ATOM     12  C   UNL     1       2.705   2.773  21.361  0.00  0.00    +0.000 C 
ENDBRANCH  10  12
BRANCH  10  13
ATOM     13  C   UNL     1       2.455   2.054  18.956  0.00  0.00    +0.000 C 
ATOM     14  C   UNL     1       3.681   1.240  18.579  0.00  0.00    +0.000 C 
ENDBRANCH  10  13
ENDBRANCH   7  10
ENDBRANCH   6   7
ENDBRANCH   5   6
ENDBRANCH   1   5
BRANCH   1  15
ATOM     15  C   UNL     1       7.559   4.605  17.591  0.00  0.00    +0.000 C 
BRANCH  15  16
ATOM     16  C   UNL     1       7.526   5.188  16.201  0.00  0.00    +0.000 C 
BRANCH  16  17
ATOM     17  S   UNL     1       5.922   5.109  15.425  0.00  0.00    +0.000 S 
ATOM     18  O   UNL     1       5.249   3.960  15.993  0.00  0.00    +0.000 OA
ATOM     19  O   UNL     1       5.319   6.424  15.497  0.00  0.00    +0.000 OA
BRANCH  17  20
ATOM     20  N   UNL     1       6.202   4.761  13.763  0.00  0.00    +0.000 NA
BRANCH  20  21
ATOM     21  C   UNL     1       7.639   4.609  13.373  0.00  0.00    +0.000 C 
ATOM     22  C   UNL     1       8.205   5.797  12.602  0.00  0.00    +0.000 C 
ENDBRANCH  20  21
BRANCH  20  23
ATOM     23  C   UNL     1       5.312   3.641  13.271  0.00  0.00    +0.000 C 
ATOM     24  C   UNL     1       5.767   3.022  11.954  0.00  0.00    +0.000 C 
ENDBRANCH  20  23
ENDBRANCH  17  20
ENDBRANCH  16  17
ENDBRANCH  15  16
ENDBRANCH   1  15
TORSDOF 13
ENDMDL
MODEL 7
REMARK VINA RESULT:      -5.1      5.372      8.642
REMARK  Name = 
REMARK  17 active torsions:
REMARK  status: ('A' for Active; 'I' for Inactive)
REMARK    1  A    between atoms: C_1  and  C_2
REMARK    2  A    between atoms: C_2  and  N_3
REMARK    3  A    between atoms: N_3  and  C_4
REMARK    4  A    between atoms: N_3  and  S_6
REMARK    5  A    between atoms: C_4  and  C_5
REMARK    6  A    between atoms: S_6  and  C_9
REMARK    7  A    between atoms: C_9  and  C_10
REMARK    8  A    between atoms: C_10  and  P_11
REMARK    9  A    between atoms: P_11  and  O_13
REMARK   10  A    between atoms: P_11  and  C_14
REMARK   11  A    between atoms: C_14  and  C_15
REMARK   12  A    between atoms: C_15  and  S_16
REMARK   13  A    between atoms: S_16  and  N_19
REMARK   14  A    between atoms: N_19  and  C_20
REMARK   15  A    between atoms: N_19  and  C_22
REMARK   16  A    between atoms: C_20  and  C_21
REMARK   17  A    between atoms: C_22  and  C_23
REMARK                            x       y       z     vdW  Elec       q    Type
REMARK                         _______ _______ _______ _____ _____    ______ ____
ROOT
ATOM      1  P   UNL     1       7.291   7.242  17.971  0.00  0.00    +0.000 P 
ATOM      2  O   UNL     1       7.824   6.754  16.616  0.00  0.00    +0.000 OA
ENDROOT
BRANCH   1   3
ATOM      3  O   UNL     1       8.581   7.055  18.983  0.00  0.00    +0.000 OA
ATOM      4  H   UNL     1       8.419   7.552  19.816  0.00  0.00    +0.000 HD
ENDBRANCH   1   3
BRANCH   1   5
ATOM      5  C   UNL     1       7.852   8.937  17.570  0.00  0.00    +0.000 C 
BRANCH   5   6
ATOM      6  C   UNL     1       8.743   9.595  18.614  0.00  0.00    +0.000 C 
BRANCH   6   7
ATOM      7  S   UNL     1       9.169  11.255  18.138  0.00  0.00    +0.000 S 
ATOM      8  O   UNL     1       8.048  11.794  17.392  0.00  0.00    +0.000 OA
ATOM      9  O   UNL     1      10.483  11.217  17.531  0.00  0.00    +0.000 OA
BRANCH   7  10
ATOM     10  N   UNL     1       9.269  12.092  19.624  0.00  0.00    +0.000 NA
BRANCH  10  12
ATOM     11  C   UNL     1      11.726  12.188  20.182  0.00  0.00    +0.000 C 
ATOM     12  C   UNL     1      10.355  11.636  20.546  0.00  0.00    +0.000 C 
ENDBRANCH  10  12
BRANCH  10  13
ATOM     13  C   UNL     1       9.121  13.580  19.514  0.00  0.00    +0.000 C 
ATOM     14  C   UNL     1       8.578  14.228  20.776  0.00  0.00    +0.000 C 
ENDBRANCH  10  13
ENDBRANCH   7  10
ENDBRANCH   6   7
ENDBRANCH   5   6
ENDBRANCH   1   5
BRANCH   1  15
ATOM     15  C   UNL     1       6.728   5.547  18.372  0.00  0.00    +0.000 C 
BRANCH  15  16
ATOM     16  C   UNL     1       5.322   5.543  18.916  0.00  0.00    +0.000 C 
BRANCH  16  17
ATOM     17  S   UNL     1       4.069   5.816  17.677  0.00  0.00    +0.000 S 
ATOM     18  O   UNL     1       3.631   7.187  17.835  0.00  0.00    +0.000 OA
ATOM     19  O   UNL     1       4.581   5.350  16.404  0.00  0.00    +0.000 OA
BRANCH  17  20
ATOM     20  N   UNL     1       2.739   4.808  18.098  0.00  0.00    +0.000 NA
BRANCH  20  21
ATOM     21  C   UNL     1       2.663   3.507  17.363  0.00  0.00    +0.000 C 
ATOM     22  C   UNL     1       3.587   2.425  17.915  0.00  0.00    +0.000 C 
ENDBRANCH  20  21
BRANCH  20  23
ATOM     23  C   UNL     1       2.595   4.674  19.598  0.00  0.00    +0.000 C 
ATOM     24  C   UNL     1       1.223   4.185  20.047  0.00  0.00    +0.000 C 
ENDBRANCH  20  23
ENDBRANCH  17  20
ENDBRANCH  16  17
ENDBRANCH  15  16
ENDBRANCH   1  15
TORSDOF 13
ENDMDL
MODEL 8
REMARK VINA RESULT:      -5.1      4.100      7.828
REMARK  Name = 
REMARK  17 active torsions:
REMARK  status: ('A' for Active; 'I' for Inactive)
REMARK    1  A    between atoms: C_1  and  C_2
REMARK    2  A    between atoms: C_2  and  N_3
REMARK    3  A    between atoms: N_3  and  C_4
REMARK    4  A    between atoms: N_3  and  S_6
REMARK    5  A    between atoms: C_4  and  C_5
REMARK    6  A    between atoms: S_6  and  C_9
REMARK    7  A    between atoms: C_9  and  C_10
REMARK    8  A    between atoms: C_10  and  P_11
REMARK    9  A    between atoms: P_11  and  O_13
REMARK   10  A    between atoms: P_11  and  C_14
REMARK   11  A    between atoms: C_14  and  C_15
REMARK   12  A    between atoms: C_15  and  S_16
REMARK   13  A    between atoms: S_16  and  N_19
REMARK   14  A    between atoms: N_19  and  C_20
REMARK   15  A    between atoms: N_19  and  C_22
REMARK   16  A    between atoms: C_20  and  C_21
REMARK   17  A    between atoms: C_22  and  C_23
REMARK                            x       y       z     vdW  Elec       q    Type
REMARK                         _______ _______ _______ _____ _____    ______ ____
ROOT
ATOM      1  P   UNL     1       2.614   5.188  19.933  0.00  0.00    +0.000 P 
ATOM      2  O   UNL     1       1.540   4.189  19.479  0.00  0.00    +0.000 OA
ENDROOT
BRANCH   1   3
ATOM      3  O   UNL     1       2.821   4.832  21.532  0.00  0.00    +0.000 OA
ATOM      4  H   UNL     1       3.685   4.379  21.657  0.00  0.00    +0.000 HD
ENDBRANCH   1   3
BRANCH   1   5
ATOM      5  C   UNL     1       3.913   3.975  19.496  0.00  0.00    +0.000 C 
BRANCH   5   6
ATOM      6  C   UNL     1       4.677   4.269  18.213  0.00  0.00    +0.000 C 
BRANCH   6   7
ATOM      7  S   UNL     1       6.245   5.032  18.562  0.00  0.00    +0.000 S 
ATOM      8  O   UNL     1       7.265   4.268  17.871  0.00  0.00    +0.000 OA
ATOM      9  O   UNL     1       6.336   5.217  19.996  0.00  0.00    +0.000 OA
BRANCH   7  10
ATOM     10  N   UNL     1       6.130   6.563  17.814  0.00  0.00    +0.000 NA
BRANCH  10  12
ATOM     11  C   UNL     1       7.921   8.336  17.781  0.00  0.00    +0.000 C 
ATOM     12  C   UNL     1       7.381   7.055  17.160  0.00  0.00    +0.000 C 
ENDBRANCH  10  12
BRANCH  10  13
ATOM     13  C   UNL     1       4.878   6.776  17.016  0.00  0.00    +0.000 C 
ATOM     14  C   UNL     1       5.096   6.694  15.515  0.00  0.00    +0.000 C 
ENDBRANCH  10  13
ENDBRANCH   7  10
ENDBRANCH   6   7
ENDBRANCH   5   6
ENDBRANCH   1   5
BRANCH   1  15
ATOM     15  C   UNL     1       1.316   6.402  20.370  0.00  0.00    +0.000 C 
BRANCH  15  16
ATOM     16  C   UNL     1       1.872   7.798  20.470  0.00  0.00    +0.000 C 
BRANCH  16  17
ATOM     17  S   UNL     1       0.877   8.902  21.456  0.00  0.00    +0.000 S 
ATOM     18  O   UNL     1      -0.378   8.219  21.691  0.00  0.00    +0.000 OA
ATOM     19  O   UNL     1       1.681   9.366  22.568  0.00  0.00    +0.000 OA
BRANCH  17  20
ATOM     20  N   UNL     1       0.533  10.266  20.464  0.00  0.00    +0.000 NA
BRANCH  20  21
ATOM     21  C   UNL     1      -0.603  10.090  19.505  0.00  0.00    +0.000 C 
ATOM     22  C   UNL     1      -0.799  11.264  18.551  0.00  0.00    +0.000 C 
ENDBRANCH  20  21
BRANCH  20  23
ATOM     23  C   UNL     1       0.457  11.540  21.275  0.00  0.00    +0.000 C 
ATOM     24  C   UNL     1      -0.772  11.631  22.172  0.00  0.00    +0.000 C 
ENDBRANCH  20  23
ENDBRANCH  17  20
ENDBRANCH  16  17
ENDBRANCH  15  16
ENDBRANCH   1  15
TORSDOF 13
ENDMDL
MODEL 9
REMARK VINA RESULT:      -5.0      5.250      8.921
REMARK  Name = 
REMARK  17 active torsions:
REMARK  status: ('A' for Active; 'I' for Inactive)
REMARK    1  A    between atoms: C_1  and  C_2
REMARK    2  A    between atoms: C_2  and  N_3
REMARK    3  A    between atoms: N_3  and  C_4
REMARK    4  A    between atoms: N_3  and  S_6
REMARK    5  A    between atoms: C_4  and  C_5
REMARK    6  A    between atoms: S_6  and  C_9
REMARK    7  A    between atoms: C_9  and  C_10
REMARK    8  A    between atoms: C_10  and  P_11
REMARK    9  A    between atoms: P_11  and  O_13
REMARK   10  A    between atoms: P_11  and  C_14
REMARK   11  A    between atoms: C_14  and  C_15
REMARK   12  A    between atoms: C_15  and  S_16
REMARK   13  A    between atoms: S_16  and  N_19
REMARK   14  A    between atoms: N_19  and  C_20
REMARK   15  A    between atoms: N_19  and  C_22
REMARK   16  A    between atoms: C_20  and  C_21
REMARK   17  A    between atoms: C_22  and  C_23
REMARK                            x       y       z     vdW  Elec       q    Type
REMARK                         _______ _______ _______ _____ _____    ______ ____
ROOT
ATOM      1  P   UNL     1       6.968   7.376  17.546  0.00  0.00    +0.000 P 
ATOM      2  O   UNL     1       7.929   6.949  16.427  0.00  0.00    +0.000 OA
ENDROOT
BRANCH   1   3
ATOM      3  O   UNL     1       7.257   6.277  18.744  0.00  0.00    +0.000 OA
ATOM      4  H   UNL     1       7.181   5.368  18.378  0.00  0.00    +0.000 HD
ENDBRANCH   1   3
BRANCH   1   5
ATOM      5  C   UNL     1       8.269   8.465  18.234  0.00  0.00    +0.000 C 
BRANCH   5   6
ATOM      6  C   UNL     1       8.160   9.934  17.853  0.00  0.00    +0.000 C 
BRANCH   6   7
ATOM      7  S   UNL     1       9.452  10.891  18.616  0.00  0.00    +0.000 S 
ATOM      8  O   UNL     1      10.502  11.066  17.632  0.00  0.00    +0.000 OA
ATOM      9  O   UNL     1       9.759  10.278  19.892  0.00  0.00    +0.000 OA
BRANCH   7  10
ATOM     10  N   UNL     1       8.724  12.411  18.893  0.00  0.00    +0.000 NA
BRANCH  10  12
ATOM     11  C   UNL     1      10.568  13.857  19.820  0.00  0.00    +0.000 C 
ATOM     12  C   UNL     1       9.238  13.163  20.078  0.00  0.00    +0.000 C 
ENDBRANCH  10  12
BRANCH  10  13
ATOM     13  C   UNL     1       8.522  13.241  17.660  0.00  0.00    +0.000 C 
ATOM     14  C   UNL     1       7.254  14.077  17.696  0.00  0.00    +0.000 C 
ENDBRANCH  10  13
ENDBRANCH   7  10
ENDBRANCH   6   7
ENDBRANCH   5   6
ENDBRANCH   1   5
BRANCH   1  15
ATOM     15  C   UNL     1       5.666   6.288  16.859  0.00  0.00    +0.000 C 
BRANCH  15  16
ATOM     16  C   UNL     1       4.326   6.556  17.494  0.00  0.00    +0.000 C 
BRANCH  16  17
ATOM     17  S   UNL     1       3.658   5.161  18.383  0.00  0.00    +0.000 S 
ATOM     18  O   UNL     1       3.077   4.284  17.388  0.00  0.00    +0.000 OA
ATOM     19  O   UNL     1       4.676   4.671  19.289  0.00  0.00    +0.000 OA
BRANCH  17  20
ATOM     20  N   UNL     1       2.363   5.768  19.340  0.00  0.00    +0.000 NA
BRANCH  20  21
ATOM     21  C   UNL     1       2.120   5.040  20.624  0.00  0.00    +0.000 C 
ATOM     22  C   UNL     1       1.059   3.948  20.530  0.00  0.00    +0.000 C 
ENDBRANCH  20  21
BRANCH  20  23
ATOM     23  C   UNL     1       2.441   7.271  19.494  0.00  0.00    +0.000 C 
ATOM     24  C   UNL     1       1.562   7.826  20.609  0.00  0.00    +0.000 C 
ENDBRANCH  20  23
ENDBRANCH  17  20
ENDBRANCH  16  17
ENDBRANCH  15  16
ENDBRANCH   1  15
TORSDOF 13
ENDMDL
