MODEL 1
REMARK VINA RESULT:      -6.9      0.000      0.000
REMARK  Name = 
REMARK  6 active torsions:
REMARK  status: ('A' for Active; 'I' for Inactive)
REMARK    1  A    between atoms: C_1  and  C_2
REMARK    2  A    between atoms: C_2  and  O_3
REMARK    3  A    between atoms: O_3  and  C_4
REMARK    4  A    between atoms: C_4  and  C_6
REMARK    5  A    between atoms: C_9  and  C_10
REMARK    6  A    between atoms: N_14  and  C_15
REMARK                            x       y       z     vdW  Elec       q    Type
REMARK                         _______ _______ _______ _____ _____    ______ ____
ROOT
ATOM      1  C   UNL     1       3.693   5.681  17.951  0.00  0.00    +0.000 C 
ATOM      2  C   UNL     1       3.702   6.621  19.141  0.00  0.00    +0.000 C 
ATOM      3  C   UNL     1       2.226   6.710  19.507  0.00  0.00    +0.000 C 
ATOM      4  C   UNL     1       1.562   5.513  18.817  0.00  0.00    +0.000 C 
ATOM      5  N   UNL     1       2.664   4.664  18.287  0.00  0.00    +0.000 NA
ENDROOT
BRANCH   5   6
ATOM      6  C   UNL     1       2.956   3.609  19.286  0.00  0.00    +0.000 C 
ATOM      7  C   UNL     1       4.146   2.654  19.100  0.00  0.00    +0.000 C 
ATOM      8  C   UNL     1       3.626   1.556  18.199  0.00  0.00    +0.000 C 
ATOM      9  N   UNL     1       2.281   1.400  18.650  0.00  0.00    +0.000 N 
ATOM     10  C   UNL     1       1.795   2.572  19.208  0.00  0.00    +0.000 C 
ATOM     11  O   UNL     1       0.629   2.737  19.532  0.00  0.00    +0.000 OA
ATOM     12  H   UNL     1       1.636   0.677  18.355  0.00  0.00    +0.000 HD
ENDBRANCH   5   6
BRANCH   1  16
ATOM     13  C   UNL     1       6.515   4.789  15.762  0.00  0.00    +0.000 A 
ATOM     14  C   UNL     1       7.363   4.849  16.851  0.00  0.00    +0.000 A 
ATOM     15  S   UNL     1       6.481   5.219  18.273  0.00  0.00    +0.000 S 
ATOM     16  C   UNL     1       5.013   5.242  17.363  0.00  0.00    +0.000 A 
ATOM     17  N   UNL     1       5.169   4.968  16.083  0.00  0.00    +0.000 NA
BRANCH  13  18
ATOM     18  C   UNL     1       6.962   4.594  14.378  0.00  0.00    +0.000 C 
ATOM     19  O   UNL     1       7.797   5.308  13.831  0.00  0.00    +0.000 OA
BRANCH  18  20
ATOM     20  O   UNL     1       6.315   3.556  13.779  0.00  0.00    +0.000 OA
BRANCH  20  22
ATOM     21  C   UNL     1       4.946   3.282  11.806  0.00  0.00    +0.000 C 
ATOM     22  C   UNL     1       6.345   3.506  12.348  0.00  0.00    +0.000 C 
ENDBRANCH  20  22
ENDBRANCH  18  20
ENDBRANCH  13  18
ENDBRANCH   1  16
TORSDOF 5
ENDMDL
MODEL 2
REMARK VINA RESULT:      -6.9      1.416      2.935
REMARK  Name = 
REMARK  6 active torsions:
REMARK  status: ('A' for Active; 'I' for Inactive)
REMARK    1  A    between atoms: C_1  and  C_2
REMARK    2  A    between atoms: C_2  and  O_3
REMARK    3  A    between atoms: O_3  and  C_4
REMARK    4  A    between atoms: C_4  and  C_6
REMARK    5  A    between atoms: C_9  and  C_10
REMARK    6  A    between atoms: N_14  and  C_15
REMARK                            x       y       z     vdW  Elec       q    Type
REMARK                         _______ _______ _______ _____ _____    ______ ____
ROOT
ATOM      1  C   UNL     1       4.484   3.459  18.968  0.00  0.00    +0.000 C 
ATOM      2  C   UNL     1       3.734   2.280  18.378  0.00  0.00    +0.000 C 
ATOM      3  C   UNL     1       2.708   1.962  19.459  0.00  0.00    +0.000 C 
ATOM      4  C   UNL     1       2.651   3.212  20.346  0.00  0.00    +0.000 C 
ATOM      5  N   UNL     1       3.438   4.264  19.647  0.00  0.00    +0.000 NA
ENDROOT
BRANCH   5   6
ATOM      6  C   UNL     1       2.498   5.091  18.851  0.00  0.00    +0.000 C 
ATOM      7  C   UNL     1       2.974   5.836  17.594  0.00  0.00    +0.000 C 
ATOM      8  C   UNL     1       3.565   7.130  18.108  0.00  0.00    +0.000 C 
ATOM      9  N   UNL     1       2.694   7.455  19.192  0.00  0.00    +0.000 N 
ATOM     10  C   UNL     1       2.112   6.318  19.731  0.00  0.00    +0.000 C 
ATOM     11  O   UNL     1       1.447   6.318  20.755  0.00  0.00    +0.000 OA
ATOM     12  H   UNL     1       2.705   8.316  19.724  0.00  0.00    +0.000 HD
ENDBRANCH   5   6
BRANCH   1  16
ATOM     13  C   UNL     1       6.560   4.823  16.251  0.00  0.00    +0.000 A 
ATOM     14  C   UNL     1       7.146   5.692  17.151  0.00  0.00    +0.000 A 
ATOM     15  S   UNL     1       6.519   5.432  18.724  0.00  0.00    +0.000 S 
ATOM     16  C   UNL     1       5.528   4.150  18.124  0.00  0.00    +0.000 A 
ATOM     17  N   UNL     1       5.674   3.917  16.835  0.00  0.00    +0.000 NA
BRANCH  13  18
ATOM     18  C   UNL     1       6.798   4.850  14.803  0.00  0.00    +0.000 C 
ATOM     19  O   UNL     1       7.692   5.507  14.279  0.00  0.00    +0.000 OA
BRANCH  18  20
ATOM     20  O   UNL     1       5.892   4.092  14.126  0.00  0.00    +0.000 OA
BRANCH  20  22
ATOM     21  C   UNL     1       5.039   3.272  12.018  0.00  0.00    +0.000 C 
ATOM     22  C   UNL     1       6.273   3.620  12.830  0.00  0.00    +0.000 C 
ENDBRANCH  20  22
ENDBRANCH  18  20
ENDBRANCH  13  18
ENDBRANCH   1  16
TORSDOF 5
ENDMDL
MODEL 3
REMARK VINA RESULT:      -6.4      2.611      4.485
REMARK  Name = 
REMARK  6 active torsions:
REMARK  status: ('A' for Active; 'I' for Inactive)
REMARK    1  A    between atoms: C_1  and  C_2
REMARK    2  A    between atoms: C_2  and  O_3
REMARK    3  A    between atoms: O_3  and  C_4
REMARK    4  A    between atoms: C_4  and  C_6
REMARK    5  A    between atoms: C_9  and  C_10
REMARK    6  A    between atoms: N_14  and  C_15
REMARK                            x       y       z     vdW  Elec       q    Type
REMARK                         _______ _______ _______ _____ _____    ______ ____
ROOT
ATOM      1  C   UNL     1       4.018   3.259  18.472  0.00  0.00    +0.000 C 
ATOM      2  C   UNL     1       3.219   2.279  17.634  0.00  0.00    +0.000 C 
ATOM      3  C   UNL     1       2.295   1.637  18.661  0.00  0.00    +0.000 C 
ATOM      4  C   UNL     1       2.317   2.577  19.873  0.00  0.00    +0.000 C 
ATOM      5  N   UNL     1       3.036   3.807  19.442  0.00  0.00    +0.000 NA
ENDROOT
BRANCH   5   6
ATOM      6  C   UNL     1       2.029   4.802  19.002  0.00  0.00    +0.000 C 
ATOM      7  C   UNL     1       2.337   5.784  17.860  0.00  0.00    +0.000 C 
ATOM      8  C   UNL     1       3.074   6.928  18.519  0.00  0.00    +0.000 C 
ATOM      9  N   UNL     1       2.411   7.037  19.778  0.00  0.00    +0.000 N 
ATOM     10  C   UNL     1       1.860   5.825  20.166  0.00  0.00    +0.000 C 
ATOM     11  O   UNL     1       1.370   5.624  21.266  0.00  0.00    +0.000 OA
ATOM     12  H   UNL     1       2.555   7.767  20.464  0.00  0.00    +0.000 HD
ENDBRANCH   5   6
BRANCH   1  16
ATOM     13  C   UNL     1       6.678   5.642  17.585  0.00  0.00    +0.000 A 
ATOM     14  C   UNL     1       6.557   5.266  16.261  0.00  0.00    +0.000 A 
ATOM     15  S   UNL     1       5.315   4.100  16.085  0.00  0.00    +0.000 S 
ATOM     16  C   UNL     1       4.982   4.190  17.777  0.00  0.00    +0.000 A 
ATOM     17  N   UNL     1       5.737   5.053  18.428  0.00  0.00    +0.000 NA
BRANCH  13  18
ATOM     18  C   UNL     1       7.715   6.548  18.093  0.00  0.00    +0.000 C 
ATOM     19  O   UNL     1       8.277   6.393  19.174  0.00  0.00    +0.000 OA
BRANCH  18  20
ATOM     20  O   UNL     1       7.943   7.586  17.241  0.00  0.00    +0.000 OA
BRANCH  20  22
ATOM     21  C   UNL     1       8.630   9.667  18.260  0.00  0.00    +0.000 C 
ATOM     22  C   UNL     1       7.486   8.880  17.650  0.00  0.00    +0.000 C 
ENDBRANCH  20  22
ENDBRANCH  18  20
ENDBRANCH  13  18
ENDBRANCH   1  16
TORSDOF 5
ENDMDL
MODEL 4
REMARK VINA RESULT:      -6.3      3.641      7.178
REMARK  Name = 
REMARK  6 active torsions:
REMARK  status: ('A' for Active; 'I' for Inactive)
REMARK    1  A    between atoms: C_1  and  C_2
REMARK    2  A    between atoms: C_2  and  O_3
REMARK    3  A    between atoms: O_3  and  C_4
REMARK    4  A    between atoms: C_4  and  C_6
REMARK    5  A    between atoms: C_9  and  C_10
REMARK    6  A    between atoms: N_14  and  C_15
REMARK                            x       y       z     vdW  Elec       q    Type
REMARK                         _______ _______ _______ _____ _____    ______ ____
ROOT
ATOM      1  C   UNL     1       3.588   6.123  18.778  0.00  0.00    +0.000 C 
ATOM      2  C   UNL     1       3.910   5.806  17.330  0.00  0.00    +0.000 C 
ATOM      3  C   UNL     1       4.806   4.579  17.448  0.00  0.00    +0.000 C 
ATOM      4  C   UNL     1       4.572   4.039  18.864  0.00  0.00    +0.000 C 
ATOM      5  N   UNL     1       3.418   4.796  19.421  0.00  0.00    +0.000 NA
ENDROOT
BRANCH   5   6
ATOM      6  C   UNL     1       2.187   4.004  19.183  0.00  0.00    +0.000 C 
ATOM      7  C   UNL     1       0.977   4.124  20.124  0.00  0.00    +0.000 C 
ATOM      8  C   UNL     1       1.277   3.180  21.266  0.00  0.00    +0.000 C 
ATOM      9  N   UNL     1       1.923   2.093  20.605  0.00  0.00    +0.000 N 
ATOM     10  C   UNL     1       2.548   2.510  19.439  0.00  0.00    +0.000 C 
ATOM     11  O   UNL     1       3.288   1.800  18.776  0.00  0.00    +0.000 OA
ATOM     12  H   UNL     1       2.183   1.210  21.027  0.00  0.00    +0.000 HD
ENDBRANCH   5   6
BRANCH   1  16
ATOM     13  C   UNL     1       1.431   8.669  20.331  0.00  0.00    +0.000 A 
ATOM     14  C   UNL     1       1.269   9.268  19.096  0.00  0.00    +0.000 A 
ATOM     15  S   UNL     1       2.106   8.382  17.891  0.00  0.00    +0.000 S 
ATOM     16  C   UNL     1       2.606   7.230  19.077  0.00  0.00    +0.000 A 
ATOM     17  N   UNL     1       2.157   7.480  20.291  0.00  0.00    +0.000 NA
BRANCH  13  18
ATOM     18  C   UNL     1       0.928   9.229  21.591  0.00  0.00    +0.000 C 
ATOM     19  O   UNL     1       1.605   9.307  22.612  0.00  0.00    +0.000 OA
BRANCH  18  20
ATOM     20  O   UNL     1      -0.375   9.611  21.491  0.00  0.00    +0.000 OA
BRANCH  20  22
ATOM     21  C   UNL     1      -1.373  11.112  23.101  0.00  0.00    +0.000 C 
ATOM     22  C   UNL     1      -0.676  10.985  21.760  0.00  0.00    +0.000 C 
ENDBRANCH  20  22
ENDBRANCH  18  20
ENDBRANCH  13  18
ENDBRANCH   1  16
TORSDOF 5
ENDMDL
MODEL 5
REMARK VINA RESULT:      -6.3      3.480      6.949
REMARK  Name = 
REMARK  6 active torsions:
REMARK  status: ('A' for Active; 'I' for Inactive)
REMARK    1  A    between atoms: C_1  and  C_2
REMARK    2  A    between atoms: C_2  and  O_3
REMARK    3  A    between atoms: O_3  and  C_4
REMARK    4  A    between atoms: C_4  and  C_6
REMARK    5  A    between atoms: C_9  and  C_10
REMARK    6  A    between atoms: N_14  and  C_15
REMARK                            x       y       z     vdW  Elec       q    Type
REMARK                         _______ _______ _______ _____ _____    ______ ____
ROOT
ATOM      1  C   UNL     1       3.979   5.723  19.209  0.00  0.00    +0.000 C 
ATOM      2  C   UNL     1       5.086   5.806  18.175  0.00  0.00    +0.000 C 
ATOM      3  C   UNL     1       5.852   4.509  18.401  0.00  0.00    +0.000 C 
ATOM      4  C   UNL     1       4.902   3.609  19.202  0.00  0.00    +0.000 C 
ATOM      5  N   UNL     1       3.580   4.292  19.213  0.00  0.00    +0.000 NA
ENDROOT
BRANCH   5   6
ATOM      6  C   UNL     1       2.766   3.742  18.102  0.00  0.00    +0.000 C 
ATOM      7  C   UNL     1       1.245   3.962  18.054  0.00  0.00    +0.000 C 
ATOM      8  C   UNL     1       0.667   2.869  18.925  0.00  0.00    +0.000 C 
ATOM      9  N   UNL     1       1.525   1.765  18.642  0.00  0.00    +0.000 N 
ATOM     10  C   UNL     1       2.784   2.190  18.248  0.00  0.00    +0.000 C 
ATOM     11  O   UNL     1       3.736   1.441  18.094  0.00  0.00    +0.000 OA
ATOM     12  H   UNL     1       1.392   0.812  18.961  0.00  0.00    +0.000 HD
ENDBRANCH   5   6
BRANCH   1  16
ATOM     13  C   UNL     1       1.397   8.191  20.098  0.00  0.00    +0.000 A 
ATOM     14  C   UNL     1       1.556   8.785  18.861  0.00  0.00    +0.000 A 
ATOM     15  S   UNL     1       2.718   7.931  17.936  0.00  0.00    +0.000 S 
ATOM     16  C   UNL     1       2.916   6.795  19.221  0.00  0.00    +0.000 A 
ATOM     17  N   UNL     1       2.146   7.026  20.266  0.00  0.00    +0.000 NA
BRANCH  13  18
ATOM     18  C   UNL     1       0.552   8.731  21.170  0.00  0.00    +0.000 C 
ATOM     19  O   UNL     1      -0.453   8.163  21.588  0.00  0.00    +0.000 OA
BRANCH  18  20
ATOM     20  O   UNL     1       1.001   9.940  21.608  0.00  0.00    +0.000 OA
BRANCH  20  22
ATOM     21  C   UNL     1      -0.692  11.373  22.565  0.00  0.00    +0.000 C 
ATOM     22  C   UNL     1       0.170  11.077  21.353  0.00  0.00    +0.000 C 
ENDBRANCH  20  22
ENDBRANCH  18  20
ENDBRANCH  13  18
ENDBRANCH   1  16
TORSDOF 5
ENDMDL
MODEL 6
REMARK VINA RESULT:      -6.3      2.656      4.304
REMARK  Name = 
REMARK  6 active torsions:
REMARK  status: ('A' for Active; 'I' for Inactive)
REMARK    1  A    between atoms: C_1  and  C_2
REMARK    2  A    between atoms: C_2  and  O_3
REMARK    3  A    between atoms: O_3  and  C_4
REMARK    4  A    between atoms: C_4  and  C_6
REMARK    5  A    between atoms: C_9  and  C_10
REMARK    6  A    between atoms: N_14  and  C_15
REMARK                            x       y       z     vdW  Elec       q    Type
REMARK                         _______ _______ _______ _____ _____    ______ ____
ROOT
ATOM      1  C   UNL     1       3.411   3.697  19.798  0.00  0.00    +0.000 C 
ATOM      2  C   UNL     1       2.387   2.583  19.897  0.00  0.00    +0.000 C 
ATOM      3  C   UNL     1       1.789   2.802  21.281  0.00  0.00    +0.000 C 
ATOM      4  C   UNL     1       2.177   4.233  21.671  0.00  0.00    +0.000 C 
ATOM      5  N   UNL     1       2.762   4.860  20.454  0.00  0.00    +0.000 NA
ENDROOT
BRANCH   5   6
ATOM      6  C   UNL     1       1.688   5.606  19.756  0.00  0.00    +0.000 C 
ATOM      7  C   UNL     1       1.769   5.878  18.245  0.00  0.00    +0.000 C 
ATOM      8  C   UNL     1       2.618   7.123  18.119  0.00  0.00    +0.000 C 
ATOM      9  N   UNL     1       2.208   7.890  19.251  0.00  0.00    +0.000 N 
ATOM     10  C   UNL     1       1.743   7.076  20.272  0.00  0.00    +0.000 C 
ATOM     11  O   UNL     1       1.474   7.480  21.393  0.00  0.00    +0.000 OA
ATOM     12  H   UNL     1       2.480   8.845  19.452  0.00  0.00    +0.000 HD
ENDBRANCH   5   6
BRANCH   1  16
ATOM     13  C   UNL     1       5.834   4.482  17.140  0.00  0.00    +0.000 A 
ATOM     14  C   UNL     1       5.126   3.673  16.272  0.00  0.00    +0.000 A 
ATOM     15  S   UNL     1       3.745   3.026  17.054  0.00  0.00    +0.000 S 
ATOM     16  C   UNL     1       4.149   3.890  18.494  0.00  0.00    +0.000 A 
ATOM     17  N   UNL     1       5.233   4.632  18.390  0.00  0.00    +0.000 NA
BRANCH  13  18
ATOM     18  C   UNL     1       7.121   5.108  16.818  0.00  0.00    +0.000 C 
ATOM     19  O   UNL     1       8.131   4.470  16.535  0.00  0.00    +0.000 OA
BRANCH  18  20
ATOM     20  O   UNL     1       7.060   6.466  16.909  0.00  0.00    +0.000 OA
BRANCH  20  22
ATOM     21  C   UNL     1       7.993   8.539  17.729  0.00  0.00    +0.000 C 
ATOM     22  C   UNL     1       7.717   7.077  18.024  0.00  0.00    +0.000 C 
ENDBRANCH  20  22
ENDBRANCH  18  20
ENDBRANCH  13  18
ENDBRANCH   1  16
TORSDOF 5
ENDMDL
MODEL 7
REMARK VINA RESULT:      -6.3      1.039      1.269
REMARK  Name = 
REMARK  6 active torsions:
REMARK  status: ('A' for Active; 'I' for Inactive)
REMARK    1  A    between atoms: C_1  and  C_2
REMARK    2  A    between atoms: C_2  and  O_3
REMARK    3  A    between atoms: O_3  and  C_4
REMARK    4  A    between atoms: C_4  and  C_6
REMARK    5  A    between atoms: C_9  and  C_10
REMARK    6  A    between atoms: N_14  and  C_15
REMARK                            x       y       z     vdW  Elec       q    Type
REMARK                         _______ _______ _______ _____ _____    ______ ____
ROOT
ATOM      1  C   UNL     1       3.863   5.804  17.167  0.00  0.00    +0.000 C 
ATOM      2  C   UNL     1       4.201   6.856  18.206  0.00  0.00    +0.000 C 
ATOM      3  C   UNL     1       2.858   7.101  18.882  0.00  0.00    +0.000 C 
ATOM      4  C   UNL     1       1.986   5.898  18.504  0.00  0.00    +0.000 C 
ATOM      5  N   UNL     1       2.885   4.914  17.842  0.00  0.00    +0.000 NA
ENDROOT
BRANCH   5   6
ATOM      6  C   UNL     1       3.343   3.944  18.866  0.00  0.00    +0.000 C 
ATOM      7  C   UNL     1       4.257   2.768  18.486  0.00  0.00    +0.000 C 
ATOM      8  C   UNL     1       3.318   1.691  17.990  0.00  0.00    +0.000 C 
ATOM      9  N   UNL     1       2.193   1.843  18.854  0.00  0.00    +0.000 N 
ATOM     10  C   UNL     1       2.090   3.141  19.328  0.00  0.00    +0.000 C 
ATOM     11  O   UNL     1       1.134   3.558  19.963  0.00  0.00    +0.000 OA
ATOM     12  H   UNL     1       1.391   1.225  18.900  0.00  0.00    +0.000 HD
ENDBRANCH   5   6
BRANCH   1  16
ATOM     13  C   UNL     1       5.997   4.349  14.545  0.00  0.00    +0.000 A 
ATOM     14  C   UNL     1       7.111   4.634  15.310  0.00  0.00    +0.000 A 
ATOM     15  S   UNL     1       6.646   5.350  16.796  0.00  0.00    +0.000 S 
ATOM     16  C   UNL     1       4.983   5.203  16.352  0.00  0.00    +0.000 A 
ATOM     17  N   UNL     1       4.788   4.636  15.178  0.00  0.00    +0.000 NA
BRANCH  13  18
ATOM     18  C   UNL     1       6.050   3.825  13.175  0.00  0.00    +0.000 C 
ATOM     19  O   UNL     1       7.098   3.609  12.575  0.00  0.00    +0.000 OA
BRANCH  18  20
ATOM     20  O   UNL     1       4.804   3.646  12.653  0.00  0.00    +0.000 OA
BRANCH  20  22
ATOM     21  C   UNL     1       3.475   3.259  10.672  0.00  0.00    +0.000 C 
ATOM     22  C   UNL     1       4.701   2.851  11.467  0.00  0.00    +0.000 C 
ENDBRANCH  20  22
ENDBRANCH  18  20
ENDBRANCH  13  18
ENDBRANCH   1  16
TORSDOF 5
ENDMDL
MODEL 8
REMARK VINA RESULT:      -6.0      1.793      3.284
REMARK  Name = 
REMARK  6 active torsions:
REMARK  status: ('A' for Active; 'I' for Inactive)
REMARK    1  A    between atoms: C_1  and  C_2
REMARK    2  A    between atoms: C_2  and  O_3
REMARK    3  A    between atoms: O_3  and  C_4
REMARK    4  A    between atoms: C_4  and  C_6
REMARK    5  A    between atoms: C_9  and  C_10
REMARK    6  A    between atoms: N_14  and  C_15
REMARK                            x       y       z     vdW  Elec       q    Type
REMARK                         _______ _______ _______ _____ _____    ______ ____
ROOT
ATOM      1  C   UNL     1       4.148   3.511  19.304  0.00  0.00    +0.000 C 
ATOM      2  C   UNL     1       3.326   2.321  18.848  0.00  0.00    +0.000 C 
ATOM      3  C   UNL     1       2.347   2.131  20.000  0.00  0.00    +0.000 C 
ATOM      4  C   UNL     1       2.382   3.447  20.786  0.00  0.00    +0.000 C 
ATOM      5  N   UNL     1       3.169   4.409  19.967  0.00  0.00    +0.000 NA
ENDROOT
BRANCH   5   6
ATOM      6  C   UNL     1       2.220   5.208  19.153  0.00  0.00    +0.000 C 
ATOM      7  C   UNL     1       2.640   5.784  17.792  0.00  0.00    +0.000 C 
ATOM      8  C   UNL     1       3.342   7.082  18.118  0.00  0.00    +0.000 C 
ATOM      9  N   UNL     1       2.579   7.576  19.219  0.00  0.00    +0.000 N 
ATOM     10  C   UNL     1       1.975   6.543  19.918  0.00  0.00    +0.000 C 
ATOM     11  O   UNL     1       1.392   6.694  20.981  0.00  0.00    +0.000 OA
ATOM     12  H   UNL     1       2.681   8.486  19.651  0.00  0.00    +0.000 HD
ENDBRANCH   5   6
BRANCH   1  16
ATOM     13  C   UNL     1       6.077   4.663  16.389  0.00  0.00    +0.000 A 
ATOM     14  C   UNL     1       6.844   5.454  17.223  0.00  0.00    +0.000 A 
ATOM     15  S   UNL     1       6.353   5.249  18.852  0.00  0.00    +0.000 S 
ATOM     16  C   UNL     1       5.172   4.090  18.358  0.00  0.00    +0.000 A 
ATOM     17  N   UNL     1       5.160   3.855  17.061  0.00  0.00    +0.000 NA
BRANCH  13  18
ATOM     18  C   UNL     1       6.170   4.678  14.924  0.00  0.00    +0.000 C 
ATOM     19  O   UNL     1       5.306   4.211  14.188  0.00  0.00    +0.000 OA
BRANCH  18  20
ATOM     20  O   UNL     1       7.336   5.237  14.497  0.00  0.00    +0.000 OA
BRANCH  20  22
ATOM     21  C   UNL     1       8.784   6.028  12.730  0.00  0.00    +0.000 C 
ATOM     22  C   UNL     1       7.672   5.070  13.115  0.00  0.00    +0.000 C 
ENDBRANCH  20  22
ENDBRANCH  18  20
ENDBRANCH  13  18
ENDBRANCH   1  16
TORSDOF 5
ENDMDL
MODEL 9
REMARK VINA RESULT:      -6.0      1.146      1.204
REMARK  Name = 
REMARK  6 active torsions:
REMARK  status: ('A' for Active; 'I' for Inactive)
REMARK    1  A    between atoms: C_1  and  C_2
REMARK    2  A    between atoms: C_2  and  O_3
REMARK    3  A    between atoms: O_3  and  C_4
REMARK    4  A    between atoms: C_4  and  C_6
REMARK    5  A    between atoms: C_9  and  C_10
REMARK    6  A    between atoms: N_14  and  C_15
REMARK                            x       y       z     vdW  Elec       q    Type
REMARK                         _______ _______ _______ _____ _____    ______ ____
ROOT
ATOM      1  C   UNL     1       3.817   5.980  17.376  0.00  0.00    +0.000 C 
ATOM      2  C   UNL     1       3.773   7.308  18.108  0.00  0.00    +0.000 C 
ATOM      3  C   UNL     1       2.371   7.313  18.705  0.00  0.00    +0.000 C 
ATOM      4  C   UNL     1       1.901   5.855  18.653  0.00  0.00    +0.000 C 
ATOM      5  N   UNL     1       3.085   5.041  18.262  0.00  0.00    +0.000 NA
ENDROOT
BRANCH   5   6
ATOM      6  C   UNL     1       3.724   4.531  19.499  0.00  0.00    +0.000 C 
ATOM      7  C   UNL     1       4.690   3.337  19.453  0.00  0.00    +0.000 C 
ATOM      8  C   UNL     1       3.800   2.114  19.494  0.00  0.00    +0.000 C 
ATOM      9  N   UNL     1       2.760   2.523  20.381  0.00  0.00    +0.000 N 
ATOM     10  C   UNL     1       2.596   3.899  20.369  0.00  0.00    +0.000 C 
ATOM     11  O   UNL     1       1.678   4.478  20.928  0.00  0.00    +0.000 OA
ATOM     12  H   UNL     1       2.022   1.931  20.744  0.00  0.00    +0.000 HD
ENDBRANCH   5   6
BRANCH   1  16
ATOM     13  C   UNL     1       6.508   4.943  15.088  0.00  0.00    +0.000 A 
ATOM     14  C   UNL     1       7.438   5.248  16.063  0.00  0.00    +0.000 A 
ATOM     15  S   UNL     1       6.653   5.787  17.487  0.00  0.00    +0.000 S 
ATOM     16  C   UNL     1       5.115   5.547  16.737  0.00  0.00    +0.000 A 
ATOM     17  N   UNL     1       5.185   5.074  15.509  0.00  0.00    +0.000 NA
BRANCH  13  18
ATOM     18  C   UNL     1       6.850   4.550  13.716  0.00  0.00    +0.000 C 
ATOM     19  O   UNL     1       7.556   5.228  12.976  0.00  0.00    +0.000 OA
BRANCH  18  20
ATOM     20  O   UNL     1       6.261   3.373  13.365  0.00  0.00    +0.000 OA
BRANCH  20  22
ATOM     21  C   UNL     1       5.961   1.896  11.476  0.00  0.00    +0.000 C 
ATOM     22  C   UNL     1       5.720   3.282  12.042  0.00  0.00    +0.000 C 
ENDBRANCH  20  22
ENDBRANCH  18  20
ENDBRANCH  13  18
ENDBRANCH   1  16
TORSDOF 5
ENDMDL
