MODEL 1
REMARK VINA RESULT:      -5.0      0.000      0.000
REMARK  Name = 
REMARK  8 active torsions:
REMARK  status: ('A' for Active; 'I' for Inactive)
REMARK    1  A    between atoms: C_1  and  C_2
REMARK    2  A    between atoms: C_2  and  O_3
REMARK    3  A    between atoms: O_3  and  C_4
REMARK    4  A    between atoms: C_4  and  C_5
REMARK    5  A    between atoms: C_5  and  N_6
REMARK    6  A    between atoms: N_6  and  C_7
REMARK    7  A    between atoms: N_6  and  C_8
REMARK    8  A    between atoms: C_8  and  C_9
REMARK                            x       y       z     vdW  Elec       q    Type
REMARK                         _______ _______ _______ _____ _____    ______ ____
ROOT
ATOM      1  N   UNL     1       4.882   4.437  18.234  0.00  0.00    +0.000 NA
ATOM      2  C   UNL     1       4.226   5.740  18.370  0.00  0.00    +0.000 C 
ENDROOT
BRANCH   1   3
ATOM      3  C   UNL     1       4.674   3.608  19.444  0.00  0.00    +0.000 C 
BRANCH   3   4
ATOM      4  C   UNL     1       4.000   2.241  19.240  0.00  0.00    +0.000 C 
BRANCH   4   5
ATOM      5  O   UNL     1       2.580   2.361  19.378  0.00  0.00    +0.000 OA
BRANCH   5   7
ATOM      6  C   UNL     1       1.014   3.862  20.406  0.00  0.00    +0.000 C 
ATOM      7  C   UNL     1       2.257   3.020  20.603  0.00  0.00    +0.000 C 
ENDBRANCH   5   7
ENDBRANCH   4   5
ENDBRANCH   3   4
ENDBRANCH   1   3
BRANCH   1   8
ATOM      8  C   UNL     1       6.302   4.626  17.886  0.00  0.00    +0.000 C 
BRANCH   8   9
ATOM      9  C   UNL     1       6.511   4.625  16.406  0.00  0.00    +0.000 A 
ATOM     10  C   UNL     1       5.883   3.812  15.476  0.00  0.00    +0.000 A 
ATOM     11  S   UNL     1       6.510   4.218  13.933  0.00  0.00    +0.000 S 
ATOM     12  N   UNL     1       7.517   5.403  14.550  0.00  0.00    +0.000 NA
ATOM     13  N   UNL     1       7.427   5.521  15.864  0.00  0.00    +0.000 NA
ENDBRANCH   8   9
ENDBRANCH   1   8
TORSDOF 6
ENDMDL
MODEL 2
REMARK VINA RESULT:      -4.8      1.218      1.375
REMARK  Name = 
REMARK  8 active torsions:
REMARK  status: ('A' for Active; 'I' for Inactive)
REMARK    1  A    between atoms: C_1  and  C_2
REMARK    2  A    between atoms: C_2  and  O_3
REMARK    3  A    between atoms: O_3  and  C_4
REMARK    4  A    between atoms: C_4  and  C_5
REMARK    5  A    between atoms: C_5  and  N_6
REMARK    6  A    between atoms: N_6  and  C_7
REMARK    7  A    between atoms: N_6  and  C_8
REMARK    8  A    between atoms: C_8  and  C_9
REMARK                            x       y       z     vdW  Elec       q    Type
REMARK                         _______ _______ _______ _____ _____    ______ ____
ROOT
ATOM      1  N   UNL     1       4.149   5.907  18.045  0.00  0.00    +0.000 NA
ATOM      2  C   UNL     1       3.028   6.771  18.425  0.00  0.00    +0.000 C 
ENDROOT
BRANCH   1   3
ATOM      3  C   UNL     1       4.708   5.210  19.227  0.00  0.00    +0.000 C 
BRANCH   3   4
ATOM      4  C   UNL     1       4.567   3.679  19.259  0.00  0.00    +0.000 C 
BRANCH   4   5
ATOM      5  O   UNL     1       3.364   3.276  18.595  0.00  0.00    +0.000 OA
BRANCH   5   7
ATOM      6  C   UNL     1       1.282   3.608  19.742  0.00  0.00    +0.000 C 
ATOM      7  C   UNL     1       2.460   2.682  19.528  0.00  0.00    +0.000 C 
ENDBRANCH   5   7
ENDBRANCH   4   5
ENDBRANCH   3   4
ENDBRANCH   1   3
BRANCH   1   8
ATOM      8  C   UNL     1       5.150   6.688  17.295  0.00  0.00    +0.000 C 
BRANCH   8   9
ATOM      9  C   UNL     1       5.818   5.860  16.245  0.00  0.00    +0.000 A 
ATOM     10  C   UNL     1       5.242   4.854  15.484  0.00  0.00    +0.000 A 
ATOM     11  S   UNL     1       6.462   4.227  14.456  0.00  0.00    +0.000 S 
ATOM     12  N   UNL     1       7.625   5.281  15.034  0.00  0.00    +0.000 NA
ATOM     13  N   UNL     1       7.164   6.090  15.973  0.00  0.00    +0.000 NA
ENDBRANCH   8   9
ENDBRANCH   1   8
TORSDOF 6
ENDMDL
MODEL 3
REMARK VINA RESULT:      -4.7      1.563      1.804
REMARK  Name = 
REMARK  8 active torsions:
REMARK  status: ('A' for Active; 'I' for Inactive)
REMARK    1  A    between atoms: C_1  and  C_2
REMARK    2  A    between atoms: C_2  and  O_3
REMARK    3  A    between atoms: O_3  and  C_4
REMARK    4  A    between atoms: C_4  and  C_5
REMARK    5  A    between atoms: C_5  and  N_6
REMARK    6  A    between atoms: N_6  and  C_7
REMARK    7  A    between atoms: N_6  and  C_8
REMARK    8  A    between atoms: C_8  and  C_9
REMARK                            x       y       z     vdW  Elec       q    Type
REMARK                         _______ _______ _______ _____ _____    ______ ____
ROOT
ATOM      1  N   UNL     1       3.579   3.091  17.649  0.00  0.00    +0.000 NA
ATOM      2  C   UNL     1       2.282   3.686  17.317  0.00  0.00    +0.000 C 
ENDROOT
BRANCH   1   3
ATOM      3  C   UNL     1       3.427   2.009  18.650  0.00  0.00    +0.000 C 
BRANCH   3   4
ATOM      4  C   UNL     1       2.070   1.912  19.366  0.00  0.00    +0.000 C 
BRANCH   4   5
ATOM      5  O   UNL     1       2.165   2.451  20.688  0.00  0.00    +0.000 OA
BRANCH   5   7
ATOM      6  C   UNL     1       2.078   4.838  20.928  0.00  0.00    +0.000 C 
ATOM      7  C   UNL     1       1.275   3.558  20.836  0.00  0.00    +0.000 C 
ENDBRANCH   5   7
ENDBRANCH   4   5
ENDBRANCH   3   4
ENDBRANCH   1   3
BRANCH   1   8
ATOM      8  C   UNL     1       4.523   4.146  18.061  0.00  0.00    +0.000 C 
BRANCH   8   9
ATOM      9  C   UNL     1       5.582   4.370  17.030  0.00  0.00    +0.000 A 
ATOM     10  C   UNL     1       5.396   4.533  15.666  0.00  0.00    +0.000 A 
ATOM     11  S   UNL     1       6.944   4.733  14.959  0.00  0.00    +0.000 S 
ATOM     12  N   UNL     1       7.735   4.616  16.428  0.00  0.00    +0.000 NA
ATOM     13  N   UNL     1       6.910   4.425  17.442  0.00  0.00    +0.000 NA
ENDBRANCH   8   9
ENDBRANCH   1   8
TORSDOF 6
ENDMDL
MODEL 4
REMARK VINA RESULT:      -4.7      1.075      1.164
REMARK  Name = 
REMARK  8 active torsions:
REMARK  status: ('A' for Active; 'I' for Inactive)
REMARK    1  A    between atoms: C_1  and  C_2
REMARK    2  A    between atoms: C_2  and  O_3
REMARK    3  A    between atoms: O_3  and  C_4
REMARK    4  A    between atoms: C_4  and  C_5
REMARK    5  A    between atoms: C_5  and  N_6
REMARK    6  A    between atoms: N_6  and  C_7
REMARK    7  A    between atoms: N_6  and  C_8
REMARK    8  A    between atoms: C_8  and  C_9
REMARK                            x       y       z     vdW  Elec       q    Type
REMARK                         _______ _______ _______ _____ _____    ______ ____
ROOT
ATOM      1  N   UNL     1       3.888   5.518  17.475  0.00  0.00    +0.000 NA
ATOM      2  C   UNL     1       3.486   6.839  17.965  0.00  0.00    +0.000 C 
ENDROOT
BRANCH   1   3
ATOM      3  C   UNL     1       3.123   4.444  18.151  0.00  0.00    +0.000 C 
BRANCH   3   4
ATOM      4  C   UNL     1       3.940   3.306  18.785  0.00  0.00    +0.000 C 
BRANCH   4   5
ATOM      5  O   UNL     1       3.496   3.060  20.123  0.00  0.00    +0.000 OA
BRANCH   5   7
ATOM      6  C   UNL     1       1.403   2.995  21.297  0.00  0.00    +0.000 C 
ATOM      7  C   UNL     1       2.191   2.479  20.112  0.00  0.00    +0.000 C 
ENDBRANCH   5   7
ENDBRANCH   4   5
ENDBRANCH   3   4
ENDBRANCH   1   3
BRANCH   1   8
ATOM      8  C   UNL     1       5.350   5.364  17.593  0.00  0.00    +0.000 C 
BRANCH   8   9
ATOM      9  C   UNL     1       5.986   5.121  16.262  0.00  0.00    +0.000 A 
ATOM     10  C   UNL     1       5.526   4.282  15.259  0.00  0.00    +0.000 A 
ATOM     11  S   UNL     1       6.648   4.368  13.966  0.00  0.00    +0.000 S 
ATOM     12  N   UNL     1       7.624   5.470  14.760  0.00  0.00    +0.000 NA
ATOM     13  N   UNL     1       7.170   5.787  15.961  0.00  0.00    +0.000 NA
ENDBRANCH   8   9
ENDBRANCH   1   8
TORSDOF 6
ENDMDL
MODEL 5
REMARK VINA RESULT:      -4.7      2.069      2.931
REMARK  Name = 
REMARK  8 active torsions:
REMARK  status: ('A' for Active; 'I' for Inactive)
REMARK    1  A    between atoms: C_1  and  C_2
REMARK    2  A    between atoms: C_2  and  O_3
REMARK    3  A    between atoms: O_3  and  C_4
REMARK    4  A    between atoms: C_4  and  C_5
REMARK    5  A    between atoms: C_5  and  N_6
REMARK    6  A    between atoms: N_6  and  C_7
REMARK    7  A    between atoms: N_6  and  C_8
REMARK    8  A    between atoms: C_8  and  C_9
REMARK                            x       y       z     vdW  Elec       q    Type
REMARK                         _______ _______ _______ _____ _____    ______ ____
ROOT
ATOM      1  N   UNL     1       3.030   5.730  18.618  0.00  0.00    +0.000 NA
ATOM      2  C   UNL     1       2.479   6.931  19.251  0.00  0.00    +0.000 C 
ENDROOT
BRANCH   1   3
ATOM      3  C   UNL     1       1.962   4.744  18.328  0.00  0.00    +0.000 C 
BRANCH   3   4
ATOM      4  C   UNL     1       1.455   3.904  19.511  0.00  0.00    +0.000 C 
BRANCH   4   5
ATOM      5  O   UNL     1       1.566   2.508  19.214  0.00  0.00    +0.000 OA
BRANCH   5   7
ATOM      6  C   UNL     1       3.546   1.528  18.275  0.00  0.00    +0.000 C 
ATOM      7  C   UNL     1       2.286   2.318  17.995  0.00  0.00    +0.000 C 
ENDBRANCH   5   7
ENDBRANCH   4   5
ENDBRANCH   3   4
ENDBRANCH   1   3
BRANCH   1   8
ATOM      8  C   UNL     1       4.125   5.187  19.443  0.00  0.00    +0.000 C 
BRANCH   8   9
ATOM      9  C   UNL     1       5.370   4.986  18.641  0.00  0.00    +0.000 A 
ATOM     10  C   UNL     1       5.479   4.977  17.259  0.00  0.00    +0.000 A 
ATOM     11  S   UNL     1       7.125   4.686  16.877  0.00  0.00    +0.000 S 
ATOM     12  N   UNL     1       7.582   4.609  18.484  0.00  0.00    +0.000 NA
ATOM     13  N   UNL     1       6.569   4.782  19.316  0.00  0.00    +0.000 NA
ENDBRANCH   8   9
ENDBRANCH   1   8
TORSDOF 6
ENDMDL
MODEL 6
REMARK VINA RESULT:      -4.7      1.110      1.344
REMARK  Name = 
REMARK  8 active torsions:
REMARK  status: ('A' for Active; 'I' for Inactive)
REMARK    1  A    between atoms: C_1  and  C_2
REMARK    2  A    between atoms: C_2  and  O_3
REMARK    3  A    between atoms: O_3  and  C_4
REMARK    4  A    between atoms: C_4  and  C_5
REMARK    5  A    between atoms: C_5  and  N_6
REMARK    6  A    between atoms: N_6  and  C_7
REMARK    7  A    between atoms: N_6  and  C_8
REMARK    8  A    between atoms: C_8  and  C_9
REMARK                            x       y       z     vdW  Elec       q    Type
REMARK                         _______ _______ _______ _____ _____    ______ ____
ROOT
ATOM      1  N   UNL     1       4.320   5.668  17.975  0.00  0.00    +0.000 NA
ATOM      2  C   UNL     1       4.110   6.998  17.399  0.00  0.00    +0.000 C 
ENDROOT
BRANCH   1   3
ATOM      3  C   UNL     1       3.758   5.586  19.344  0.00  0.00    +0.000 C 
BRANCH   3   4
ATOM      4  C   UNL     1       2.423   4.840  19.502  0.00  0.00    +0.000 C 
BRANCH   4   5
ATOM      5  O   UNL     1       2.505   3.541  18.907  0.00  0.00    +0.000 OA
BRANCH   5   7
ATOM      6  C   UNL     1       1.382   2.994  20.956  0.00  0.00    +0.000 C 
ATOM      7  C   UNL     1       2.369   2.530  19.906  0.00  0.00    +0.000 C 
ENDBRANCH   5   7
ENDBRANCH   4   5
ENDBRANCH   3   4
ENDBRANCH   1   3
BRANCH   1   8
ATOM      8  C   UNL     1       5.749   5.311  17.904  0.00  0.00    +0.000 C 
BRANCH   8   9
ATOM      9  C   UNL     1       6.176   5.031  16.499  0.00  0.00    +0.000 A 
ATOM     10  C   UNL     1       5.631   4.097  15.632  0.00  0.00    +0.000 A 
ATOM     11  S   UNL     1       6.513   4.183  14.165  0.00  0.00    +0.000 S 
ATOM     12  N   UNL     1       7.509   5.405  14.725  0.00  0.00    +0.000 NA
ATOM     13  N   UNL     1       7.233   5.764  15.967  0.00  0.00    +0.000 NA
ENDBRANCH   8   9
ENDBRANCH   1   8
TORSDOF 6
ENDMDL
MODEL 7
REMARK VINA RESULT:      -4.7      1.438      1.756
REMARK  Name = 
REMARK  8 active torsions:
REMARK  status: ('A' for Active; 'I' for Inactive)
REMARK    1  A    between atoms: C_1  and  C_2
REMARK    2  A    between atoms: C_2  and  O_3
REMARK    3  A    between atoms: O_3  and  C_4
REMARK    4  A    between atoms: C_4  and  C_5
REMARK    5  A    between atoms: C_5  and  N_6
REMARK    6  A    between atoms: N_6  and  C_7
REMARK    7  A    between atoms: N_6  and  C_8
REMARK    8  A    between atoms: C_8  and  C_9
REMARK                            x       y       z     vdW  Elec       q    Type
REMARK                         _______ _______ _______ _____ _____    ______ ____
ROOT
ATOM      1  N   UNL     1       6.582   5.777  17.860  0.00  0.00    +0.000 NA
ATOM      2  C   UNL     1       7.410   6.977  17.998  0.00  0.00    +0.000 C 
ENDROOT
BRANCH   1   3
ATOM      3  C   UNL     1       5.985   5.390  19.160  0.00  0.00    +0.000 C 
BRANCH   3   4
ATOM      4  C   UNL     1       5.019   4.194  19.150  0.00  0.00    +0.000 C 
BRANCH   4   5
ATOM      5  O   UNL     1       3.672   4.640  19.338  0.00  0.00    +0.000 OA
BRANCH   5   7
ATOM      6  C   UNL     1       1.867   4.284  20.880  0.00  0.00    +0.000 C 
ATOM      7  C   UNL     1       2.904   3.629  19.992  0.00  0.00    +0.000 C 
ENDBRANCH   5   7
ENDBRANCH   4   5
ENDBRANCH   3   4
ENDBRANCH   1   3
BRANCH   1   8
ATOM      8  C   UNL     1       7.364   4.699  17.227  0.00  0.00    +0.000 C 
BRANCH   8   9
ATOM      9  C   UNL     1       7.005   4.533  15.786  0.00  0.00    +0.000 A 
ATOM     10  C   UNL     1       6.119   3.612  15.248  0.00  0.00    +0.000 A 
ATOM     11  S   UNL     1       6.103   3.848  13.550  0.00  0.00    +0.000 S 
ATOM     12  N   UNL     1       7.204   5.105  13.619  0.00  0.00    +0.000 NA
ATOM     13  N   UNL     1       7.604   5.371  14.851  0.00  0.00    +0.000 NA
ENDBRANCH   8   9
ENDBRANCH   1   8
TORSDOF 6
ENDMDL
MODEL 8
REMARK VINA RESULT:      -4.7      2.641      3.014
REMARK  Name = 
REMARK  8 active torsions:
REMARK  status: ('A' for Active; 'I' for Inactive)
REMARK    1  A    between atoms: C_1  and  C_2
REMARK    2  A    between atoms: C_2  and  O_3
REMARK    3  A    between atoms: O_3  and  C_4
REMARK    4  A    between atoms: C_4  and  C_5
REMARK    5  A    between atoms: C_5  and  N_6
REMARK    6  A    between atoms: N_6  and  C_7
REMARK    7  A    between atoms: N_6  and  C_8
REMARK    8  A    between atoms: C_8  and  C_9
REMARK                            x       y       z     vdW  Elec       q    Type
REMARK                         _______ _______ _______ _____ _____    ______ ____
ROOT
ATOM      1  N   UNL     1       3.511   3.970  18.017  0.00  0.00    +0.000 NA
ATOM      2  C   UNL     1       2.595   2.986  17.433  0.00  0.00    +0.000 C 
ENDROOT
BRANCH   1   3
ATOM      3  C   UNL     1       2.763   5.086  18.642  0.00  0.00    +0.000 C 
BRANCH   3   4
ATOM      4  C   UNL     1       2.655   5.073  20.176  0.00  0.00    +0.000 C 
BRANCH   4   5
ATOM      5  O   UNL     1       1.306   4.812  20.577  0.00  0.00    +0.000 OA
BRANCH   5   7
ATOM      6  C   UNL     1       2.265   2.845  21.563  0.00  0.00    +0.000 C 
ATOM      7  C   UNL     1       1.109   3.411  20.767  0.00  0.00    +0.000 C 
ENDBRANCH   5   7
ENDBRANCH   4   5
ENDBRANCH   3   4
ENDBRANCH   1   3
BRANCH   1   8
ATOM      8  C   UNL     1       4.486   4.410  17.003  0.00  0.00    +0.000 C 
BRANCH   8   9
ATOM      9  C   UNL     1       5.681   5.052  17.631  0.00  0.00    +0.000 A 
ATOM     10  C   UNL     1       6.267   6.255  17.271  0.00  0.00    +0.000 A 
ATOM     11  S   UNL     1       7.612   6.500  18.305  0.00  0.00    +0.000 S 
ATOM     12  N   UNL     1       7.347   5.077  19.144  0.00  0.00    +0.000 NA
ATOM     13  N   UNL     1       6.301   4.403  18.695  0.00  0.00    +0.000 NA
ENDBRANCH   8   9
ENDBRANCH   1   8
TORSDOF 6
ENDMDL
MODEL 9
REMARK VINA RESULT:      -4.7      1.650      1.821
REMARK  Name = 
REMARK  8 active torsions:
REMARK  status: ('A' for Active; 'I' for Inactive)
REMARK    1  A    between atoms: C_1  and  C_2
REMARK    2  A    between atoms: C_2  and  O_3
REMARK    3  A    between atoms: O_3  and  C_4
REMARK    4  A    between atoms: C_4  and  C_5
REMARK    5  A    between atoms: C_5  and  N_6
REMARK    6  A    between atoms: N_6  and  C_7
REMARK    7  A    between atoms: N_6  and  C_8
REMARK    8  A    between atoms: C_8  and  C_9
REMARK                            x       y       z     vdW  Elec       q    Type
REMARK                         _______ _______ _______ _____ _____    ______ ____
ROOT
ATOM      1  N   UNL     1       4.632   5.297  16.473  0.00  0.00    +0.000 NA
ATOM      2  C   UNL     1       4.870   6.727  16.688  0.00  0.00    +0.000 C 
ENDROOT
BRANCH   1   3
ATOM      3  C   UNL     1       3.707   4.753  17.494  0.00  0.00    +0.000 C 
BRANCH   3   4
ATOM      4  C   UNL     1       3.125   3.355  17.226  0.00  0.00    +0.000 C 
BRANCH   4   5
ATOM      5  O   UNL     1       1.717   3.345  17.481  0.00  0.00    +0.000 OA
BRANCH   5   7
ATOM      6  C   UNL     1       0.925   3.170  19.741  0.00  0.00    +0.000 C 
ATOM      7  C   UNL     1       1.409   2.416  18.521  0.00  0.00    +0.000 C 
ENDBRANCH   5   7
ENDBRANCH   4   5
ENDBRANCH   3   4
ENDBRANCH   1   3
BRANCH   1   8
ATOM      8  C   UNL     1       5.919   4.580  16.403  0.00  0.00    +0.000 C 
BRANCH   8   9
ATOM      9  C   UNL     1       6.511   4.645  15.031  0.00  0.00    +0.000 A 
ATOM     10  C   UNL     1       6.146   3.888  13.929  0.00  0.00    +0.000 A 
ATOM     11  S   UNL     1       7.160   4.354  12.629  0.00  0.00    +0.000 S 
ATOM     12  N   UNL     1       7.975   5.491  13.547  0.00  0.00    +0.000 NA
ATOM     13  N   UNL     1       7.542   5.549  14.795  0.00  0.00    +0.000 NA
ENDBRANCH   8   9
ENDBRANCH   1   8
TORSDOF 6
ENDMDL
