MODEL 1
REMARK VINA RESULT:      -8.4      0.000      0.000
REMARK  Name = 
REMARK  11 active torsions:
REMARK  status: ('A' for Active; 'I' for Inactive)
REMARK    1  A    between atoms: C_1  and  C_2
REMARK    2  A    between atoms: C_4  and  C_5
REMARK    3  A    between atoms: C_5  and  N_6
REMARK    4  A    between atoms: C_9  and  C_10
REMARK    5  A    between atoms: C_9  and  O_11
REMARK    6  A    between atoms: C_15  and  C_16
REMARK    7  A    between atoms: C_16  and  C_18
REMARK    8  A    between atoms: C_18  and  N_19
REMARK    9  A    between atoms: C_22  and  O_23
REMARK   10  A    between atoms: O_23  and  C_24
REMARK   11  A    between atoms: C_24  and  C_25
REMARK                            x       y       z     vdW  Elec       q    Type
REMARK                         _______ _______ _______ _____ _____    ______ ____
ROOT
ATOM      1  C   UNL     1       3.918   5.013  18.105  0.00  0.00    +0.000 C 
ATOM      2  O   UNL     1       3.555   4.300  17.162  0.00  0.00    +0.000 OA
ENDROOT
BRANCH   1   9
ATOM      3  C   UNL     1       2.225   5.355  20.794  0.00  0.00    +0.000 C 
ATOM      4  C   UNL     1       2.301   6.350  19.673  0.00  0.00    +0.000 A 
ATOM      5  C   UNL     1       1.574   7.563  19.858  0.00  0.00    +0.000 A 
ATOM      6  C   UNL     1       1.610   8.594  18.909  0.00  0.00    +0.000 A 
ATOM      7  C   UNL     1       2.394   8.432  17.768  0.00  0.00    +0.000 A 
ATOM      8  C   UNL     1       3.094   7.243  17.559  0.00  0.00    +0.000 A 
ATOM      9  C   UNL     1       3.052   6.189  18.490  0.00  0.00    +0.000 A 
BRANCH   6  10
ATOM     10  C   UNL     1       0.760   9.840  19.063  0.00  0.00    +0.000 C 
BRANCH  10  11
ATOM     11  N   UNL     1       0.868  10.528  20.359  0.00  0.00    +0.000 NA
ATOM     12  C   UNL     1       1.172  11.952  20.229  0.00  0.00    +0.000 C 
ATOM     13  C   UNL     1       0.522  12.636  21.423  0.00  0.00    +0.000 C 
ATOM     14  C   UNL     1      -0.664  11.757  21.808  0.00  0.00    +0.000 C 
ATOM     15  C   UNL     1      -2.010  12.358  21.397  0.00  0.00    +0.000 C 
ATOM     16  C   UNL     1      -0.390  10.407  21.122  0.00  0.00    +0.000 C 
BRANCH  14  17
ATOM     17  O   UNL     1      -0.691  11.589  23.229  0.00  0.00    +0.000 OA
ATOM     18  H   UNL     1      -1.617  11.454  23.494  0.00  0.00    +0.000 HD
ENDBRANCH  14  17
ENDBRANCH  10  11
ENDBRANCH   6  10
ENDBRANCH   1   9
BRANCH   1  19
ATOM     19  C   UNL     1       5.287   4.816  18.733  0.00  0.00    +0.000 C 
BRANCH  19  20
ATOM     20  N   UNL     1       6.259   5.892  18.498  0.00  0.00    +0.000 N 
ATOM     21  N   UNL     1       6.140   6.509  17.265  0.00  0.00    +0.000 NA
ATOM     22  C   UNL     1       6.986   7.446  17.006  0.00  0.00    +0.000 A 
ATOM     23  C   UNL     1       8.070   7.931  17.897  0.00  0.00    +0.000 A 
ATOM     24  C   UNL     1       8.311   7.136  18.947  0.00  0.00    +0.000 A 
ATOM     25  C   UNL     1       7.419   6.007  19.267  0.00  0.00    +0.000 A 
ATOM     26  O   UNL     1       7.729   5.312  20.219  0.00  0.00    +0.000 OA
BRANCH  23  27
ATOM     27  O   UNL     1       8.694   9.090  17.537  0.00  0.00    +0.000 OA
BRANCH  27  28
ATOM     28  C   UNL     1       8.415  10.272  18.284  0.00  0.00    +0.000 C 
BRANCH  28  29
ATOM     29  C   UNL     1       9.696  10.956  18.714  0.00  0.00    +0.000 A 
ATOM     30  C   UNL     1      10.025  11.171  20.061  0.00  0.00    +0.000 A 
ATOM     31  C   UNL     1      11.120  11.970  20.403  0.00  0.00    +0.000 A 
ATOM     32  C   UNL     1      11.907  12.542  19.406  0.00  0.00    +0.000 A 
ATOM     33  C   UNL     1      11.653  12.248  18.070  0.00  0.00    +0.000 A 
ATOM     34  C   UNL     1      10.570  11.437  17.727  0.00  0.00    +0.000 A 
ENDBRANCH  28  29
ENDBRANCH  27  28
ENDBRANCH  23  27
ENDBRANCH  19  20
ENDBRANCH   1  19
TORSDOF 9
ENDMDL
MODEL 2
REMARK VINA RESULT:      -8.3      1.676      2.317
REMARK  Name = 
REMARK  11 active torsions:
REMARK  status: ('A' for Active; 'I' for Inactive)
REMARK    1  A    between atoms: C_1  and  C_2
REMARK    2  A    between atoms: C_4  and  C_5
REMARK    3  A    between atoms: C_5  and  N_6
REMARK    4  A    between atoms: C_9  and  C_10
REMARK    5  A    between atoms: C_9  and  O_11
REMARK    6  A    between atoms: C_15  and  C_16
REMARK    7  A    between atoms: C_16  and  C_18
REMARK    8  A    between atoms: C_18  and  N_19
REMARK    9  A    between atoms: C_22  and  O_23
REMARK   10  A    between atoms: O_23  and  C_24
REMARK   11  A    between atoms: C_24  and  C_25
REMARK                            x       y       z     vdW  Elec       q    Type
REMARK                         _______ _______ _______ _____ _____    ______ ____
ROOT
ATOM      1  C   UNL     1       3.031   3.913  17.854  0.00  0.00    +0.000 C 
ATOM      2  O   UNL     1       2.192   3.350  17.140  0.00  0.00    +0.000 OA
ENDROOT
BRANCH   1   9
ATOM      3  C   UNL     1       2.051   3.824  20.894  0.00  0.00    +0.000 C 
ATOM      4  C   UNL     1       2.150   5.055  20.041  0.00  0.00    +0.000 A 
ATOM      5  C   UNL     1       1.804   6.287  20.671  0.00  0.00    +0.000 A 
ATOM      6  C   UNL     1       1.909   7.512  19.997  0.00  0.00    +0.000 A 
ATOM      7  C   UNL     1       2.382   7.521  18.686  0.00  0.00    +0.000 A 
ATOM      8  C   UNL     1       2.704   6.323  18.046  0.00  0.00    +0.000 A 
ATOM      9  C   UNL     1       2.584   5.083  18.699  0.00  0.00    +0.000 A 
BRANCH   6  10
ATOM     10  C   UNL     1       1.449   8.807  20.636  0.00  0.00    +0.000 C 
BRANCH  10  11
ATOM     11  N   UNL     1       0.289   9.452  20.001  0.00  0.00    +0.000 NA
ATOM     12  C   UNL     1      -0.496  10.262  20.931  0.00  0.00    +0.000 C 
ATOM     13  C   UNL     1      -1.096  11.393  20.107  0.00  0.00    +0.000 C 
ATOM     14  C   UNL     1      -0.136  11.609  18.941  0.00  0.00    +0.000 C 
ATOM     15  C   UNL     1       0.712  12.874  19.094  0.00  0.00    +0.000 C 
ATOM     16  C   UNL     1       0.719  10.330  18.896  0.00  0.00    +0.000 C 
BRANCH  14  17
ATOM     17  O   UNL     1      -0.883  11.744  17.728  0.00  0.00    +0.000 OA
ATOM     18  H   UNL     1      -0.591  11.044  17.120  0.00  0.00    +0.000 HD
ENDBRANCH  14  17
ENDBRANCH  10  11
ENDBRANCH   6  10
ENDBRANCH   1   9
BRANCH   1  19
ATOM     19  C   UNL     1       4.502   3.552  17.740  0.00  0.00    +0.000 C 
BRANCH  19  20
ATOM     20  N   UNL     1       5.443   4.679  17.787  0.00  0.00    +0.000 N 
ATOM     21  N   UNL     1       5.786   5.084  19.065  0.00  0.00    +0.000 NA
ATOM     22  C   UNL     1       6.593   6.084  19.155  0.00  0.00    +0.000 A 
ATOM     23  C   UNL     1       7.194   6.840  18.027  0.00  0.00    +0.000 A 
ATOM     24  C   UNL     1       6.631   6.589  16.839  0.00  0.00    +0.000 A 
ATOM     25  C   UNL     1       5.652   5.499  16.676  0.00  0.00    +0.000 A 
ATOM     26  O   UNL     1       5.162   5.359  15.569  0.00  0.00    +0.000 OA
BRANCH  23  27
ATOM     27  O   UNL     1       8.210   7.700  18.332  0.00  0.00    +0.000 OA
BRANCH  27  28
ATOM     28  C   UNL     1       8.218   8.985  17.716  0.00  0.00    +0.000 C 
BRANCH  28  29
ATOM     29  C   UNL     1       9.039   9.968  18.524  0.00  0.00    +0.000 A 
ATOM     30  C   UNL     1       9.040   9.981  19.928  0.00  0.00    +0.000 A 
ATOM     31  C   UNL     1       9.662  11.020  20.626  0.00  0.00    +0.000 A 
ATOM     32  C   UNL     1      10.305  12.042  19.931  0.00  0.00    +0.000 A 
ATOM     33  C   UNL     1      10.403  11.982  18.544  0.00  0.00    +0.000 A 
ATOM     34  C   UNL     1       9.797  10.936  17.847  0.00  0.00    +0.000 A 
ENDBRANCH  28  29
ENDBRANCH  27  28
ENDBRANCH  23  27
ENDBRANCH  19  20
ENDBRANCH   1  19
TORSDOF 9
ENDMDL
MODEL 3
REMARK VINA RESULT:      -8.1      4.859     11.137
REMARK  Name = 
REMARK  11 active torsions:
REMARK  status: ('A' for Active; 'I' for Inactive)
REMARK    1  A    between atoms: C_1  and  C_2
REMARK    2  A    between atoms: C_4  and  C_5
REMARK    3  A    between atoms: C_5  and  N_6
REMARK    4  A    between atoms: C_9  and  C_10
REMARK    5  A    between atoms: C_9  and  O_11
REMARK    6  A    between atoms: C_15  and  C_16
REMARK    7  A    between atoms: C_16  and  C_18
REMARK    8  A    between atoms: C_18  and  N_19
REMARK    9  A    between atoms: C_22  and  O_23
REMARK   10  A    between atoms: O_23  and  C_24
REMARK   11  A    between atoms: C_24  and  C_25
REMARK                            x       y       z     vdW  Elec       q    Type
REMARK                         _______ _______ _______ _____ _____    ______ ____
ROOT
ATOM      1  C   UNL     1       0.854   9.566  19.280  0.00  0.00    +0.000 C 
ATOM      2  O   UNL     1       0.607   9.916  20.441  0.00  0.00    +0.000 OA
ENDROOT
BRANCH   1   9
ATOM      3  C   UNL     1       1.356   7.068  21.209  0.00  0.00    +0.000 C 
ATOM      4  C   UNL     1       2.063   7.329  19.910  0.00  0.00    +0.000 A 
ATOM      5  C   UNL     1       3.014   6.347  19.502  0.00  0.00    +0.000 A 
ATOM      6  C   UNL     1       3.697   6.448  18.283  0.00  0.00    +0.000 A 
ATOM      7  C   UNL     1       3.423   7.527  17.444  0.00  0.00    +0.000 A 
ATOM      8  C   UNL     1       2.513   8.509  17.836  0.00  0.00    +0.000 A 
ATOM      9  C   UNL     1       1.833   8.436  19.067  0.00  0.00    +0.000 A 
BRANCH   6  10
ATOM     10  C   UNL     1       4.777   5.456  17.898  0.00  0.00    +0.000 C 
BRANCH  10  11
ATOM     11  N   UNL     1       4.365   4.043  17.881  0.00  0.00    +0.000 NA
ATOM     12  C   UNL     1       4.513   3.387  19.180  0.00  0.00    +0.000 C 
ATOM     13  C   UNL     1       3.426   2.324  19.244  0.00  0.00    +0.000 C 
ATOM     14  C   UNL     1       2.301   2.827  18.345  0.00  0.00    +0.000 C 
ATOM     15  C   UNL     1       1.099   3.355  19.133  0.00  0.00    +0.000 C 
ATOM     16  C   UNL     1       2.953   3.915  17.472  0.00  0.00    +0.000 C 
BRANCH  14  17
ATOM     17  O   UNL     1       1.830   1.755  17.524  0.00  0.00    +0.000 OA
ATOM     18  H   UNL     1       1.582   2.128  16.661  0.00  0.00    +0.000 HD
ENDBRANCH  14  17
ENDBRANCH  10  11
ENDBRANCH   6  10
ENDBRANCH   1   9
BRANCH   1  19
ATOM     19  C   UNL     1       0.327  10.373  18.106  0.00  0.00    +0.000 C 
BRANCH  19  20
ATOM     20  N   UNL     1      -1.131  10.542  18.048  0.00  0.00    +0.000 N 
ATOM     21  N   UNL     1      -1.767   9.708  17.146  0.00  0.00    +0.000 NA
ATOM     22  C   UNL     1      -3.045   9.835  17.046  0.00  0.00    +0.000 A 
ATOM     23  C   UNL     1      -3.901  10.782  17.803  0.00  0.00    +0.000 A 
ATOM     24  C   UNL     1      -3.221  11.735  18.453  0.00  0.00    +0.000 A 
ATOM     25  C   UNL     1      -1.752  11.685  18.554  0.00  0.00    +0.000 A 
ATOM     26  O   UNL     1      -1.208  12.610  19.133  0.00  0.00    +0.000 OA
BRANCH  23  27
ATOM     27  O   UNL     1      -5.251  10.588  17.731  0.00  0.00    +0.000 OA
BRANCH  27  28
ATOM     28  C   UNL     1      -6.111  11.680  18.049  0.00  0.00    +0.000 C 
BRANCH  28  29
ATOM     29  C   UNL     1      -6.645  11.555  19.460  0.00  0.00    +0.000 A 
ATOM     30  C   UNL     1      -7.272  10.392  19.933  0.00  0.00    +0.000 A 
ATOM     31  C   UNL     1      -7.914  10.389  21.175  0.00  0.00    +0.000 A 
ATOM     32  C   UNL     1      -7.917  11.537  21.963  0.00  0.00    +0.000 A 
ATOM     33  C   UNL     1      -7.207  12.661  21.552  0.00  0.00    +0.000 A 
ATOM     34  C   UNL     1      -6.551  12.661  20.320  0.00  0.00    +0.000 A 
ENDBRANCH  28  29
ENDBRANCH  27  28
ENDBRANCH  23  27
ENDBRANCH  19  20
ENDBRANCH   1  19
TORSDOF 9
ENDMDL
MODEL 4
REMARK VINA RESULT:      -8.1      4.876     10.745
REMARK  Name = 
REMARK  11 active torsions:
REMARK  status: ('A' for Active; 'I' for Inactive)
REMARK    1  A    between atoms: C_1  and  C_2
REMARK    2  A    between atoms: C_4  and  C_5
REMARK    3  A    between atoms: C_5  and  N_6
REMARK    4  A    between atoms: C_9  and  C_10
REMARK    5  A    between atoms: C_9  and  O_11
REMARK    6  A    between atoms: C_15  and  C_16
REMARK    7  A    between atoms: C_16  and  C_18
REMARK    8  A    between atoms: C_18  and  N_19
REMARK    9  A    between atoms: C_22  and  O_23
REMARK   10  A    between atoms: O_23  and  C_24
REMARK   11  A    between atoms: C_24  and  C_25
REMARK                            x       y       z     vdW  Elec       q    Type
REMARK                         _______ _______ _______ _____ _____    ______ ____
ROOT
ATOM      1  C   UNL     1       0.696   8.747  20.715  0.00  0.00    +0.000 C 
ATOM      2  O   UNL     1      -0.135   8.059  21.320  0.00  0.00    +0.000 OA
ENDROOT
BRANCH   1   9
ATOM      3  C   UNL     1       1.582   9.755  17.815  0.00  0.00    +0.000 C 
ATOM      4  C   UNL     1       2.040   8.490  18.481  0.00  0.00    +0.000 A 
ATOM      5  C   UNL     1       2.978   7.699  17.754  0.00  0.00    +0.000 A 
ATOM      6  C   UNL     1       3.524   6.526  18.292  0.00  0.00    +0.000 A 
ATOM      7  C   UNL     1       3.150   6.136  19.577  0.00  0.00    +0.000 A 
ATOM      8  C   UNL     1       2.216   6.885  20.295  0.00  0.00    +0.000 A 
ATOM      9  C   UNL     1       1.641   8.054  19.762  0.00  0.00    +0.000 A 
BRANCH   6  10
ATOM     10  C   UNL     1       4.445   5.638  17.478  0.00  0.00    +0.000 C 
BRANCH  10  11
ATOM     11  N   UNL     1       4.262   4.190  17.666  0.00  0.00    +0.000 NA
ATOM     12  C   UNL     1       4.592   3.742  19.018  0.00  0.00    +0.000 C 
ATOM     13  C   UNL     1       3.693   2.545  19.300  0.00  0.00    +0.000 C 
ATOM     14  C   UNL     1       2.449   2.752  18.442  0.00  0.00    +0.000 C 
ATOM     15  C   UNL     1       1.230   3.194  19.256  0.00  0.00    +0.000 C 
ATOM     16  C   UNL     1       2.865   3.799  17.393  0.00  0.00    +0.000 C 
BRANCH  14  17
ATOM     17  O   UNL     1       2.104   1.522  17.798  0.00  0.00    +0.000 OA
ATOM     18  H   UNL     1       1.197   1.609  17.457  0.00  0.00    +0.000 HD
ENDBRANCH  14  17
ENDBRANCH  10  11
ENDBRANCH   6  10
ENDBRANCH   1   9
BRANCH   1  19
ATOM     19  C   UNL     1       0.877  10.214  21.062  0.00  0.00    +0.000 C 
BRANCH  19  20
ATOM     20  N   UNL     1      -0.350  10.950  21.393  0.00  0.00    +0.000 N 
ATOM     21  N   UNL     1      -0.767  11.834  20.413  0.00  0.00    +0.000 NA
ATOM     22  C   UNL     1      -1.829  12.518  20.667  0.00  0.00    +0.000 A 
ATOM     23  C   UNL     1      -2.650  12.448  21.902  0.00  0.00    +0.000 A 
ATOM     24  C   UNL     1      -2.066  11.790  22.912  0.00  0.00    +0.000 A 
ATOM     25  C   UNL     1      -0.816  11.038  22.706  0.00  0.00    +0.000 A 
ATOM     26  O   UNL     1      -0.332  10.495  23.685  0.00  0.00    +0.000 OA
BRANCH  23  27
ATOM     27  O   UNL     1      -3.866  13.069  21.872  0.00  0.00    +0.000 OA
BRANCH  27  28
ATOM     28  C   UNL     1      -4.365  13.520  20.615  0.00  0.00    +0.000 C 
BRANCH  28  29
ATOM     29  C   UNL     1      -5.332  12.515  20.025  0.00  0.00    +0.000 A 
ATOM     30  C   UNL     1      -6.488  12.091  20.698  0.00  0.00    +0.000 A 
ATOM     31  C   UNL     1      -7.247  11.028  20.200  0.00  0.00    +0.000 A 
ATOM     32  C   UNL     1      -6.872  10.394  19.017  0.00  0.00    +0.000 A 
ATOM     33  C   UNL     1      -5.790  10.877  18.287  0.00  0.00    +0.000 A 
ATOM     34  C   UNL     1      -5.041  11.949  18.774  0.00  0.00    +0.000 A 
ENDBRANCH  28  29
ENDBRANCH  27  28
ENDBRANCH  23  27
ENDBRANCH  19  20
ENDBRANCH   1  19
TORSDOF 9
ENDMDL
MODEL 5
REMARK VINA RESULT:      -8.1      4.917     10.522
REMARK  Name = 
REMARK  11 active torsions:
REMARK  status: ('A' for Active; 'I' for Inactive)
REMARK    1  A    between atoms: C_1  and  C_2
REMARK    2  A    between atoms: C_4  and  C_5
REMARK    3  A    between atoms: C_5  and  N_6
REMARK    4  A    between atoms: C_9  and  C_10
REMARK    5  A    between atoms: C_9  and  O_11
REMARK    6  A    between atoms: C_15  and  C_16
REMARK    7  A    between atoms: C_16  and  C_18
REMARK    8  A    between atoms: C_18  and  N_19
REMARK    9  A    between atoms: C_22  and  O_23
REMARK   10  A    between atoms: O_23  and  C_24
REMARK   11  A    between atoms: C_24  and  C_25
REMARK                            x       y       z     vdW  Elec       q    Type
REMARK                         _______ _______ _______ _____ _____    ______ ____
ROOT
ATOM      1  C   UNL     1       0.715  10.228  19.249  0.00  0.00    +0.000 C 
ATOM      2  O   UNL     1      -0.205  10.406  18.442  0.00  0.00    +0.000 OA
ENDROOT
BRANCH   1   9
ATOM      3  C   UNL     1       1.092   7.898  21.403  0.00  0.00    +0.000 C 
ATOM      4  C   UNL     1       1.736   7.952  20.048  0.00  0.00    +0.000 A 
ATOM      5  C   UNL     1       2.558   6.840  19.697  0.00  0.00    +0.000 A 
ATOM      6  C   UNL     1       3.169   6.746  18.439  0.00  0.00    +0.000 A 
ATOM      7  C   UNL     1       2.950   7.758  17.506  0.00  0.00    +0.000 A 
ATOM      8  C   UNL     1       2.167   8.864  17.839  0.00  0.00    +0.000 A 
ATOM      9  C   UNL     1       1.564   8.986  19.105  0.00  0.00    +0.000 A 
BRANCH   6  10
ATOM     10  C   UNL     1       4.119   5.613  18.106  0.00  0.00    +0.000 C 
BRANCH  10  11
ATOM     11  N   UNL     1       3.506   4.280  17.998  0.00  0.00    +0.000 NA
ATOM     12  C   UNL     1       4.005   3.337  18.998  0.00  0.00    +0.000 C 
ATOM     13  C   UNL     1       2.857   2.379  19.288  0.00  0.00    +0.000 C 
ATOM     14  C   UNL     1       1.581   3.165  19.001  0.00  0.00    +0.000 C 
ATOM     15  C   UNL     1       0.848   3.597  20.274  0.00  0.00    +0.000 C 
ATOM     16  C   UNL     1       2.041   4.364  18.153  0.00  0.00    +0.000 C 
BRANCH  14  17
ATOM     17  O   UNL     1       0.677   2.349  18.249  0.00  0.00    +0.000 OA
ATOM     18  H   UNL     1       1.199   1.659  17.806  0.00  0.00    +0.000 HD
ENDBRANCH  14  17
ENDBRANCH  10  11
ENDBRANCH   6  10
ENDBRANCH   1   9
BRANCH   1  19
ATOM     19  C   UNL     1       0.866  11.139  20.455  0.00  0.00    +0.000 C 
BRANCH  19  20
ATOM     20  N   UNL     1      -0.370  11.434  21.192  0.00  0.00    +0.000 N 
ATOM     21  N   UNL     1      -1.157  12.415  20.615  0.00  0.00    +0.000 NA
ATOM     22  C   UNL     1      -2.242  12.723  21.238  0.00  0.00    +0.000 A 
ATOM     23  C   UNL     1      -2.732  12.129  22.507  0.00  0.00    +0.000 A 
ATOM     24  C   UNL     1      -1.820  11.392  23.154  0.00  0.00    +0.000 A 
ATOM     25  C   UNL     1      -0.531  11.054  22.525  0.00  0.00    +0.000 A 
ATOM     26  O   UNL     1       0.257  10.409  23.196  0.00  0.00    +0.000 OA
BRANCH  23  27
ATOM     27  O   UNL     1      -4.017  12.416  22.869  0.00  0.00    +0.000 OA
BRANCH  27  28
ATOM     28  C   UNL     1      -4.271  12.810  24.215  0.00  0.00    +0.000 C 
BRANCH  28  29
ATOM     29  C   UNL     1      -4.179  14.314  24.365  0.00  0.00    +0.000 A 
ATOM     30  C   UNL     1      -3.085  14.949  24.973  0.00  0.00    +0.000 A 
ATOM     31  C   UNL     1      -3.130  16.317  25.258  0.00  0.00    +0.000 A 
ATOM     32  C   UNL     1      -4.255  17.066  24.920  0.00  0.00    +0.000 A 
ATOM     33  C   UNL     1      -5.300  16.468  24.221  0.00  0.00    +0.000 A 
ATOM     34  C   UNL     1      -5.250  15.106  23.921  0.00  0.00    +0.000 A 
ENDBRANCH  28  29
ENDBRANCH  27  28
ENDBRANCH  23  27
ENDBRANCH  19  20
ENDBRANCH   1  19
TORSDOF 9
ENDMDL
MODEL 6
REMARK VINA RESULT:      -8.1      3.914     11.235
REMARK  Name = 
REMARK  11 active torsions:
REMARK  status: ('A' for Active; 'I' for Inactive)
REMARK    1  A    between atoms: C_1  and  C_2
REMARK    2  A    between atoms: C_4  and  C_5
REMARK    3  A    between atoms: C_5  and  N_6
REMARK    4  A    between atoms: C_9  and  C_10
REMARK    5  A    between atoms: C_9  and  O_11
REMARK    6  A    between atoms: C_15  and  C_16
REMARK    7  A    between atoms: C_16  and  C_18
REMARK    8  A    between atoms: C_18  and  N_19
REMARK    9  A    between atoms: C_22  and  O_23
REMARK   10  A    between atoms: O_23  and  C_24
REMARK   11  A    between atoms: C_24  and  C_25
REMARK                            x       y       z     vdW  Elec       q    Type
REMARK                         _______ _______ _______ _____ _____    ______ ____
ROOT
ATOM      1  C   UNL     1       0.473  10.769  19.401  0.00  0.00    +0.000 C 
ATOM      2  O   UNL     1      -0.260  11.127  18.471  0.00  0.00    +0.000 OA
ENDROOT
BRANCH   1   9
ATOM      3  C   UNL     1       0.859   8.522  21.639  0.00  0.00    +0.000 C 
ATOM      4  C   UNL     1       1.401   8.468  20.240  0.00  0.00    +0.000 A 
ATOM      5  C   UNL     1       2.119   7.287  19.888  0.00  0.00    +0.000 A 
ATOM      6  C   UNL     1       2.625   7.092  18.595  0.00  0.00    +0.000 A 
ATOM      7  C   UNL     1       2.402   8.072  17.629  0.00  0.00    +0.000 A 
ATOM      8  C   UNL     1       1.720   9.244  17.962  0.00  0.00    +0.000 A 
ATOM      9  C   UNL     1       1.225   9.467  19.260  0.00  0.00    +0.000 A 
BRANCH   6  10
ATOM     10  C   UNL     1       3.471   5.882  18.252  0.00  0.00    +0.000 C 
BRANCH  10  11
ATOM     11  N   UNL     1       4.904   6.144  18.049  0.00  0.00    +0.000 NA
ATOM     12  C   UNL     1       5.766   5.214  18.776  0.00  0.00    +0.000 C 
ATOM     13  C   UNL     1       7.033   5.071  17.945  0.00  0.00    +0.000 C 
ATOM     14  C   UNL     1       6.616   5.345  16.503  0.00  0.00    +0.000 C 
ATOM     15  C   UNL     1       6.543   4.075  15.652  0.00  0.00    +0.000 C 
ATOM     16  C   UNL     1       5.254   6.054  16.617  0.00  0.00    +0.000 C 
BRANCH  14  17
ATOM     17  O   UNL     1       7.572   6.213  15.887  0.00  0.00    +0.000 OA
ATOM     18  H   UNL     1       7.816   5.825  15.029  0.00  0.00    +0.000 HD
ENDBRANCH  14  17
ENDBRANCH  10  11
ENDBRANCH   6  10
ENDBRANCH   1   9
BRANCH   1  19
ATOM     19  C   UNL     1       0.469  11.527  20.717  0.00  0.00    +0.000 C 
BRANCH  19  20
ATOM     20  N   UNL     1      -0.837  12.032  21.161  0.00  0.00    +0.000 N 
ATOM     21  N   UNL     1      -1.321  13.094  20.417  0.00  0.00    +0.000 NA
ATOM     22  C   UNL     1      -2.455  13.585  20.782  0.00  0.00    +0.000 A 
ATOM     23  C   UNL     1      -3.294  13.122  21.916  0.00  0.00    +0.000 A 
ATOM     24  C   UNL     1      -2.668  12.286  22.754  0.00  0.00    +0.000 A 
ATOM     25  C   UNL     1      -1.341  11.735  22.428  0.00  0.00    +0.000 A 
ATOM     26  O   UNL     1      -0.826  11.009  23.261  0.00  0.00    +0.000 OA
BRANCH  23  27
ATOM     27  O   UNL     1      -4.567  13.611  21.983  0.00  0.00    +0.000 OA
BRANCH  27  28
ATOM     28  C   UNL     1      -5.650  12.684  21.992  0.00  0.00    +0.000 C 
BRANCH  28  29
ATOM     29  C   UNL     1      -6.166  12.441  20.589  0.00  0.00    +0.000 A 
ATOM     30  C   UNL     1      -6.575  11.175  20.141  0.00  0.00    +0.000 A 
ATOM     31  C   UNL     1      -6.864  10.961  18.790  0.00  0.00    +0.000 A 
ATOM     32  C   UNL     1      -6.768  12.012  17.880  0.00  0.00    +0.000 A 
ATOM     33  C   UNL     1      -6.468  13.294  18.331  0.00  0.00    +0.000 A 
ATOM     34  C   UNL     1      -6.195  13.512  19.683  0.00  0.00    +0.000 A 
ENDBRANCH  28  29
ENDBRANCH  27  28
ENDBRANCH  23  27
ENDBRANCH  19  20
ENDBRANCH   1  19
TORSDOF 9
ENDMDL
MODEL 7
REMARK VINA RESULT:      -8.1      4.082     11.251
REMARK  Name = 
REMARK  11 active torsions:
REMARK  status: ('A' for Active; 'I' for Inactive)
REMARK    1  A    between atoms: C_1  and  C_2
REMARK    2  A    between atoms: C_4  and  C_5
REMARK    3  A    between atoms: C_5  and  N_6
REMARK    4  A    between atoms: C_9  and  C_10
REMARK    5  A    between atoms: C_9  and  O_11
REMARK    6  A    between atoms: C_15  and  C_16
REMARK    7  A    between atoms: C_16  and  C_18
REMARK    8  A    between atoms: C_18  and  N_19
REMARK    9  A    between atoms: C_22  and  O_23
REMARK   10  A    between atoms: O_23  and  C_24
REMARK   11  A    between atoms: C_24  and  C_25
REMARK                            x       y       z     vdW  Elec       q    Type
REMARK                         _______ _______ _______ _____ _____    ______ ____
ROOT
ATOM      1  C   UNL     1       0.673  10.539  19.528  0.00  0.00    +0.000 C 
ATOM      2  O   UNL     1       1.260  11.591  19.246  0.00  0.00    +0.000 OA
ENDROOT
BRANCH   1   9
ATOM      3  C   UNL     1       1.146   8.199  21.651  0.00  0.00    +0.000 C 
ATOM      4  C   UNL     1       1.607   8.193  20.223  0.00  0.00    +0.000 A 
ATOM      5  C   UNL     1       2.284   7.016  19.785  0.00  0.00    +0.000 A 
ATOM      6  C   UNL     1       2.714   6.866  18.459  0.00  0.00    +0.000 A 
ATOM      7  C   UNL     1       2.453   7.887  17.547  0.00  0.00    +0.000 A 
ATOM      8  C   UNL     1       1.811   9.055  17.962  0.00  0.00    +0.000 A 
ATOM      9  C   UNL     1       1.393   9.232  19.294  0.00  0.00    +0.000 A 
BRANCH   6  10
ATOM     10  C   UNL     1       3.518   5.658  18.022  0.00  0.00    +0.000 C 
BRANCH  10  11
ATOM     11  N   UNL     1       4.958   5.889  17.827  0.00  0.00    +0.000 NA
ATOM     12  C   UNL     1       5.793   4.873  18.465  0.00  0.00    +0.000 C 
ATOM     13  C   UNL     1       7.049   4.759  17.612  0.00  0.00    +0.000 C 
ATOM     14  C   UNL     1       6.631   5.166  16.203  0.00  0.00    +0.000 C 
ATOM     15  C   UNL     1       6.509   3.975  15.249  0.00  0.00    +0.000 C 
ATOM     16  C   UNL     1       5.295   5.908  16.390  0.00  0.00    +0.000 C 
BRANCH  14  17
ATOM     17  O   UNL     1       7.611   6.051  15.652  0.00  0.00    +0.000 OA
ATOM     18  H   UNL     1       7.160   6.638  15.021  0.00  0.00    +0.000 HD
ENDBRANCH  14  17
ENDBRANCH  10  11
ENDBRANCH   6  10
ENDBRANCH   1   9
BRANCH   1  19
ATOM     19  C   UNL     1      -0.794  10.561  19.924  0.00  0.00    +0.000 C 
BRANCH  19  20
ATOM     20  N   UNL     1      -1.216  11.694  20.756  0.00  0.00    +0.000 N 
ATOM     21  N   UNL     1      -1.718  12.769  20.044  0.00  0.00    +0.000 NA
ATOM     22  C   UNL     1      -2.082  13.797  20.732  0.00  0.00    +0.000 A 
ATOM     23  C   UNL     1      -2.020  13.939  22.209  0.00  0.00    +0.000 A 
ATOM     24  C   UNL     1      -1.290  12.997  22.819  0.00  0.00    +0.000 A 
ATOM     25  C   UNL     1      -0.788  11.826  22.079  0.00  0.00    +0.000 A 
ATOM     26  O   UNL     1      -0.102  11.033  22.701  0.00  0.00    +0.000 OA
BRANCH  23  27
ATOM     27  O   UNL     1      -2.679  15.002  22.755  0.00  0.00    +0.000 OA
BRANCH  27  28
ATOM     28  C   UNL     1      -3.283  14.840  24.036  0.00  0.00    +0.000 C 
BRANCH  28  29
ATOM     29  C   UNL     1      -4.740  14.448  23.902  0.00  0.00    +0.000 A 
ATOM     30  C   UNL     1      -5.767  15.391  23.739  0.00  0.00    +0.000 A 
ATOM     31  C   UNL     1      -7.106  14.997  23.808  0.00  0.00    +0.000 A 
ATOM     32  C   UNL     1      -7.432  13.659  24.020  0.00  0.00    +0.000 A 
ATOM     33  C   UNL     1      -6.424  12.702  24.076  0.00  0.00    +0.000 A 
ATOM     34  C   UNL     1      -5.086  13.091  23.990  0.00  0.00    +0.000 A 
ENDBRANCH  28  29
ENDBRANCH  27  28
ENDBRANCH  23  27
ENDBRANCH  19  20
ENDBRANCH   1  19
TORSDOF 9
ENDMDL
MODEL 8
REMARK VINA RESULT:      -8.1      1.341      2.121
REMARK  Name = 
REMARK  11 active torsions:
REMARK  status: ('A' for Active; 'I' for Inactive)
REMARK    1  A    between atoms: C_1  and  C_2
REMARK    2  A    between atoms: C_4  and  C_5
REMARK    3  A    between atoms: C_5  and  N_6
REMARK    4  A    between atoms: C_9  and  C_10
REMARK    5  A    between atoms: C_9  and  O_11
REMARK    6  A    between atoms: C_15  and  C_16
REMARK    7  A    between atoms: C_16  and  C_18
REMARK    8  A    between atoms: C_18  and  N_19
REMARK    9  A    between atoms: C_22  and  O_23
REMARK   10  A    between atoms: O_23  and  C_24
REMARK   11  A    between atoms: C_24  and  C_25
REMARK                            x       y       z     vdW  Elec       q    Type
REMARK                         _______ _______ _______ _____ _____    ______ ____
ROOT
ATOM      1  C   UNL     1       3.976   4.053  17.733  0.00  0.00    +0.000 C 
ATOM      2  O   UNL     1       3.390   3.639  16.726  0.00  0.00    +0.000 OA
ENDROOT
BRANCH   1   9
ATOM      3  C   UNL     1       2.921   3.063  20.581  0.00  0.00    +0.000 C 
ATOM      4  C   UNL     1       2.719   4.432  20.000  0.00  0.00    +0.000 A 
ATOM      5  C   UNL     1       2.023   5.368  20.820  0.00  0.00    +0.000 A 
ATOM      6  C   UNL     1       1.821   6.694  20.413  0.00  0.00    +0.000 A 
ATOM      7  C   UNL     1       2.332   7.107  19.184  0.00  0.00    +0.000 A 
ATOM      8  C   UNL     1       2.997   6.199  18.358  0.00  0.00    +0.000 A 
ATOM      9  C   UNL     1       3.189   4.858  18.740  0.00  0.00    +0.000 A 
BRANCH   6  10
ATOM     10  C   UNL     1       0.997   7.658  21.243  0.00  0.00    +0.000 C 
BRANCH  10  11
ATOM     11  N   UNL     1       0.987   9.053  20.775  0.00  0.00    +0.000 NA
ATOM     12  C   UNL     1      -0.208   9.390  20.003  0.00  0.00    +0.000 C 
ATOM     13  C   UNL     1      -0.471  10.869  20.252  0.00  0.00    +0.000 C 
ATOM     14  C   UNL     1       0.116  11.167  21.628  0.00  0.00    +0.000 C 
ATOM     15  C   UNL     1      -0.955  11.333  22.710  0.00  0.00    +0.000 C 
ATOM     16  C   UNL     1       1.062   9.987  21.915  0.00  0.00    +0.000 C 
BRANCH  14  17
ATOM     17  O   UNL     1       0.857  12.390  21.576  0.00  0.00    +0.000 OA
ATOM     18  H   UNL     1       0.698  12.796  20.707  0.00  0.00    +0.000 HD
ENDBRANCH  14  17
ENDBRANCH  10  11
ENDBRANCH   6  10
ENDBRANCH   1   9
BRANCH   1  19
ATOM     19  C   UNL     1       5.484   3.911  17.856  0.00  0.00    +0.000 C 
BRANCH  19  20
ATOM     20  N   UNL     1       6.253   5.159  17.775  0.00  0.00    +0.000 N 
ATOM     21  N   UNL     1       6.812   5.564  18.974  0.00  0.00    +0.000 NA
ATOM     22  C   UNL     1       7.480   6.666  18.957  0.00  0.00    +0.000 A 
ATOM     23  C   UNL     1       7.710   7.541  17.779  0.00  0.00    +0.000 A 
ATOM     24  C   UNL     1       6.937   7.253  16.724  0.00  0.00    +0.000 A 
ATOM     25  C   UNL     1       6.101   6.040  16.703  0.00  0.00    +0.000 A 
ATOM     26  O   UNL     1       5.401   5.871  15.719  0.00  0.00    +0.000 OA
BRANCH  23  27
ATOM     27  O   UNL     1       8.644   8.527  17.916  0.00  0.00    +0.000 OA
BRANCH  27  28
ATOM     28  C   UNL     1       8.199   9.845  18.227  0.00  0.00    +0.000 C 
BRANCH  28  29
ATOM     29  C   UNL     1       9.352  10.712  18.686  0.00  0.00    +0.000 A 
ATOM     30  C   UNL     1      10.393  11.104  17.831  0.00  0.00    +0.000 A 
ATOM     31  C   UNL     1      11.527  11.743  18.341  0.00  0.00    +0.000 A 
ATOM     32  C   UNL     1      11.622  12.014  19.705  0.00  0.00    +0.000 A 
ATOM     33  C   UNL     1      10.550  11.726  20.544  0.00  0.00    +0.000 A 
ATOM     34  C   UNL     1       9.410  11.104  20.033  0.00  0.00    +0.000 A 
ENDBRANCH  28  29
ENDBRANCH  27  28
ENDBRANCH  23  27
ENDBRANCH  19  20
ENDBRANCH   1  19
TORSDOF 9
ENDMDL
MODEL 9
REMARK VINA RESULT:      -8.1      4.943     10.890
REMARK  Name = 
REMARK  11 active torsions:
REMARK  status: ('A' for Active; 'I' for Inactive)
REMARK    1  A    between atoms: C_1  and  C_2
REMARK    2  A    between atoms: C_4  and  C_5
REMARK    3  A    between atoms: C_5  and  N_6
REMARK    4  A    between atoms: C_9  and  C_10
REMARK    5  A    between atoms: C_9  and  O_11
REMARK    6  A    between atoms: C_15  and  C_16
REMARK    7  A    between atoms: C_16  and  C_18
REMARK    8  A    between atoms: C_18  and  N_19
REMARK    9  A    between atoms: C_22  and  O_23
REMARK   10  A    between atoms: O_23  and  C_24
REMARK   11  A    between atoms: C_24  and  C_25
REMARK                            x       y       z     vdW  Elec       q    Type
REMARK                         _______ _______ _______ _____ _____    ______ ____
ROOT
ATOM      1  C   UNL     1       0.424  10.288  19.262  0.00  0.00    +0.000 C 
ATOM      2  O   UNL     1      -0.624  10.318  18.607  0.00  0.00    +0.000 OA
ENDROOT
BRANCH   1   9
ATOM      3  C   UNL     1       1.032   8.000  21.409  0.00  0.00    +0.000 C 
ATOM      4  C   UNL     1       1.618   8.086  20.029  0.00  0.00    +0.000 A 
ATOM      5  C   UNL     1       2.494   7.026  19.651  0.00  0.00    +0.000 A 
ATOM      6  C   UNL     1       3.060   6.962  18.370  0.00  0.00    +0.000 A 
ATOM      7  C   UNL     1       2.740   7.952  17.442  0.00  0.00    +0.000 A 
ATOM      8  C   UNL     1       1.902   9.009  17.802  0.00  0.00    +0.000 A 
ATOM      9  C   UNL     1       1.343   9.101  19.090  0.00  0.00    +0.000 A 
BRANCH   6  10
ATOM     10  C   UNL     1       4.066   5.889  18.003  0.00  0.00    +0.000 C 
BRANCH  10  11
ATOM     11  N   UNL     1       3.549   4.512  17.987  0.00  0.00    +0.000 NA
ATOM     12  C   UNL     1       4.075   3.689  19.076  0.00  0.00    +0.000 C 
ATOM     13  C   UNL     1       2.986   2.679  19.409  0.00  0.00    +0.000 C 
ATOM     14  C   UNL     1       1.670   3.347  19.022  0.00  0.00    +0.000 C 
ATOM     15  C   UNL     1       0.866   3.827  20.233  0.00  0.00    +0.000 C 
ATOM     16  C   UNL     1       2.077   4.504  18.092  0.00  0.00    +0.000 C 
BRANCH  14  17
ATOM     17  O   UNL     1       0.851   2.412  18.314  0.00  0.00    +0.000 OA
ATOM     18  H   UNL     1       1.433   1.722  17.952  0.00  0.00    +0.000 HD
ENDBRANCH  14  17
ENDBRANCH  10  11
ENDBRANCH   6  10
ENDBRANCH   1   9
BRANCH   1  19
ATOM     19  C   UNL     1       0.684  11.323  20.342  0.00  0.00    +0.000 C 
BRANCH  19  20
ATOM     20  N   UNL     1      -0.509  11.915  20.961  0.00  0.00    +0.000 N 
ATOM     21  N   UNL     1      -0.995  13.034  20.308  0.00  0.00    +0.000 NA
ATOM     22  C   UNL     1      -2.029  13.601  20.828  0.00  0.00    +0.000 A 
ATOM     23  C   UNL     1      -2.752  13.171  22.051  0.00  0.00    +0.000 A 
ATOM     24  C   UNL     1      -2.095  12.263  22.784  0.00  0.00    +0.000 A 
ATOM     25  C   UNL     1      -0.870  11.620  22.277  0.00  0.00    +0.000 A 
ATOM     26  O   UNL     1      -0.314  10.829  23.021  0.00  0.00    +0.000 OA
BRANCH  23  27
ATOM     27  O   UNL     1      -3.962  13.756  22.292  0.00  0.00    +0.000 OA
BRANCH  27  28
ATOM     28  C   UNL     1      -5.099  12.915  22.468  0.00  0.00    +0.000 C 
BRANCH  28  29
ATOM     29  C   UNL     1      -5.951  12.887  21.216  0.00  0.00    +0.000 A 
ATOM     30  C   UNL     1      -6.822  11.828  20.915  0.00  0.00    +0.000 A 
ATOM     31  C   UNL     1      -7.443  11.756  19.665  0.00  0.00    +0.000 A 
ATOM     32  C   UNL     1      -7.217  12.748  18.713  0.00  0.00    +0.000 A 
ATOM     33  C   UNL     1      -6.441  13.856  19.039  0.00  0.00    +0.000 A 
ATOM     34  C   UNL     1      -5.834  13.938  20.294  0.00  0.00    +0.000 A 
ENDBRANCH  28  29
ENDBRANCH  27  28
ENDBRANCH  23  27
ENDBRANCH  19  20
ENDBRANCH   1  19
TORSDOF 9
ENDMDL
