MODEL 1
REMARK VINA RESULT:      -7.2      0.000      0.000
REMARK  Name = 
REMARK  7 active torsions:
REMARK  status: ('A' for Active; 'I' for Inactive)
REMARK    1  A    between atoms: C_1  and  N_2
REMARK    2  A    between atoms: N_2  and  C_3
REMARK    3  A    between atoms: C_4  and  C_6
REMARK    4  A    between atoms: C_6  and  N_7
REMARK    5  A    between atoms: N_15  and  C_16
REMARK    6  A    between atoms: C_16  and  C_17
REMARK    7  A    between atoms: C_22  and  C_23
REMARK                            x       y       z     vdW  Elec       q    Type
REMARK                         _______ _______ _______ _____ _____    ______ ____
ROOT
ATOM      1  N   UNL     1       2.307   5.299  18.964  0.00  0.00    +0.000 N 
ATOM      2  C   UNL     1       1.801   4.347  18.084  0.00  0.00    +0.000 C 
ATOM      3  O   UNL     1       1.053   4.613  17.147  0.00  0.00    +0.000 OA
ATOM      4  C   UNL     1       2.397   2.952  18.268  0.00  0.00    +0.000 C 
ATOM      5  C   UNL     1       2.428   2.480  19.723  0.00  0.00    +0.000 C 
ATOM      6  C   UNL     1       2.639   3.622  20.707  0.00  0.00    +0.000 C 
ATOM      7  C   UNL     1       3.227   4.854  20.017  0.00  0.00    +0.000 C 
ATOM      8  C   UNL     1       4.652   4.546  19.473  0.00  0.00    +0.000 C 
ATOM      9  N   UNL     1       4.729   3.975  18.134  0.00  0.00    +0.000 NA
ATOM     10  C   UNL     1       3.806   2.964  17.648  0.00  0.00    +0.000 C 
ENDROOT
BRANCH   1  11
ATOM     11  C   UNL     1       2.246   6.718  18.592  0.00  0.00    +0.000 C 
BRANCH  11  15
ATOM     12  C   UNL     1       1.800   9.556  17.909  0.00  0.00    +0.000 C 
ATOM     13  N   UNL     1       1.461   9.016  19.217  0.00  0.00    +0.000 N 
ATOM     14  C   UNL     1       0.793   9.925  20.136  0.00  0.00    +0.000 C 
ATOM     15  C   UNL     1       1.726   7.710  19.656  0.00  0.00    +0.000 C 
ATOM     16  O   UNL     1       1.556   7.379  20.830  0.00  0.00    +0.000 OA
ENDBRANCH  11  15
ENDBRANCH   1  11
BRANCH   9  17
ATOM     17  C   UNL     1       6.023   4.042  17.471  0.00  0.00    +0.000 C 
BRANCH  17  18
ATOM     18  C   UNL     1       6.705   5.347  17.845  0.00  0.00    +0.000 A 
ATOM     19  C   UNL     1       7.595   5.334  18.938  0.00  0.00    +0.000 A 
ATOM     20  C   UNL     1       8.364   6.450  19.253  0.00  0.00    +0.000 A 
ATOM     21  C   UNL     1       8.240   7.608  18.494  0.00  0.00    +0.000 A 
ATOM     22  C   UNL     1       7.341   7.651  17.425  0.00  0.00    +0.000 A 
ATOM     23  C   UNL     1       6.571   6.528  17.095  0.00  0.00    +0.000 A 
BRANCH  23  24
ATOM     24  C   UNL     1       5.694   6.608  15.964  0.00  0.00    +0.000 C 
ATOM     25  N   UNL     1       4.973   6.676  15.050  0.00  0.00    +0.000 NA
ENDBRANCH  23  24
ENDBRANCH  17  18
ENDBRANCH   9  17
TORSDOF 5
ENDMDL
MODEL 2
REMARK VINA RESULT:      -7.2      2.061      5.422
REMARK  Name = 
REMARK  7 active torsions:
REMARK  status: ('A' for Active; 'I' for Inactive)
REMARK    1  A    between atoms: C_1  and  N_2
REMARK    2  A    between atoms: N_2  and  C_3
REMARK    3  A    between atoms: C_4  and  C_6
REMARK    4  A    between atoms: C_6  and  N_7
REMARK    5  A    between atoms: N_15  and  C_16
REMARK    6  A    between atoms: C_16  and  C_17
REMARK    7  A    between atoms: C_22  and  C_23
REMARK                            x       y       z     vdW  Elec       q    Type
REMARK                         _______ _______ _______ _____ _____    ______ ____
ROOT
ATOM      1  N   UNL     1       3.300   3.308  18.473  0.00  0.00    +0.000 N 
ATOM      2  C   UNL     1       3.266   2.916  19.807  0.00  0.00    +0.000 C 
ATOM      3  O   UNL     1       4.186   2.329  20.370  0.00  0.00    +0.000 OA
ATOM      4  C   UNL     1       2.054   3.438  20.578  0.00  0.00    +0.000 C 
ATOM      5  C   UNL     1       0.724   3.232  19.851  0.00  0.00    +0.000 C 
ATOM      6  C   UNL     1       0.861   3.322  18.337  0.00  0.00    +0.000 C 
ATOM      7  C   UNL     1       2.148   4.043  17.934  0.00  0.00    +0.000 C 
ATOM      8  C   UNL     1       2.114   5.525  18.407  0.00  0.00    +0.000 C 
ATOM      9  N   UNL     1       2.596   5.790  19.757  0.00  0.00    +0.000 NA
ATOM     10  C   UNL     1       2.305   4.925  20.887  0.00  0.00    +0.000 C 
ENDROOT
BRANCH   1  11
ATOM     11  C   UNL     1       4.589   3.344  17.772  0.00  0.00    +0.000 C 
BRANCH  11  15
ATOM     12  C   UNL     1       5.264   5.363  15.725  0.00  0.00    +0.000 C 
ATOM     13  N   UNL     1       5.739   5.468  17.097  0.00  0.00    +0.000 N 
ATOM     14  C   UNL     1       6.477   6.676  17.433  0.00  0.00    +0.000 C 
ATOM     15  C   UNL     1       5.546   4.510  18.104  0.00  0.00    +0.000 C 
ATOM     16  O   UNL     1       6.118   4.597  19.192  0.00  0.00    +0.000 OA
ENDBRANCH  11  15
ENDBRANCH   1  11
BRANCH   9  17
ATOM     17  C   UNL     1       2.929   7.172  20.070  0.00  0.00    +0.000 C 
BRANCH  17  18
ATOM     18  C   UNL     1       1.646   7.953  20.297  0.00  0.00    +0.000 A 
ATOM     19  C   UNL     1       0.932   7.712  21.488  0.00  0.00    +0.000 A 
ATOM     20  C   UNL     1      -0.171   8.486  21.835  0.00  0.00    +0.000 A 
ATOM     21  C   UNL     1      -0.595   9.501  20.984  0.00  0.00    +0.000 A 
ATOM     22  C   UNL     1       0.080   9.735  19.784  0.00  0.00    +0.000 A 
ATOM     23  C   UNL     1       1.199   8.967  19.433  0.00  0.00    +0.000 A 
BRANCH  23  24
ATOM     24  C   UNL     1       1.882   9.273  18.211  0.00  0.00    +0.000 C 
ATOM     25  N   UNL     1       2.446   9.526  17.222  0.00  0.00    +0.000 NA
ENDBRANCH  23  24
ENDBRANCH  17  18
ENDBRANCH   9  17
TORSDOF 5
ENDMDL
MODEL 3
REMARK VINA RESULT:      -7.1      2.947      6.745
REMARK  Name = 
REMARK  7 active torsions:
REMARK  status: ('A' for Active; 'I' for Inactive)
REMARK    1  A    between atoms: C_1  and  N_2
REMARK    2  A    between atoms: N_2  and  C_3
REMARK    3  A    between atoms: C_4  and  C_6
REMARK    4  A    between atoms: C_6  and  N_7
REMARK    5  A    between atoms: N_15  and  C_16
REMARK    6  A    between atoms: C_16  and  C_17
REMARK    7  A    between atoms: C_22  and  C_23
REMARK                            x       y       z     vdW  Elec       q    Type
REMARK                         _______ _______ _______ _____ _____    ______ ____
ROOT
ATOM      1  N   UNL     1       5.432   4.965  15.816  0.00  0.00    +0.000 N 
ATOM      2  C   UNL     1       5.283   6.341  15.960  0.00  0.00    +0.000 C 
ATOM      3  O   UNL     1       5.195   7.120  15.015  0.00  0.00    +0.000 OA
ATOM      4  C   UNL     1       5.056   6.794  17.401  0.00  0.00    +0.000 C 
ATOM      5  C   UNL     1       6.035   6.181  18.404  0.00  0.00    +0.000 C 
ATOM      6  C   UNL     1       6.460   4.770  18.023  0.00  0.00    +0.000 C 
ATOM      7  C   UNL     1       5.483   4.140  17.030  0.00  0.00    +0.000 C 
ATOM      8  C   UNL     1       4.083   3.957  17.684  0.00  0.00    +0.000 C 
ATOM      9  N   UNL     1       3.169   5.090  17.596  0.00  0.00    +0.000 NA
ATOM     10  C   UNL     1       3.595   6.468  17.766  0.00  0.00    +0.000 C 
ENDROOT
BRANCH   1  11
ATOM     11  C   UNL     1       5.137   4.347  14.518  0.00  0.00    +0.000 C 
BRANCH  11  15
ATOM     12  C   UNL     1       4.707   3.063  11.893  0.00  0.00    +0.000 C 
ATOM     13  N   UNL     1       6.021   3.518  12.323  0.00  0.00    +0.000 N 
ATOM     14  C   UNL     1       7.094   3.402  11.347  0.00  0.00    +0.000 C 
ATOM     15  C   UNL     1       6.331   4.048  13.585  0.00  0.00    +0.000 C 
ATOM     16  O   UNL     1       7.496   4.257  13.926  0.00  0.00    +0.000 OA
ENDBRANCH  11  15
ENDBRANCH   1  11
BRANCH   9  17
ATOM     17  C   UNL     1       1.762   4.813  17.847  0.00  0.00    +0.000 C 
BRANCH  17  18
ATOM     18  C   UNL     1       1.636   4.026  19.141  0.00  0.00    +0.000 A 
ATOM     19  C   UNL     1       1.615   2.619  19.056  0.00  0.00    +0.000 A 
ATOM     20  C   UNL     1       1.645   1.829  20.200  0.00  0.00    +0.000 A 
ATOM     21  C   UNL     1       1.674   2.431  21.453  0.00  0.00    +0.000 A 
ATOM     22  C   UNL     1       1.664   3.824  21.559  0.00  0.00    +0.000 A 
ATOM     23  C   UNL     1       1.645   4.627  20.411  0.00  0.00    +0.000 A 
BRANCH  23  24
ATOM     24  C   UNL     1       1.678   6.051  20.572  0.00  0.00    +0.000 C 
ATOM     25  N   UNL     1       1.700   7.210  20.695  0.00  0.00    +0.000 NA
ENDBRANCH  23  24
ENDBRANCH  17  18
ENDBRANCH   9  17
TORSDOF 5
ENDMDL
MODEL 4
REMARK VINA RESULT:      -7.0      2.300      5.840
REMARK  Name = 
REMARK  7 active torsions:
REMARK  status: ('A' for Active; 'I' for Inactive)
REMARK    1  A    between atoms: C_1  and  N_2
REMARK    2  A    between atoms: N_2  and  C_3
REMARK    3  A    between atoms: C_4  and  C_6
REMARK    4  A    between atoms: C_6  and  N_7
REMARK    5  A    between atoms: N_15  and  C_16
REMARK    6  A    between atoms: C_16  and  C_17
REMARK    7  A    between atoms: C_22  and  C_23
REMARK                            x       y       z     vdW  Elec       q    Type
REMARK                         _______ _______ _______ _____ _____    ______ ____
ROOT
ATOM      1  N   UNL     1       4.387   4.788  17.960  0.00  0.00    +0.000 N 
ATOM      2  C   UNL     1       4.819   4.090  19.083  0.00  0.00    +0.000 C 
ATOM      3  O   UNL     1       5.947   4.192  19.558  0.00  0.00    +0.000 OA
ATOM      4  C   UNL     1       3.713   3.314  19.796  0.00  0.00    +0.000 C 
ATOM      5  C   UNL     1       2.842   2.476  18.858  0.00  0.00    +0.000 C 
ATOM      6  C   UNL     1       2.673   3.114  17.487  0.00  0.00    +0.000 C 
ATOM      7  C   UNL     1       2.997   4.608  17.521  0.00  0.00    +0.000 C 
ATOM      8  C   UNL     1       1.984   5.366  18.426  0.00  0.00    +0.000 C 
ATOM      9  N   UNL     1       2.308   5.442  19.846  0.00  0.00    +0.000 NA
ATOM     10  C   UNL     1       2.871   4.330  20.591  0.00  0.00    +0.000 C 
ENDROOT
BRANCH   1  11
ATOM     11  C   UNL     1       5.160   5.948  17.499  0.00  0.00    +0.000 C 
BRANCH  11  15
ATOM     12  C   UNL     1       7.509   4.385  16.628  0.00  0.00    +0.000 C 
ATOM     13  N   UNL     1       6.680   5.120  15.684  0.00  0.00    +0.000 N 
ATOM     14  C   UNL     1       7.008   4.958  14.276  0.00  0.00    +0.000 C 
ATOM     15  C   UNL     1       5.608   5.961  16.021  0.00  0.00    +0.000 C 
ATOM     16  O   UNL     1       5.061   6.674  15.178  0.00  0.00    +0.000 OA
ENDBRANCH  11  15
ENDBRANCH   1  11
BRANCH   9  17
ATOM     17  C   UNL     1       1.599   6.448  20.623  0.00  0.00    +0.000 C 
BRANCH  17  18
ATOM     18  C   UNL     1       1.652   7.774  19.882  0.00  0.00    +0.000 A 
ATOM     19  C   UNL     1       2.386   7.826  18.680  0.00  0.00    +0.000 A 
ATOM     20  C   UNL     1       2.365   8.959  17.873  0.00  0.00    +0.000 A 
ATOM     21  C   UNL     1       1.627  10.071  18.265  0.00  0.00    +0.000 A 
ATOM     22  C   UNL     1       0.917  10.049  19.468  0.00  0.00    +0.000 A 
ATOM     23  C   UNL     1       0.924   8.908  20.281  0.00  0.00    +0.000 A 
BRANCH  23  24
ATOM     24  C   UNL     1       0.147   8.921  21.485  0.00  0.00    +0.000 C 
ATOM     25  N   UNL     1      -0.494   8.933  22.459  0.00  0.00    +0.000 NA
ENDBRANCH  23  24
ENDBRANCH  17  18
ENDBRANCH   9  17
TORSDOF 5
ENDMDL
MODEL 5
REMARK VINA RESULT:      -7.0      2.111      5.426
REMARK  Name = 
REMARK  7 active torsions:
REMARK  status: ('A' for Active; 'I' for Inactive)
REMARK    1  A    between atoms: C_1  and  N_2
REMARK    2  A    between atoms: N_2  and  C_3
REMARK    3  A    between atoms: C_4  and  C_6
REMARK    4  A    between atoms: C_6  and  N_7
REMARK    5  A    between atoms: N_15  and  C_16
REMARK    6  A    between atoms: C_16  and  C_17
REMARK    7  A    between atoms: C_22  and  C_23
REMARK                            x       y       z     vdW  Elec       q    Type
REMARK                         _______ _______ _______ _____ _____    ______ ____
ROOT
ATOM      1  N   UNL     1       3.472   3.467  18.493  0.00  0.00    +0.000 N 
ATOM      2  C   UNL     1       3.720   2.786  19.680  0.00  0.00    +0.000 C 
ATOM      3  O   UNL     1       4.839   2.440  20.049  0.00  0.00    +0.000 OA
ATOM      4  C   UNL     1       2.498   2.656  20.589  0.00  0.00    +0.000 C 
ATOM      5  C   UNL     1       1.238   2.178  19.865  0.00  0.00    +0.000 C 
ATOM      6  C   UNL     1       1.167   2.663  18.424  0.00  0.00    +0.000 C 
ATOM      7  C   UNL     1       2.089   3.860  18.191  0.00  0.00    +0.000 C 
ATOM      8  C   UNL     1       1.621   5.082  19.033  0.00  0.00    +0.000 C 
ATOM      9  N   UNL     1       2.136   5.172  20.393  0.00  0.00    +0.000 NA
ATOM     10  C   UNL     1       2.276   4.020  21.267  0.00  0.00    +0.000 C 
ENDROOT
BRANCH   1  11
ATOM     11  C   UNL     1       4.589   4.113  17.794  0.00  0.00    +0.000 C 
BRANCH  11  15
ATOM     12  C   UNL     1       7.390   4.500  16.940  0.00  0.00    +0.000 C 
ATOM     13  N   UNL     1       6.843   5.167  18.112  0.00  0.00    +0.000 N 
ATOM     14  C   UNL     1       7.719   6.117  18.780  0.00  0.00    +0.000 C 
ATOM     15  C   UNL     1       5.558   4.967  18.641  0.00  0.00    +0.000 C 
ATOM     16  O   UNL     1       5.229   5.446  19.727  0.00  0.00    +0.000 OA
ENDBRANCH  11  15
ENDBRANCH   1  11
BRANCH   9  17
ATOM     17  C   UNL     1       2.028   6.469  21.046  0.00  0.00    +0.000 C 
BRANCH  17  18
ATOM     18  C   UNL     1       1.978   7.555  19.985  0.00  0.00    +0.000 A 
ATOM     19  C   UNL     1       2.749   7.371  18.819  0.00  0.00    +0.000 A 
ATOM     20  C   UNL     1       2.648   8.247  17.743  0.00  0.00    +0.000 A 
ATOM     21  C   UNL     1       1.789   9.338  17.822  0.00  0.00    +0.000 A 
ATOM     22  C   UNL     1       1.040   9.555  18.981  0.00  0.00    +0.000 A 
ATOM     23  C   UNL     1       1.128   8.671  20.065  0.00  0.00    +0.000 A 
BRANCH  23  24
ATOM     24  C   UNL     1       0.307   8.914  21.214  0.00  0.00    +0.000 C 
ATOM     25  N   UNL     1      -0.368   9.111  22.144  0.00  0.00    +0.000 NA
ENDBRANCH  23  24
ENDBRANCH  17  18
ENDBRANCH   9  17
TORSDOF 5
ENDMDL
MODEL 6
REMARK VINA RESULT:      -7.0      1.080      1.133
REMARK  Name = 
REMARK  7 active torsions:
REMARK  status: ('A' for Active; 'I' for Inactive)
REMARK    1  A    between atoms: C_1  and  N_2
REMARK    2  A    between atoms: N_2  and  C_3
REMARK    3  A    between atoms: C_4  and  C_6
REMARK    4  A    between atoms: C_6  and  N_7
REMARK    5  A    between atoms: N_15  and  C_16
REMARK    6  A    between atoms: C_16  and  C_17
REMARK    7  A    between atoms: C_22  and  C_23
REMARK                            x       y       z     vdW  Elec       q    Type
REMARK                         _______ _______ _______ _____ _____    ______ ____
ROOT
ATOM      1  N   UNL     1       2.074   5.575  19.439  0.00  0.00    +0.000 N 
ATOM      2  C   UNL     1       1.562   5.200  18.201  0.00  0.00    +0.000 C 
ATOM      3  O   UNL     1       1.252   5.997  17.320  0.00  0.00    +0.000 OA
ATOM      4  C   UNL     1       1.582   3.692  17.951  0.00  0.00    +0.000 C 
ATOM      5  C   UNL     1       1.029   2.866  19.113  0.00  0.00    +0.000 C 
ATOM      6  C   UNL     1       1.308   3.497  20.470  0.00  0.00    +0.000 C 
ATOM      7  C   UNL     1       2.444   4.517  20.388  0.00  0.00    +0.000 C 
ATOM      8  C   UNL     1       3.780   3.817  20.007  0.00  0.00    +0.000 C 
ATOM      9  N   UNL     1       4.052   3.662  18.584  0.00  0.00    +0.000 NA
ATOM     10  C   UNL     1       3.032   3.296  17.616  0.00  0.00    +0.000 C 
ENDROOT
BRANCH   1  11
ATOM     11  C   UNL     1       2.596   6.936  19.613  0.00  0.00    +0.000 C 
BRANCH  11  15
ATOM     12  C   UNL     1       1.883   9.347  18.064  0.00  0.00    +0.000 C 
ATOM     13  N   UNL     1       1.289   9.061  19.361  0.00  0.00    +0.000 N 
ATOM     14  C   UNL     1       0.246   9.972  19.807  0.00  0.00    +0.000 C 
ATOM     15  C   UNL     1       1.639   7.994  20.204  0.00  0.00    +0.000 C 
ATOM     16  O   UNL     1       1.206   7.915  21.354  0.00  0.00    +0.000 OA
ENDBRANCH  11  15
ENDBRANCH   1  11
BRANCH   9  17
ATOM     17  C   UNL     1       5.429   3.373  18.211  0.00  0.00    +0.000 C 
BRANCH  17  18
ATOM     18  C   UNL     1       6.185   4.681  18.052  0.00  0.00    +0.000 A 
ATOM     19  C   UNL     1       6.817   5.219  19.191  0.00  0.00    +0.000 A 
ATOM     20  C   UNL     1       7.644   6.333  19.097  0.00  0.00    +0.000 A 
ATOM     21  C   UNL     1       7.836   6.946  17.863  0.00  0.00    +0.000 A 
ATOM     22  C   UNL     1       7.194   6.447  16.728  0.00  0.00    +0.000 A 
ATOM     23  C   UNL     1       6.368   5.318  16.812  0.00  0.00    +0.000 A 
BRANCH  23  24
ATOM     24  C   UNL     1       5.765   4.819  15.611  0.00  0.00    +0.000 C 
ATOM     25  N   UNL     1       5.271   4.422  14.633  0.00  0.00    +0.000 NA
ENDBRANCH  23  24
ENDBRANCH  17  18
ENDBRANCH   9  17
TORSDOF 5
ENDMDL
MODEL 7
REMARK VINA RESULT:      -7.0      1.277      2.121
REMARK  Name = 
REMARK  7 active torsions:
REMARK  status: ('A' for Active; 'I' for Inactive)
REMARK    1  A    between atoms: C_1  and  N_2
REMARK    2  A    between atoms: N_2  and  C_3
REMARK    3  A    between atoms: C_4  and  C_6
REMARK    4  A    between atoms: C_6  and  N_7
REMARK    5  A    between atoms: N_15  and  C_16
REMARK    6  A    between atoms: C_16  and  C_17
REMARK    7  A    between atoms: C_22  and  C_23
REMARK                            x       y       z     vdW  Elec       q    Type
REMARK                         _______ _______ _______ _____ _____    ______ ____
ROOT
ATOM      1  N   UNL     1       1.920   5.255  19.248  0.00  0.00    +0.000 N 
ATOM      2  C   UNL     1       1.405   4.365  18.311  0.00  0.00    +0.000 C 
ATOM      3  O   UNL     1       0.881   4.712  17.255  0.00  0.00    +0.000 OA
ATOM      4  C   UNL     1       1.705   2.898  18.616  0.00  0.00    +0.000 C 
ATOM      5  C   UNL     1       1.413   2.495  20.062  0.00  0.00    +0.000 C 
ATOM      6  C   UNL     1       1.658   3.628  21.050  0.00  0.00    +0.000 C 
ATOM      7  C   UNL     1       2.560   4.707  20.450  0.00  0.00    +0.000 C 
ATOM      8  C   UNL     1       3.977   4.134  20.161  0.00  0.00    +0.000 C 
ATOM      9  N   UNL     1       4.171   3.498  18.863  0.00  0.00    +0.000 NA
ATOM     10  C   UNL     1       3.177   2.639  18.244  0.00  0.00    +0.000 C 
ENDROOT
BRANCH   1  11
ATOM     11  C   UNL     1       2.173   6.645  18.848  0.00  0.00    +0.000 C 
BRANCH  11  15
ATOM     12  C   UNL     1       1.836   9.408  17.863  0.00  0.00    +0.000 C 
ATOM     13  N   UNL     1       1.455   9.020  19.213  0.00  0.00    +0.000 N 
ATOM     14  C   UNL     1       0.801  10.041  20.016  0.00  0.00    +0.000 C 
ATOM     15  C   UNL     1       1.667   7.759  19.791  0.00  0.00    +0.000 C 
ATOM     16  O   UNL     1       1.465   7.559  20.989  0.00  0.00    +0.000 OA
ENDBRANCH  11  15
ENDBRANCH   1  11
BRANCH   9  17
ATOM     17  C   UNL     1       5.549   3.310  18.430  0.00  0.00    +0.000 C 
BRANCH  17  18
ATOM     18  C   UNL     1       5.965   4.497  17.576  0.00  0.00    +0.000 A 
ATOM     19  C   UNL     1       5.385   4.624  16.299  0.00  0.00    +0.000 A 
ATOM     20  C   UNL     1       5.605   5.754  15.517  0.00  0.00    +0.000 A 
ATOM     21  C   UNL     1       6.429   6.769  15.991  0.00  0.00    +0.000 A 
ATOM     22  C   UNL     1       7.038   6.647  17.242  0.00  0.00    +0.000 A 
ATOM     23  C   UNL     1       6.813   5.517  18.040  0.00  0.00    +0.000 A 
BRANCH  23  24
ATOM     24  C   UNL     1       7.427   5.460  19.333  0.00  0.00    +0.000 C 
ATOM     25  N   UNL     1       7.919   5.411  20.389  0.00  0.00    +0.000 NA
ENDBRANCH  23  24
ENDBRANCH  17  18
ENDBRANCH   9  17
TORSDOF 5
ENDMDL
MODEL 8
REMARK VINA RESULT:      -6.9      2.007      5.482
REMARK  Name = 
REMARK  7 active torsions:
REMARK  status: ('A' for Active; 'I' for Inactive)
REMARK    1  A    between atoms: C_1  and  N_2
REMARK    2  A    between atoms: N_2  and  C_3
REMARK    3  A    between atoms: C_4  and  C_6
REMARK    4  A    between atoms: C_6  and  N_7
REMARK    5  A    between atoms: N_15  and  C_16
REMARK    6  A    between atoms: C_16  and  C_17
REMARK    7  A    between atoms: C_22  and  C_23
REMARK                            x       y       z     vdW  Elec       q    Type
REMARK                         _______ _______ _______ _____ _____    ______ ____
ROOT
ATOM      1  N   UNL     1       3.177   2.991  18.661  0.00  0.00    +0.000 N 
ATOM      2  C   UNL     1       3.224   2.806  20.039  0.00  0.00    +0.000 C 
ATOM      3  O   UNL     1       4.176   2.302  20.629  0.00  0.00    +0.000 OA
ATOM      4  C   UNL     1       2.061   3.449  20.793  0.00  0.00    +0.000 C 
ATOM      5  C   UNL     1       0.689   3.148  20.185  0.00  0.00    +0.000 C 
ATOM      6  C   UNL     1       0.735   3.006  18.670  0.00  0.00    +0.000 C 
ATOM      7  C   UNL     1       1.995   3.646  18.087  0.00  0.00    +0.000 C 
ATOM      8  C   UNL     1       1.990   5.183  18.330  0.00  0.00    +0.000 C 
ATOM      9  N   UNL     1       2.552   5.645  19.594  0.00  0.00    +0.000 NA
ATOM     10  C   UNL     1       2.330   4.964  20.857  0.00  0.00    +0.000 C 
ENDROOT
BRANCH   1  11
ATOM     11  C   UNL     1       4.422   2.909  17.887  0.00  0.00    +0.000 C 
BRANCH  11  15
ATOM     12  C   UNL     1       5.999   5.062  19.152  0.00  0.00    +0.000 C 
ATOM     13  N   UNL     1       5.661   5.084  17.737  0.00  0.00    +0.000 N 
ATOM     14  C   UNL     1       6.231   6.171  16.956  0.00  0.00    +0.000 C 
ATOM     15  C   UNL     1       4.839   4.156  17.078  0.00  0.00    +0.000 C 
ATOM     16  O   UNL     1       4.470   4.336  15.917  0.00  0.00    +0.000 OA
ENDBRANCH  11  15
ENDBRANCH   1  11
BRANCH   9  17
ATOM     17  C   UNL     1       2.904   7.056  19.673  0.00  0.00    +0.000 C 
BRANCH  17  18
ATOM     18  C   UNL     1       1.679   7.849  20.098  0.00  0.00    +0.000 A 
ATOM     19  C   UNL     1       1.022   7.458  21.282  0.00  0.00    +0.000 A 
ATOM     20  C   UNL     1      -0.016   8.218  21.812  0.00  0.00    +0.000 A 
ATOM     21  C   UNL     1      -0.432   9.371  21.155  0.00  0.00    +0.000 A 
ATOM     22  C   UNL     1       0.187   9.758  19.964  0.00  0.00    +0.000 A 
ATOM     23  C   UNL     1       1.241   9.004  19.429  0.00  0.00    +0.000 A 
BRANCH  23  24
ATOM     24  C   UNL     1       1.870   9.465  18.227  0.00  0.00    +0.000 C 
ATOM     25  N   UNL     1       2.379   9.850  17.251  0.00  0.00    +0.000 NA
ENDBRANCH  23  24
ENDBRANCH  17  18
ENDBRANCH   9  17
TORSDOF 5
ENDMDL
MODEL 9
REMARK VINA RESULT:      -6.9      2.982      6.637
REMARK  Name = 
REMARK  7 active torsions:
REMARK  status: ('A' for Active; 'I' for Inactive)
REMARK    1  A    between atoms: C_1  and  N_2
REMARK    2  A    between atoms: N_2  and  C_3
REMARK    3  A    between atoms: C_4  and  C_6
REMARK    4  A    between atoms: C_6  and  N_7
REMARK    5  A    between atoms: N_15  and  C_16
REMARK    6  A    between atoms: C_16  and  C_17
REMARK    7  A    between atoms: C_22  and  C_23
REMARK                            x       y       z     vdW  Elec       q    Type
REMARK                         _______ _______ _______ _____ _____    ______ ____
ROOT
ATOM      1  N   UNL     1       6.690   5.472  16.005  0.00  0.00    +0.000 N 
ATOM      2  C   UNL     1       5.640   6.380  15.906  0.00  0.00    +0.000 C 
ATOM      3  O   UNL     1       5.217   6.821  14.841  0.00  0.00    +0.000 OA
ATOM      4  C   UNL     1       4.928   6.653  17.230  0.00  0.00    +0.000 C 
ATOM      5  C   UNL     1       5.876   6.944  18.394  0.00  0.00    +0.000 C 
ATOM      6  C   UNL     1       7.190   6.184  18.287  0.00  0.00    +0.000 C 
ATOM      7  C   UNL     1       7.070   4.990  17.339  0.00  0.00    +0.000 C 
ATOM      8  C   UNL     1       6.064   3.945  17.903  0.00  0.00    +0.000 C 
ATOM      9  N   UNL     1       4.661   4.138  17.557  0.00  0.00    +0.000 NA
ATOM     10  C   UNL     1       4.023   5.442  17.528  0.00  0.00    +0.000 C 
ENDROOT
BRANCH   1  11
ATOM     11  C   UNL     1       7.108   4.731  14.808  0.00  0.00    +0.000 C 
BRANCH  11  15
ATOM     12  C   UNL     1       7.347   4.351  11.890  0.00  0.00    +0.000 C 
ATOM     13  N   UNL     1       6.257   3.766  12.657  0.00  0.00    +0.000 N 
ATOM     14  C   UNL     1       5.349   2.895  11.925  0.00  0.00    +0.000 C 
ATOM     15  C   UNL     1       6.015   3.974  14.023  0.00  0.00    +0.000 C 
ATOM     16  O   UNL     1       4.981   3.576  14.561  0.00  0.00    +0.000 OA
ENDBRANCH  11  15
ENDBRANCH   1  11
BRANCH   9  17
ATOM     17  C   UNL     1       3.782   2.992  17.741  0.00  0.00    +0.000 C 
BRANCH  17  18
ATOM     18  C   UNL     1       2.928   3.215  18.978  0.00  0.00    +0.000 A 
ATOM     19  C   UNL     1       1.723   3.929  18.824  0.00  0.00    +0.000 A 
ATOM     20  C   UNL     1       0.820   4.052  19.876  0.00  0.00    +0.000 A 
ATOM     21  C   UNL     1       1.118   3.481  21.109  0.00  0.00    +0.000 A 
ATOM     22  C   UNL     1       2.321   2.796  21.289  0.00  0.00    +0.000 A 
ATOM     23  C   UNL     1       3.231   2.659  20.232  0.00  0.00    +0.000 A 
BRANCH  23  24
ATOM     24  C   UNL     1       4.433   1.911  20.456  0.00  0.00    +0.000 C 
ATOM     25  N   UNL     1       5.414   1.305  20.629  0.00  0.00    +0.000 NA
ENDBRANCH  23  24
ENDBRANCH  17  18
ENDBRANCH   9  17
TORSDOF 5
ENDMDL
