MODEL 1
REMARK VINA RESULT:      -6.9      0.000      0.000
REMARK  Name = 
REMARK  6 active torsions:
REMARK  status: ('A' for Active; 'I' for Inactive)
REMARK    1  A    between atoms: C_1  and  C_2
REMARK    2  A    between atoms: C_2  and  S_3
REMARK    3  A    between atoms: S_3  and  N_6
REMARK    4  A    between atoms: C_10  and  S_11
REMARK    5  A    between atoms: S_11  and  C_12
REMARK    6  A    between atoms: C_12  and  C_13
REMARK                            x       y       z     vdW  Elec       q    Type
REMARK                         _______ _______ _______ _____ _____    ______ ____
ROOT
ATOM      1  N   UNL     1       6.237   5.476  17.077  0.00  0.00    +0.000 N 
ATOM      2  C   UNL     1       7.329   4.767  17.759  0.00  0.00    +0.000 C 
ATOM      3  C   UNL     1       7.054   5.167  19.206  0.00  0.00    +0.000 C 
ATOM      4  N   UNL     1       5.666   5.684  19.262  0.00  0.00    +0.000 NA
ATOM      5  C   UNL     1       5.295   5.872  18.033  0.00  0.00    +0.000 C 
ENDROOT
BRANCH   1   6
ATOM      6  S   UNL     1       6.314   5.625  15.429  0.00  0.00    +0.000 S 
ATOM      7  O   UNL     1       7.688   5.585  14.977  0.00  0.00    +0.000 OA
ATOM      8  O   UNL     1       5.447   6.721  15.054  0.00  0.00    +0.000 OA
BRANCH   6  10
ATOM      9  C   UNL     1       5.952   3.749  13.454  0.00  0.00    +0.000 C 
ATOM     10  C   UNL     1       5.534   4.105  14.869  0.00  0.00    +0.000 C 
ENDBRANCH   6  10
ENDBRANCH   1   6
BRANCH   5  11
ATOM     11  S   UNL     1       3.802   6.658  17.725  0.00  0.00    +0.000 S 
BRANCH  11  12
ATOM     12  C   UNL     1       2.824   6.362  19.204  0.00  0.00    +0.000 C 
BRANCH  12  13
ATOM     13  C   UNL     1       2.169   5.019  19.435  0.00  0.00    +0.000 A 
ATOM     14  C   UNL     1       1.753   4.550  20.687  0.00  0.00    +0.000 A 
ATOM     15  C   UNL     1       1.101   3.317  20.804  0.00  0.00    +0.000 A 
ATOM     16  C   UNL     1       0.829   2.548  19.672  0.00  0.00    +0.000 A 
ATOM     17  C   UNL     1       1.198   3.019  18.417  0.00  0.00    +0.000 A 
ATOM     18  C   UNL     1       1.856   4.244  18.301  0.00  0.00    +0.000 A 
ENDBRANCH  12  13
ENDBRANCH  11  12
ENDBRANCH   5  11
TORSDOF 5
ENDMDL
MODEL 2
REMARK VINA RESULT:      -6.9      0.148      1.142
REMARK  Name = 
REMARK  6 active torsions:
REMARK  status: ('A' for Active; 'I' for Inactive)
REMARK    1  A    between atoms: C_1  and  C_2
REMARK    2  A    between atoms: C_2  and  S_3
REMARK    3  A    between atoms: S_3  and  N_6
REMARK    4  A    between atoms: C_10  and  S_11
REMARK    5  A    between atoms: S_11  and  C_12
REMARK    6  A    between atoms: C_12  and  C_13
REMARK                            x       y       z     vdW  Elec       q    Type
REMARK                         _______ _______ _______ _____ _____    ______ ____
ROOT
ATOM      1  N   UNL     1       6.347   5.439  17.099  0.00  0.00    +0.000 N 
ATOM      2  C   UNL     1       7.469   4.794  17.793  0.00  0.00    +0.000 C 
ATOM      3  C   UNL     1       7.194   5.233  19.229  0.00  0.00    +0.000 C 
ATOM      4  N   UNL     1       5.788   5.701  19.282  0.00  0.00    +0.000 NA
ATOM      5  C   UNL     1       5.399   5.833  18.051  0.00  0.00    +0.000 C 
ENDROOT
BRANCH   1   6
ATOM      6  S   UNL     1       6.402   5.534  15.446  0.00  0.00    +0.000 S 
ATOM      7  O   UNL     1       7.772   5.549  14.982  0.00  0.00    +0.000 OA
ATOM      8  O   UNL     1       5.478   6.572  15.042  0.00  0.00    +0.000 OA
BRANCH   6  10
ATOM      9  C   UNL     1       5.853   3.722  13.455  0.00  0.00    +0.000 C 
ATOM     10  C   UNL     1       5.696   3.959  14.946  0.00  0.00    +0.000 C 
ENDBRANCH   6  10
ENDBRANCH   1   6
BRANCH   5  11
ATOM     11  S   UNL     1       3.875   6.553  17.733  0.00  0.00    +0.000 S 
BRANCH  11  12
ATOM     12  C   UNL     1       2.912   6.241  19.218  0.00  0.00    +0.000 C 
BRANCH  12  13
ATOM     13  C   UNL     1       2.140   4.951  19.375  0.00  0.00    +0.000 A 
ATOM     14  C   UNL     1       1.769   4.119  18.311  0.00  0.00    +0.000 A 
ATOM     15  C   UNL     1       1.105   2.911  18.551  0.00  0.00    +0.000 A 
ATOM     16  C   UNL     1       0.828   2.500  19.856  0.00  0.00    +0.000 A 
ATOM     17  C   UNL     1       1.227   3.294  20.925  0.00  0.00    +0.000 A 
ATOM     18  C   UNL     1       1.881   4.503  20.686  0.00  0.00    +0.000 A 
ENDBRANCH  12  13
ENDBRANCH  11  12
ENDBRANCH   5  11
TORSDOF 5
ENDMDL
MODEL 3
REMARK VINA RESULT:      -6.5      1.580      2.045
REMARK  Name = 
REMARK  6 active torsions:
REMARK  status: ('A' for Active; 'I' for Inactive)
REMARK    1  A    between atoms: C_1  and  C_2
REMARK    2  A    between atoms: C_2  and  S_3
REMARK    3  A    between atoms: S_3  and  N_6
REMARK    4  A    between atoms: C_10  and  S_11
REMARK    5  A    between atoms: S_11  and  C_12
REMARK    6  A    between atoms: C_12  and  C_13
REMARK                            x       y       z     vdW  Elec       q    Type
REMARK                         _______ _______ _______ _____ _____    ______ ____
ROOT
ATOM      1  N   UNL     1       6.454   4.904  16.654  0.00  0.00    +0.000 N 
ATOM      2  C   UNL     1       7.607   5.246  17.498  0.00  0.00    +0.000 C 
ATOM      3  C   UNL     1       6.982   5.115  18.885  0.00  0.00    +0.000 C 
ATOM      4  N   UNL     1       5.727   4.340  18.728  0.00  0.00    +0.000 NA
ATOM      5  C   UNL     1       5.476   4.303  17.456  0.00  0.00    +0.000 C 
ENDROOT
BRANCH   1   6
ATOM      6  S   UNL     1       6.544   5.239  15.035  0.00  0.00    +0.000 S 
ATOM      7  O   UNL     1       7.896   5.596  14.663  0.00  0.00    +0.000 OA
ATOM      8  O   UNL     1       5.438   6.114  14.712  0.00  0.00    +0.000 OA
BRANCH   6  10
ATOM      9  C   UNL     1       6.171   3.720  12.776  0.00  0.00    +0.000 C 
ATOM     10  C   UNL     1       6.202   3.639  14.291  0.00  0.00    +0.000 C 
ENDBRANCH   6  10
ENDBRANCH   1   6
BRANCH   5  11
ATOM     11  S   UNL     1       3.981   3.653  16.922  0.00  0.00    +0.000 S 
BRANCH  11  12
ATOM     12  C   UNL     1       3.612   2.347  18.101  0.00  0.00    +0.000 C 
BRANCH  12  13
ATOM     13  C   UNL     1       2.734   2.622  19.301  0.00  0.00    +0.000 A 
ATOM     14  C   UNL     1       1.373   2.942  19.225  0.00  0.00    +0.000 A 
ATOM     15  C   UNL     1       0.619   3.124  20.390  0.00  0.00    +0.000 A 
ATOM     16  C   UNL     1       1.204   2.962  21.646  0.00  0.00    +0.000 A 
ATOM     17  C   UNL     1       2.544   2.604  21.739  0.00  0.00    +0.000 A 
ATOM     18  C   UNL     1       3.298   2.430  20.578  0.00  0.00    +0.000 A 
ENDBRANCH  12  13
ENDBRANCH  11  12
ENDBRANCH   5  11
TORSDOF 5
ENDMDL
MODEL 4
REMARK VINA RESULT:      -6.5      2.001      3.235
REMARK  Name = 
REMARK  6 active torsions:
REMARK  status: ('A' for Active; 'I' for Inactive)
REMARK    1  A    between atoms: C_1  and  C_2
REMARK    2  A    between atoms: C_2  and  S_3
REMARK    3  A    between atoms: S_3  and  N_6
REMARK    4  A    between atoms: C_10  and  S_11
REMARK    5  A    between atoms: S_11  and  C_12
REMARK    6  A    between atoms: C_12  and  C_13
REMARK                            x       y       z     vdW  Elec       q    Type
REMARK                         _______ _______ _______ _____ _____    ______ ____
ROOT
ATOM      1  N   UNL     1       6.064   5.282  17.398  0.00  0.00    +0.000 N 
ATOM      2  C   UNL     1       7.480   5.591  17.640  0.00  0.00    +0.000 C 
ATOM      3  C   UNL     1       7.470   5.757  19.157  0.00  0.00    +0.000 C 
ATOM      4  N   UNL     1       6.216   5.143  19.657  0.00  0.00    +0.000 NA
ATOM      5  C   UNL     1       5.464   4.947  18.617  0.00  0.00    +0.000 C 
ENDROOT
BRANCH   1   6
ATOM      6  S   UNL     1       5.506   5.352  15.840  0.00  0.00    +0.000 S 
ATOM      7  O   UNL     1       5.179   6.714  15.477  0.00  0.00    +0.000 OA
ATOM      8  O   UNL     1       4.531   4.295  15.682  0.00  0.00    +0.000 OA
BRANCH   6  10
ATOM      9  C   UNL     1       6.595   4.056  13.676  0.00  0.00    +0.000 C 
ATOM     10  C   UNL     1       6.960   4.892  14.889  0.00  0.00    +0.000 C 
ENDBRANCH   6  10
ENDBRANCH   1   6
BRANCH   5  11
ATOM     11  S   UNL     1       3.846   4.429  18.847  0.00  0.00    +0.000 S 
BRANCH  11  12
ATOM     12  C   UNL     1       3.144   5.636  19.980  0.00  0.00    +0.000 C 
BRANCH  12  13
ATOM     13  C   UNL     1       2.597   6.946  19.463  0.00  0.00    +0.000 A 
ATOM     14  C   UNL     1       2.745   7.397  18.145  0.00  0.00    +0.000 A 
ATOM     15  C   UNL     1       2.155   8.598  17.734  0.00  0.00    +0.000 A 
ATOM     16  C   UNL     1       1.387   9.352  18.622  0.00  0.00    +0.000 A 
ATOM     17  C   UNL     1       1.195   8.897  19.922  0.00  0.00    +0.000 A 
ATOM     18  C   UNL     1       1.790   7.704  20.334  0.00  0.00    +0.000 A 
ENDBRANCH  12  13
ENDBRANCH  11  12
ENDBRANCH   5  11
TORSDOF 5
ENDMDL
MODEL 5
REMARK VINA RESULT:      -6.5      1.670      2.414
REMARK  Name = 
REMARK  6 active torsions:
REMARK  status: ('A' for Active; 'I' for Inactive)
REMARK    1  A    between atoms: C_1  and  C_2
REMARK    2  A    between atoms: C_2  and  S_3
REMARK    3  A    between atoms: S_3  and  N_6
REMARK    4  A    between atoms: C_10  and  S_11
REMARK    5  A    between atoms: S_11  and  C_12
REMARK    6  A    between atoms: C_12  and  C_13
REMARK                            x       y       z     vdW  Elec       q    Type
REMARK                         _______ _______ _______ _____ _____    ______ ____
ROOT
ATOM      1  N   UNL     1       5.833   5.771  16.741  0.00  0.00    +0.000 N 
ATOM      2  C   UNL     1       5.155   6.802  15.944  0.00  0.00    +0.000 C 
ATOM      3  C   UNL     1       3.949   7.089  16.835  0.00  0.00    +0.000 C 
ATOM      4  N   UNL     1       4.255   6.541  18.178  0.00  0.00    +0.000 NA
ATOM      5  C   UNL     1       5.297   5.780  18.035  0.00  0.00    +0.000 C 
ENDROOT
BRANCH   1   6
ATOM      6  S   UNL     1       7.034   4.890  16.018  0.00  0.00    +0.000 S 
ATOM      7  O   UNL     1       7.867   4.249  17.013  0.00  0.00    +0.000 OA
ATOM      8  O   UNL     1       7.624   5.722  14.992  0.00  0.00    +0.000 OA
BRANCH   6  10
ATOM      9  C   UNL     1       6.011   3.834  13.697  0.00  0.00    +0.000 C 
ATOM     10  C   UNL     1       6.111   3.588  15.191  0.00  0.00    +0.000 C 
ENDBRANCH   6  10
ENDBRANCH   1   6
BRANCH   5  11
ATOM     11  S   UNL     1       5.813   4.819  19.357  0.00  0.00    +0.000 S 
BRANCH  11  12
ATOM     12  C   UNL     1       4.883   3.290  19.193  0.00  0.00    +0.000 C 
BRANCH  12  13
ATOM     13  C   UNL     1       3.381   3.283  19.364  0.00  0.00    +0.000 A 
ATOM     14  C   UNL     1       2.467   3.342  18.305  0.00  0.00    +0.000 A 
ATOM     15  C   UNL     1       1.090   3.271  18.549  0.00  0.00    +0.000 A 
ATOM     16  C   UNL     1       0.607   3.113  19.848  0.00  0.00    +0.000 A 
ATOM     17  C   UNL     1       1.503   3.011  20.906  0.00  0.00    +0.000 A 
ATOM     18  C   UNL     1       2.875   3.089  20.664  0.00  0.00    +0.000 A 
ENDBRANCH  12  13
ENDBRANCH  11  12
ENDBRANCH   5  11
TORSDOF 5
ENDMDL
MODEL 6
REMARK VINA RESULT:      -6.5      3.044      6.731
REMARK  Name = 
REMARK  6 active torsions:
REMARK  status: ('A' for Active; 'I' for Inactive)
REMARK    1  A    between atoms: C_1  and  C_2
REMARK    2  A    between atoms: C_2  and  S_3
REMARK    3  A    between atoms: S_3  and  N_6
REMARK    4  A    between atoms: C_10  and  S_11
REMARK    5  A    between atoms: S_11  and  C_12
REMARK    6  A    between atoms: C_12  and  C_13
REMARK                            x       y       z     vdW  Elec       q    Type
REMARK                         _______ _______ _______ _____ _____    ______ ____
ROOT
ATOM      1  N   UNL     1       3.363   4.292  19.096  0.00  0.00    +0.000 N 
ATOM      2  C   UNL     1       2.641   5.407  19.724  0.00  0.00    +0.000 C 
ATOM      3  C   UNL     1       3.132   6.571  18.867  0.00  0.00    +0.000 C 
ATOM      4  N   UNL     1       3.717   5.990  17.634  0.00  0.00    +0.000 NA
ATOM      5  C   UNL     1       3.855   4.719  17.857  0.00  0.00    +0.000 C 
ENDROOT
BRANCH   1   6
ATOM      6  S   UNL     1       3.418   2.846  19.901  0.00  0.00    +0.000 S 
ATOM      7  O   UNL     1       4.787   2.474  20.188  0.00  0.00    +0.000 OA
ATOM      8  O   UNL     1       2.537   1.931  19.208  0.00  0.00    +0.000 OA
BRANCH   6  10
ATOM      9  C   UNL     1       1.281   2.601  21.611  0.00  0.00    +0.000 C 
ATOM     10  C   UNL     1       2.645   3.251  21.473  0.00  0.00    +0.000 C 
ENDBRANCH   6  10
ENDBRANCH   1   6
BRANCH   5  11
ATOM     11  S   UNL     1       4.693   3.759  16.709  0.00  0.00    +0.000 S 
BRANCH  11  12
ATOM     12  C   UNL     1       5.671   4.936  15.767  0.00  0.00    +0.000 C 
BRANCH  12  13
ATOM     13  C   UNL     1       6.197   4.574  14.397  0.00  0.00    +0.000 A 
ATOM     14  C   UNL     1       5.572   3.674  13.525  0.00  0.00    +0.000 A 
ATOM     15  C   UNL     1       6.096   3.439  12.248  0.00  0.00    +0.000 A 
ATOM     16  C   UNL     1       7.234   4.120  11.813  0.00  0.00    +0.000 A 
ATOM     17  C   UNL     1       7.842   5.048  12.650  0.00  0.00    +0.000 A 
ATOM     18  C   UNL     1       7.325   5.276  13.926  0.00  0.00    +0.000 A 
ENDBRANCH  12  13
ENDBRANCH  11  12
ENDBRANCH   5  11
TORSDOF 5
ENDMDL
MODEL 7
REMARK VINA RESULT:      -6.4      3.012      6.510
REMARK  Name = 
REMARK  6 active torsions:
REMARK  status: ('A' for Active; 'I' for Inactive)
REMARK    1  A    between atoms: C_1  and  C_2
REMARK    2  A    between atoms: C_2  and  S_3
REMARK    3  A    between atoms: S_3  and  N_6
REMARK    4  A    between atoms: C_10  and  S_11
REMARK    5  A    between atoms: S_11  and  C_12
REMARK    6  A    between atoms: C_12  and  C_13
REMARK                            x       y       z     vdW  Elec       q    Type
REMARK                         _______ _______ _______ _____ _____    ______ ____
ROOT
ATOM      1  N   UNL     1       3.330   4.487  19.073  0.00  0.00    +0.000 N 
ATOM      2  C   UNL     1       2.503   5.588  19.585  0.00  0.00    +0.000 C 
ATOM      3  C   UNL     1       3.032   6.745  18.741  0.00  0.00    +0.000 C 
ATOM      4  N   UNL     1       3.763   6.153  17.595  0.00  0.00    +0.000 NA
ATOM      5  C   UNL     1       3.929   4.897  17.875  0.00  0.00    +0.000 C 
ENDROOT
BRANCH   1   6
ATOM      6  S   UNL     1       3.361   3.071  19.930  0.00  0.00    +0.000 S 
ATOM      7  O   UNL     1       2.604   3.201  21.157  0.00  0.00    +0.000 OA
ATOM      8  O   UNL     1       4.733   2.611  19.957  0.00  0.00    +0.000 OA
BRANCH   6  10
ATOM      9  C   UNL     1       0.952   2.250  18.895  0.00  0.00    +0.000 C 
ATOM     10  C   UNL     1       2.440   1.955  18.862  0.00  0.00    +0.000 C 
ENDBRANCH   6  10
ENDBRANCH   1   6
BRANCH   5  11
ATOM     11  S   UNL     1       4.918   3.939  16.853  0.00  0.00    +0.000 S 
BRANCH  11  12
ATOM     12  C   UNL     1       5.838   5.132  15.872  0.00  0.00    +0.000 C 
BRANCH  12  13
ATOM     13  C   UNL     1       6.276   4.794  14.465  0.00  0.00    +0.000 A 
ATOM     14  C   UNL     1       7.422   5.312  13.850  0.00  0.00    +0.000 A 
ATOM     15  C   UNL     1       7.786   4.901  12.563  0.00  0.00    +0.000 A 
ATOM     16  C   UNL     1       7.028   3.947  11.882  0.00  0.00    +0.000 A 
ATOM     17  C   UNL     1       5.911   3.392  12.495  0.00  0.00    +0.000 A 
ATOM     18  C   UNL     1       5.543   3.808  13.775  0.00  0.00    +0.000 A 
ENDBRANCH  12  13
ENDBRANCH  11  12
ENDBRANCH   5  11
TORSDOF 5
ENDMDL
MODEL 8
REMARK VINA RESULT:      -6.4      1.750      2.573
REMARK  Name = 
REMARK  6 active torsions:
REMARK  status: ('A' for Active; 'I' for Inactive)
REMARK    1  A    between atoms: C_1  and  C_2
REMARK    2  A    between atoms: C_2  and  S_3
REMARK    3  A    between atoms: S_3  and  N_6
REMARK    4  A    between atoms: C_10  and  S_11
REMARK    5  A    between atoms: S_11  and  C_12
REMARK    6  A    between atoms: C_12  and  C_13
REMARK                            x       y       z     vdW  Elec       q    Type
REMARK                         _______ _______ _______ _____ _____    ______ ____
ROOT
ATOM      1  N   UNL     1       6.397   4.688  17.213  0.00  0.00    +0.000 N 
ATOM      2  C   UNL     1       7.447   5.374  17.980  0.00  0.00    +0.000 C 
ATOM      3  C   UNL     1       6.793   5.422  19.359  0.00  0.00    +0.000 C 
ATOM      4  N   UNL     1       5.683   4.439  19.352  0.00  0.00    +0.000 NA
ATOM      5  C   UNL     1       5.493   4.109  18.112  0.00  0.00    +0.000 C 
ENDROOT
BRANCH   1   6
ATOM      6  S   UNL     1       6.501   4.705  15.561  0.00  0.00    +0.000 S 
ATOM      7  O   UNL     1       6.195   3.399  15.018  0.00  0.00    +0.000 OA
ATOM      8  O   UNL     1       7.735   5.375  15.211  0.00  0.00    +0.000 OA
BRANCH   6  10
ATOM      9  C   UNL     1       5.022   6.967  16.057  0.00  0.00    +0.000 C 
ATOM     10  C   UNL     1       5.147   5.794  15.101  0.00  0.00    +0.000 C 
ENDBRANCH   6  10
ENDBRANCH   1   6
BRANCH   5  11
ATOM     11  S   UNL     1       4.143   3.132  17.708  0.00  0.00    +0.000 S 
BRANCH  11  12
ATOM     12  C   UNL     1       2.798   4.300  17.469  0.00  0.00    +0.000 C 
BRANCH  12  13
ATOM     13  C   UNL     1       2.360   5.208  18.595  0.00  0.00    +0.000 A 
ATOM     14  C   UNL     1       1.907   4.756  19.841  0.00  0.00    +0.000 A 
ATOM     15  C   UNL     1       1.576   5.666  20.851  0.00  0.00    +0.000 A 
ATOM     16  C   UNL     1       1.717   7.039  20.643  0.00  0.00    +0.000 A 
ATOM     17  C   UNL     1       2.205   7.503  19.427  0.00  0.00    +0.000 A 
ATOM     18  C   UNL     1       2.528   6.595  18.417  0.00  0.00    +0.000 A 
ENDBRANCH  12  13
ENDBRANCH  11  12
ENDBRANCH   5  11
TORSDOF 5
ENDMDL
MODEL 9
REMARK VINA RESULT:      -6.4      2.669      6.515
REMARK  Name = 
REMARK  6 active torsions:
REMARK  status: ('A' for Active; 'I' for Inactive)
REMARK    1  A    between atoms: C_1  and  C_2
REMARK    2  A    between atoms: C_2  and  S_3
REMARK    3  A    between atoms: S_3  and  N_6
REMARK    4  A    between atoms: C_10  and  S_11
REMARK    5  A    between atoms: S_11  and  C_12
REMARK    6  A    between atoms: C_12  and  C_13
REMARK                            x       y       z     vdW  Elec       q    Type
REMARK                         _______ _______ _______ _____ _____    ______ ____
ROOT
ATOM      1  N   UNL     1       3.334   4.769  18.338  0.00  0.00    +0.000 N 
ATOM      2  C   UNL     1       2.241   5.743  18.455  0.00  0.00    +0.000 C 
ATOM      3  C   UNL     1       2.994   7.038  18.162  0.00  0.00    +0.000 C 
ATOM      4  N   UNL     1       4.278   6.663  17.521  0.00  0.00    +0.000 NA
ATOM      5  C   UNL     1       4.417   5.385  17.699  0.00  0.00    +0.000 C 
ENDROOT
BRANCH   1   6
ATOM      6  S   UNL     1       3.077   3.236  18.910  0.00  0.00    +0.000 S 
ATOM      7  O   UNL     1       3.993   2.934  19.989  0.00  0.00    +0.000 OA
ATOM      8  O   UNL     1       2.977   2.358  17.764  0.00  0.00    +0.000 OA
BRANCH   6  10
ATOM      9  C   UNL     1       1.465   3.119  21.132  0.00  0.00    +0.000 C 
ATOM     10  C   UNL     1       1.437   3.365  19.635  0.00  0.00    +0.000 C 
ENDBRANCH   6  10
ENDBRANCH   1   6
BRANCH   5  11
ATOM     11  S   UNL     1       5.896   4.640  17.257  0.00  0.00    +0.000 S 
BRANCH  11  12
ATOM     12  C   UNL     1       5.513   3.738  15.750  0.00  0.00    +0.000 C 
BRANCH  12  13
ATOM     13  C   UNL     1       6.177   4.110  14.443  0.00  0.00    +0.000 A 
ATOM     14  C   UNL     1       7.225   5.030  14.326  0.00  0.00    +0.000 A 
ATOM     15  C   UNL     1       7.823   5.274  13.084  0.00  0.00    +0.000 A 
ATOM     16  C   UNL     1       7.402   4.582  11.947  0.00  0.00    +0.000 A 
ATOM     17  C   UNL     1       6.391   3.635  12.054  0.00  0.00    +0.000 A 
ATOM     18  C   UNL     1       5.790   3.398  13.291  0.00  0.00    +0.000 A 
ENDBRANCH  12  13
ENDBRANCH  11  12
ENDBRANCH   5  11
TORSDOF 5
ENDMDL
