MODEL 1
REMARK VINA RESULT:      -7.8      0.000      0.000
REMARK  Name = 
REMARK  6 active torsions:
REMARK  status: ('A' for Active; 'I' for Inactive)
REMARK    1  A    between atoms: C_1  and  C_2
REMARK    2  A    between atoms: C_3  and  C_4
REMARK    3  A    between atoms: N_6  and  C_7
REMARK    4  A    between atoms: N_6  and  C_8
REMARK    5  A    between atoms: C_8  and  C_9
REMARK    6  A    between atoms: C_9  and  C_10
REMARK                            x       y       z     vdW  Elec       q    Type
REMARK                         _______ _______ _______ _____ _____    ______ ____
ROOT
ATOM      1  C   UNL     1       4.139   4.952  17.765  0.00  0.00    +0.000 C 
ATOM      2  O   UNL     1       3.713   4.315  16.800  0.00  0.00    +0.000 OA
ATOM      3  N   UNL     1       5.514   4.887  18.099  0.00  0.00    +0.000 N 
ATOM      4  C   UNL     1       6.077   5.551  19.277  0.00  0.00    +0.000 C 
ENDROOT
BRANCH   1   7
ATOM      5  C   UNL     1       2.624   4.316  20.676  0.00  0.00    +0.000 C 
ATOM      6  C   UNL     1       2.597   5.526  19.814  0.00  0.00    +0.000 A 
ATOM      7  C   UNL     1       3.237   5.766  18.595  0.00  0.00    +0.000 A 
ATOM      8  O   UNL     1       2.875   7.013  18.151  0.00  0.00    +0.000 OA
ATOM      9  C   UNL     1       2.139   7.622  19.114  0.00  0.00    +0.000 A 
ATOM     10  C   UNL     1       1.679   8.938  19.098  0.00  0.00    +0.000 A 
ATOM     11 CL   UNL     1       2.027  10.001  17.799  0.00  0.00    +0.000 Cl
ATOM     12  C   UNL     1       0.951   9.373  20.208  0.00  0.00    +0.000 A 
ATOM     13  C   UNL     1       0.690   8.509  21.275  0.00  0.00    +0.000 A 
ATOM     14  C   UNL     1       1.163   7.188  21.263  0.00  0.00    +0.000 A 
ATOM     15  C   UNL     1       1.917   6.739  20.160  0.00  0.00    +0.000 A 
ENDBRANCH   1   7
BRANCH   3  16
ATOM     16  C   UNL     1       6.480   4.239  17.194  0.00  0.00    +0.000 C 
BRANCH  16  17
ATOM     17  C   UNL     1       7.144   5.228  16.224  0.00  0.00    +0.000 C 
BRANCH  17  18
ATOM     18  C   UNL     1       7.004   4.890  14.760  0.00  0.00    +0.000 A 
ATOM     19  C   UNL     1       6.107   3.919  14.327  0.00  0.00    +0.000 A 
ATOM     20  C   UNL     1       6.095   3.569  12.977  0.00  0.00    +0.000 A 
ATOM     21  C   UNL     1       6.976   4.188  12.098  0.00  0.00    +0.000 A 
ATOM     22  C   UNL     1       7.832   5.147  12.607  0.00  0.00    +0.000 A 
ATOM     23  N   UNL     1       7.859   5.514  13.909  0.00  0.00    +0.000 NA
ENDBRANCH  17  18
ENDBRANCH  16  17
ENDBRANCH   3  16
TORSDOF 4
ENDMDL
MODEL 2
REMARK VINA RESULT:      -7.7      3.145      8.311
REMARK  Name = 
REMARK  6 active torsions:
REMARK  status: ('A' for Active; 'I' for Inactive)
REMARK    1  A    between atoms: C_1  and  C_2
REMARK    2  A    between atoms: C_3  and  C_4
REMARK    3  A    between atoms: N_6  and  C_7
REMARK    4  A    between atoms: N_6  and  C_8
REMARK    5  A    between atoms: C_8  and  C_9
REMARK    6  A    between atoms: C_9  and  C_10
REMARK                            x       y       z     vdW  Elec       q    Type
REMARK                         _______ _______ _______ _____ _____    ______ ____
ROOT
ATOM      1  C   UNL     1       2.520   5.519  20.203  0.00  0.00    +0.000 C 
ATOM      2  O   UNL     1       2.150   4.770  21.109  0.00  0.00    +0.000 OA
ATOM      3  N   UNL     1       1.967   6.819  20.094  0.00  0.00    +0.000 N 
ATOM      4  C   UNL     1       2.298   7.733  18.999  0.00  0.00    +0.000 C 
ENDROOT
BRANCH   1   7
ATOM      5  C   UNL     1       2.195   3.875  17.311  0.00  0.00    +0.000 C 
ATOM      6  C   UNL     1       3.405   4.396  17.998  0.00  0.00    +0.000 A 
ATOM      7  C   UNL     1       3.515   5.078  19.213  0.00  0.00    +0.000 A 
ATOM      8  O   UNL     1       4.843   5.317  19.459  0.00  0.00    +0.000 OA
ATOM      9  C   UNL     1       5.564   4.932  18.377  0.00  0.00    +0.000 A 
ATOM     10  C   UNL     1       6.933   5.113  18.184  0.00  0.00    +0.000 A 
ATOM     11 CL   UNL     1       7.912   5.905  19.348  0.00  0.00    +0.000 Cl
ATOM     12  C   UNL     1       7.475   4.656  16.980  0.00  0.00    +0.000 A 
ATOM     13  C   UNL     1       6.667   4.033  16.024  0.00  0.00    +0.000 A 
ATOM     14  C   UNL     1       5.293   3.861  16.246  0.00  0.00    +0.000 A 
ATOM     15  C   UNL     1       4.726   4.334  17.447  0.00  0.00    +0.000 A 
ENDBRANCH   1   7
BRANCH   3  16
ATOM     16  C   UNL     1       1.111   7.366  21.163  0.00  0.00    +0.000 C 
BRANCH  16  17
ATOM     17  C   UNL     1       1.651   8.683  21.740  0.00  0.00    +0.000 C 
BRANCH  17  18
ATOM     18  C   UNL     1       0.618   9.762  21.963  0.00  0.00    +0.000 A 
ATOM     19  C   UNL     1      -0.216   9.742  23.076  0.00  0.00    +0.000 A 
ATOM     20  C   UNL     1      -1.224  10.700  23.177  0.00  0.00    +0.000 A 
ATOM     21  C   UNL     1      -1.379  11.645  22.169  0.00  0.00    +0.000 A 
ATOM     22  C   UNL     1      -0.504  11.600  21.100  0.00  0.00    +0.000 A 
ATOM     23  N   UNL     1       0.489  10.689  20.980  0.00  0.00    +0.000 NA
ENDBRANCH  17  18
ENDBRANCH  16  17
ENDBRANCH   3  16
TORSDOF 4
ENDMDL
MODEL 3
REMARK VINA RESULT:      -7.6      4.357      6.287
REMARK  Name = 
REMARK  6 active torsions:
REMARK  status: ('A' for Active; 'I' for Inactive)
REMARK    1  A    between atoms: C_1  and  C_2
REMARK    2  A    between atoms: C_3  and  C_4
REMARK    3  A    between atoms: N_6  and  C_7
REMARK    4  A    between atoms: N_6  and  C_8
REMARK    5  A    between atoms: C_8  and  C_9
REMARK    6  A    between atoms: C_9  and  C_10
REMARK                            x       y       z     vdW  Elec       q    Type
REMARK                         _______ _______ _______ _____ _____    ______ ____
ROOT
ATOM      1  C   UNL     1       6.715   5.740  19.003  0.00  0.00    +0.000 C 
ATOM      2  O   UNL     1       7.481   5.448  19.923  0.00  0.00    +0.000 OA
ATOM      3  N   UNL     1       6.966   6.891  18.217  0.00  0.00    +0.000 N 
ATOM      4  C   UNL     1       6.058   7.345  17.161  0.00  0.00    +0.000 C 
ENDROOT
BRANCH   1   7
ATOM      5  C   UNL     1       5.863   3.914  16.337  0.00  0.00    +0.000 C 
ATOM      6  C   UNL     1       5.149   4.148  17.619  0.00  0.00    +0.000 A 
ATOM      7  C   UNL     1       5.525   4.923  18.719  0.00  0.00    +0.000 A 
ATOM      8  O   UNL     1       4.520   4.871  19.651  0.00  0.00    +0.000 OA
ATOM      9  C   UNL     1       3.584   3.982  19.236  0.00  0.00    +0.000 A 
ATOM     10  C   UNL     1       2.465   3.559  19.952  0.00  0.00    +0.000 A 
ATOM     11 CL   UNL     1       2.137   4.130  21.536  0.00  0.00    +0.000 Cl
ATOM     12  C   UNL     1       1.636   2.614  19.343  0.00  0.00    +0.000 A 
ATOM     13  C   UNL     1       1.921   2.134  18.062  0.00  0.00    +0.000 A 
ATOM     14  C   UNL     1       3.053   2.579  17.362  0.00  0.00    +0.000 A 
ATOM     15  C   UNL     1       3.911   3.517  17.971  0.00  0.00    +0.000 A 
ENDBRANCH   1   7
BRANCH   3  16
ATOM     16  C   UNL     1       8.236   7.629  18.345  0.00  0.00    +0.000 C 
BRANCH  16  17
ATOM     17  C   UNL     1       8.134   9.079  17.846  0.00  0.00    +0.000 C 
BRANCH  17  18
ATOM     18  C   UNL     1       9.058  10.061  18.522  0.00  0.00    +0.000 A 
ATOM     19  C   UNL     1       9.116  10.159  19.909  0.00  0.00    +0.000 A 
ATOM     20  C   UNL     1       9.905  11.157  20.479  0.00  0.00    +0.000 A 
ATOM     21  C   UNL     1      10.608  12.032  19.659  0.00  0.00    +0.000 A 
ATOM     22  C   UNL     1      10.502  11.864  18.291  0.00  0.00    +0.000 A 
ATOM     23  N   UNL     1       9.753  10.899  17.709  0.00  0.00    +0.000 NA
ENDBRANCH  17  18
ENDBRANCH  16  17
ENDBRANCH   3  16
TORSDOF 4
ENDMDL
MODEL 4
REMARK VINA RESULT:      -7.6      4.392      6.371
REMARK  Name = 
REMARK  6 active torsions:
REMARK  status: ('A' for Active; 'I' for Inactive)
REMARK    1  A    between atoms: C_1  and  C_2
REMARK    2  A    between atoms: C_3  and  C_4
REMARK    3  A    between atoms: N_6  and  C_7
REMARK    4  A    between atoms: N_6  and  C_8
REMARK    5  A    between atoms: C_8  and  C_9
REMARK    6  A    between atoms: C_9  and  C_10
REMARK                            x       y       z     vdW  Elec       q    Type
REMARK                         _______ _______ _______ _____ _____    ______ ____
ROOT
ATOM      1  C   UNL     1       6.771   5.783  18.982  0.00  0.00    +0.000 C 
ATOM      2  O   UNL     1       7.540   5.502  19.902  0.00  0.00    +0.000 OA
ATOM      3  N   UNL     1       7.009   6.935  18.193  0.00  0.00    +0.000 N 
ATOM      4  C   UNL     1       6.095   7.375  17.136  0.00  0.00    +0.000 C 
ENDROOT
BRANCH   1   7
ATOM      5  C   UNL     1       5.946   3.934  16.323  0.00  0.00    +0.000 C 
ATOM      6  C   UNL     1       5.227   4.166  17.602  0.00  0.00    +0.000 A 
ATOM      7  C   UNL     1       5.591   4.950  18.699  0.00  0.00    +0.000 A 
ATOM      8  O   UNL     1       4.585   4.892  19.629  0.00  0.00    +0.000 OA
ATOM      9  C   UNL     1       3.660   3.990  19.217  0.00  0.00    +0.000 A 
ATOM     10  C   UNL     1       2.545   3.557  19.933  0.00  0.00    +0.000 A 
ATOM     11 CL   UNL     1       2.207   4.133  21.513  0.00  0.00    +0.000 Cl
ATOM     12  C   UNL     1       1.728   2.600  19.326  0.00  0.00    +0.000 A 
ATOM     13  C   UNL     1       2.021   2.116  18.049  0.00  0.00    +0.000 A 
ATOM     14  C   UNL     1       3.149   2.572  17.349  0.00  0.00    +0.000 A 
ATOM     15  C   UNL     1       3.996   3.522  17.955  0.00  0.00    +0.000 A 
ENDBRANCH   1   7
BRANCH   3  16
ATOM     16  C   UNL     1       8.269   7.689  18.319  0.00  0.00    +0.000 C 
BRANCH  16  17
ATOM     17  C   UNL     1       8.142   9.143  17.841  0.00  0.00    +0.000 C 
BRANCH  17  18
ATOM     18  C   UNL     1       9.038  10.135  18.543  0.00  0.00    +0.000 A 
ATOM     19  C   UNL     1       9.976  10.883  17.839  0.00  0.00    +0.000 A 
ATOM     20  C   UNL     1      10.852  11.703  18.551  0.00  0.00    +0.000 A 
ATOM     21  C   UNL     1      10.775  11.752  19.937  0.00  0.00    +0.000 A 
ATOM     22  C   UNL     1       9.811  10.982  20.560  0.00  0.00    +0.000 A 
ATOM     23  N   UNL     1       8.941  10.186  19.897  0.00  0.00    +0.000 NA
ENDBRANCH  17  18
ENDBRANCH  16  17
ENDBRANCH   3  16
TORSDOF 4
ENDMDL
MODEL 5
REMARK VINA RESULT:      -7.6      4.142      6.128
REMARK  Name = 
REMARK  6 active torsions:
REMARK  status: ('A' for Active; 'I' for Inactive)
REMARK    1  A    between atoms: C_1  and  C_2
REMARK    2  A    between atoms: C_3  and  C_4
REMARK    3  A    between atoms: N_6  and  C_7
REMARK    4  A    between atoms: N_6  and  C_8
REMARK    5  A    between atoms: C_8  and  C_9
REMARK    6  A    between atoms: C_9  and  C_10
REMARK                            x       y       z     vdW  Elec       q    Type
REMARK                         _______ _______ _______ _____ _____    ______ ____
ROOT
ATOM      1  C   UNL     1       5.825   6.678  16.973  0.00  0.00    +0.000 C 
ATOM      2  O   UNL     1       5.511   7.412  16.034  0.00  0.00    +0.000 OA
ATOM      3  N   UNL     1       7.015   6.933  17.698  0.00  0.00    +0.000 N 
ATOM      4  C   UNL     1       7.493   6.058  18.771  0.00  0.00    +0.000 C 
ENDROOT
BRANCH   1   7
ATOM      5  C   UNL     1       5.760   3.537  15.831  0.00  0.00    +0.000 C 
ATOM      6  C   UNL     1       4.951   4.202  16.886  0.00  0.00    +0.000 A 
ATOM      7  C   UNL     1       4.994   5.522  17.342  0.00  0.00    +0.000 A 
ATOM      8  O   UNL     1       4.023   5.683  18.298  0.00  0.00    +0.000 OA
ATOM      9  C   UNL     1       3.461   4.477  18.558  0.00  0.00    +0.000 A 
ATOM     10  C   UNL     1       2.518   4.196  19.546  0.00  0.00    +0.000 A 
ATOM     11 CL   UNL     1       1.945   5.406  20.617  0.00  0.00    +0.000 Cl
ATOM     12  C   UNL     1       2.084   2.873  19.657  0.00  0.00    +0.000 A 
ATOM     13  C   UNL     1       2.572   1.886  18.797  0.00  0.00    +0.000 A 
ATOM     14  C   UNL     1       3.519   2.197  17.809  0.00  0.00    +0.000 A 
ATOM     15  C   UNL     1       3.983   3.523  17.696  0.00  0.00    +0.000 A 
ENDBRANCH   1   7
BRANCH   3  16
ATOM     16  C   UNL     1       7.776   8.177  17.485  0.00  0.00    +0.000 C 
BRANCH  16  17
ATOM     17  C   UNL     1       8.652   8.553  18.690  0.00  0.00    +0.000 C 
BRANCH  17  18
ATOM     18  C   UNL     1       8.988  10.019  18.812  0.00  0.00    +0.000 A 
ATOM     19  C   UNL     1       9.536  10.538  19.980  0.00  0.00    +0.000 A 
ATOM     20  C   UNL     1       9.726  11.916  20.079  0.00  0.00    +0.000 A 
ATOM     21  C   UNL     1       9.360  12.739  19.020  0.00  0.00    +0.000 A 
ATOM     22  C   UNL     1       8.826  12.144  17.892  0.00  0.00    +0.000 A 
ATOM     23  N   UNL     1       8.641  10.810  17.763  0.00  0.00    +0.000 NA
ENDBRANCH  17  18
ENDBRANCH  16  17
ENDBRANCH   3  16
TORSDOF 4
ENDMDL
MODEL 6
REMARK VINA RESULT:      -7.6      4.191      6.082
REMARK  Name = 
REMARK  6 active torsions:
REMARK  status: ('A' for Active; 'I' for Inactive)
REMARK    1  A    between atoms: C_1  and  C_2
REMARK    2  A    between atoms: C_3  and  C_4
REMARK    3  A    between atoms: N_6  and  C_7
REMARK    4  A    between atoms: N_6  and  C_8
REMARK    5  A    between atoms: C_8  and  C_9
REMARK    6  A    between atoms: C_9  and  C_10
REMARK                            x       y       z     vdW  Elec       q    Type
REMARK                         _______ _______ _______ _____ _____    ______ ____
ROOT
ATOM      1  C   UNL     1       5.780   6.653  16.942  0.00  0.00    +0.000 C 
ATOM      2  O   UNL     1       5.484   7.372  15.987  0.00  0.00    +0.000 OA
ATOM      3  N   UNL     1       6.961   6.914  17.680  0.00  0.00    +0.000 N 
ATOM      4  C   UNL     1       7.419   6.055  18.775  0.00  0.00    +0.000 C 
ENDROOT
BRANCH   1   7
ATOM      5  C   UNL     1       5.622   3.529  15.766  0.00  0.00    +0.000 C 
ATOM      6  C   UNL     1       4.855   4.196  16.850  0.00  0.00    +0.000 A 
ATOM      7  C   UNL     1       4.937   5.509  17.320  0.00  0.00    +0.000 A 
ATOM      8  O   UNL     1       3.995   5.677  18.304  0.00  0.00    +0.000 OA
ATOM      9  C   UNL     1       3.417   4.479  18.565  0.00  0.00    +0.000 A 
ATOM     10  C   UNL     1       2.496   4.204  19.575  0.00  0.00    +0.000 A 
ATOM     11 CL   UNL     1       1.976   5.412  20.677  0.00  0.00    +0.000 Cl
ATOM     12  C   UNL     1       2.039   2.888  19.683  0.00  0.00    +0.000 A 
ATOM     13  C   UNL     1       2.484   1.903  18.797  0.00  0.00    +0.000 A 
ATOM     14  C   UNL     1       3.409   2.208  17.788  0.00  0.00    +0.000 A 
ATOM     15  C   UNL     1       3.896   3.526  17.678  0.00  0.00    +0.000 A 
ENDBRANCH   1   7
BRANCH   3  16
ATOM     16  C   UNL     1       7.734   8.149  17.455  0.00  0.00    +0.000 C 
BRANCH  16  17
ATOM     17  C   UNL     1       8.557   8.567  18.683  0.00  0.00    +0.000 C 
BRANCH  17  18
ATOM     18  C   UNL     1       8.913  10.032  18.753  0.00  0.00    +0.000 A 
ATOM     19  C   UNL     1       8.513  10.920  17.760  0.00  0.00    +0.000 A 
ATOM     20  C   UNL     1       8.960  12.240  17.818  0.00  0.00    +0.000 A 
ATOM     21  C   UNL     1       9.796  12.638  18.854  0.00  0.00    +0.000 A 
ATOM     22  C   UNL     1      10.144  11.696  19.804  0.00  0.00    +0.000 A 
ATOM     23  N   UNL     1       9.717  10.412  19.780  0.00  0.00    +0.000 NA
ENDBRANCH  17  18
ENDBRANCH  16  17
ENDBRANCH   3  16
TORSDOF 4
ENDMDL
MODEL 7
REMARK VINA RESULT:      -7.6      3.017      8.405
REMARK  Name = 
REMARK  6 active torsions:
REMARK  status: ('A' for Active; 'I' for Inactive)
REMARK    1  A    between atoms: C_1  and  C_2
REMARK    2  A    between atoms: C_3  and  C_4
REMARK    3  A    between atoms: N_6  and  C_7
REMARK    4  A    between atoms: N_6  and  C_8
REMARK    5  A    between atoms: C_8  and  C_9
REMARK    6  A    between atoms: C_9  and  C_10
REMARK                            x       y       z     vdW  Elec       q    Type
REMARK                         _______ _______ _______ _____ _____    ______ ____
ROOT
ATOM      1  C   UNL     1       2.754   6.167  19.546  0.00  0.00    +0.000 C 
ATOM      2  O   UNL     1       2.464   5.525  20.557  0.00  0.00    +0.000 OA
ATOM      3  N   UNL     1       2.213   7.462  19.356  0.00  0.00    +0.000 N 
ATOM      4  C   UNL     1       2.447   8.250  18.144  0.00  0.00    +0.000 C 
ENDROOT
BRANCH   1   7
ATOM      5  C   UNL     1       2.320   3.653  17.386  0.00  0.00    +0.000 C 
ATOM      6  C   UNL     1       3.479   4.558  17.599  0.00  0.00    +0.000 A 
ATOM      7  C   UNL     1       3.638   5.600  18.515  0.00  0.00    +0.000 A 
ATOM      8  O   UNL     1       4.900   6.119  18.369  0.00  0.00    +0.000 OA
ATOM      9  C   UNL     1       5.493   5.531  17.301  0.00  0.00    +0.000 A 
ATOM     10  C   UNL     1       6.731   5.862  16.753  0.00  0.00    +0.000 A 
ATOM     11 CL   UNL     1       7.690   7.133  17.388  0.00  0.00    +0.000 Cl
ATOM     12  C   UNL     1       7.148   5.138  15.632  0.00  0.00    +0.000 A 
ATOM     13  C   UNL     1       6.352   4.119  15.104  0.00  0.00    +0.000 A 
ATOM     14  C   UNL     1       5.110   3.805  15.678  0.00  0.00    +0.000 A 
ATOM     15  C   UNL     1       4.666   4.538  16.796  0.00  0.00    +0.000 A 
ENDBRANCH   1   7
BRANCH   3  16
ATOM     16  C   UNL     1       1.477   8.138  20.440  0.00  0.00    +0.000 C 
BRANCH  16  17
ATOM     17  C   UNL     1       0.839   9.462  19.989  0.00  0.00    +0.000 C 
BRANCH  17  18
ATOM     18  C   UNL     1      -0.040  10.136  21.014  0.00  0.00    +0.000 A 
ATOM     19  C   UNL     1      -0.634  11.367  20.756  0.00  0.00    +0.000 A 
ATOM     20  C   UNL     1      -1.346  11.997  21.777  0.00  0.00    +0.000 A 
ATOM     21  C   UNL     1      -1.444  11.390  23.023  0.00  0.00    +0.000 A 
ATOM     22  C   UNL     1      -0.830  10.163  23.196  0.00  0.00    +0.000 A 
ATOM     23  N   UNL     1      -0.141   9.524  22.223  0.00  0.00    +0.000 NA
ENDBRANCH  17  18
ENDBRANCH  16  17
ENDBRANCH   3  16
TORSDOF 4
ENDMDL
MODEL 8
REMARK VINA RESULT:      -7.6      3.437      7.917
REMARK  Name = 
REMARK  6 active torsions:
REMARK  status: ('A' for Active; 'I' for Inactive)
REMARK    1  A    between atoms: C_1  and  C_2
REMARK    2  A    between atoms: C_3  and  C_4
REMARK    3  A    between atoms: N_6  and  C_7
REMARK    4  A    between atoms: N_6  and  C_8
REMARK    5  A    between atoms: C_8  and  C_9
REMARK    6  A    between atoms: C_9  and  C_10
REMARK                            x       y       z     vdW  Elec       q    Type
REMARK                         _______ _______ _______ _____ _____    ______ ____
ROOT
ATOM      1  C   UNL     1       2.333   6.961  19.410  0.00  0.00    +0.000 C 
ATOM      2  O   UNL     1       1.927   6.518  20.486  0.00  0.00    +0.000 OA
ATOM      3  N   UNL     1       1.904   8.236  18.966  0.00  0.00    +0.000 N 
ATOM      4  C   UNL     1       2.281   8.791  17.664  0.00  0.00    +0.000 C 
ENDROOT
BRANCH   1   7
ATOM      5  C   UNL     1       1.860   4.170  17.633  0.00  0.00    +0.000 C 
ATOM      6  C   UNL     1       3.071   5.013  17.808  0.00  0.00    +0.000 A 
ATOM      7  C   UNL     1       3.245   6.176  18.563  0.00  0.00    +0.000 A 
ATOM      8  O   UNL     1       4.553   6.574  18.453  0.00  0.00    +0.000 OA
ATOM      9  C   UNL     1       5.176   5.782  17.546  0.00  0.00    +0.000 A 
ATOM     10  C   UNL     1       6.477   5.932  17.067  0.00  0.00    +0.000 A 
ATOM     11 CL   UNL     1       7.486   7.219  17.583  0.00  0.00    +0.000 Cl
ATOM     12  C   UNL     1       6.917   5.011  16.113  0.00  0.00    +0.000 A 
ATOM     13  C   UNL     1       6.082   3.979  15.679  0.00  0.00    +0.000 A 
ATOM     14  C   UNL     1       4.778   3.849  16.180  0.00  0.00    +0.000 A 
ATOM     15  C   UNL     1       4.311   4.782  17.127  0.00  0.00    +0.000 A 
ENDBRANCH   1   7
BRANCH   3  16
ATOM     16  C   UNL     1       1.144   9.129  19.860  0.00  0.00    +0.000 C 
BRANCH  16  17
ATOM     17  C   UNL     1       0.826  10.486  19.214  0.00  0.00    +0.000 C 
BRANCH  17  18
ATOM     18  C   UNL     1      -0.623  10.707  18.856  0.00  0.00    +0.000 A 
ATOM     19  C   UNL     1      -1.214  10.031  17.793  0.00  0.00    +0.000 A 
ATOM     20  C   UNL     1      -2.524  10.353  17.437  0.00  0.00    +0.000 A 
ATOM     21  C   UNL     1      -3.206  11.339  18.141  0.00  0.00    +0.000 A 
ATOM     22  C   UNL     1      -2.549  11.959  19.187  0.00  0.00    +0.000 A 
ATOM     23  N   UNL     1      -1.284  11.661  19.562  0.00  0.00    +0.000 NA
ENDBRANCH  17  18
ENDBRANCH  16  17
ENDBRANCH   3  16
TORSDOF 4
ENDMDL
MODEL 9
REMARK VINA RESULT:      -7.6      3.228      8.377
REMARK  Name = 
REMARK  6 active torsions:
REMARK  status: ('A' for Active; 'I' for Inactive)
REMARK    1  A    between atoms: C_1  and  C_2
REMARK    2  A    between atoms: C_3  and  C_4
REMARK    3  A    between atoms: N_6  and  C_7
REMARK    4  A    between atoms: N_6  and  C_8
REMARK    5  A    between atoms: C_8  and  C_9
REMARK    6  A    between atoms: C_9  and  C_10
REMARK                            x       y       z     vdW  Elec       q    Type
REMARK                         _______ _______ _______ _____ _____    ______ ____
ROOT
ATOM      1  C   UNL     1       2.467   5.619  20.246  0.00  0.00    +0.000 C 
ATOM      2  O   UNL     1       2.124   4.879  21.169  0.00  0.00    +0.000 OA
ATOM      3  N   UNL     1       1.914   6.919  20.143  0.00  0.00    +0.000 N 
ATOM      4  C   UNL     1       2.213   7.823  19.030  0.00  0.00    +0.000 C 
ENDROOT
BRANCH   1   7
ATOM      5  C   UNL     1       2.046   3.989  17.359  0.00  0.00    +0.000 C 
ATOM      6  C   UNL     1       3.280   4.491  18.016  0.00  0.00    +0.000 A 
ATOM      7  C   UNL     1       3.431   5.167  19.230  0.00  0.00    +0.000 A 
ATOM      8  O   UNL     1       4.768   5.386  19.443  0.00  0.00    +0.000 OA
ATOM      9  C   UNL     1       5.456   4.994  18.342  0.00  0.00    +0.000 A 
ATOM     10  C   UNL     1       6.822   5.156  18.115  0.00  0.00    +0.000 A 
ATOM     11 CL   UNL     1       7.841   5.931  19.256  0.00  0.00    +0.000 Cl
ATOM     12  C   UNL     1       7.326   4.696  16.896  0.00  0.00    +0.000 A 
ATOM     13  C   UNL     1       6.486   4.088  15.959  0.00  0.00    +0.000 A 
ATOM     14  C   UNL     1       5.115   3.935  16.215  0.00  0.00    +0.000 A 
ATOM     15  C   UNL     1       4.586   4.412  17.431  0.00  0.00    +0.000 A 
ENDBRANCH   1   7
BRANCH   3  16
ATOM     16  C   UNL     1       1.093   7.477  21.233  0.00  0.00    +0.000 C 
BRANCH  16  17
ATOM     17  C   UNL     1       1.505   8.907  21.615  0.00  0.00    +0.000 C 
BRANCH  17  18
ATOM     18  C   UNL     1       0.369   9.892  21.748  0.00  0.00    +0.000 A 
ATOM     19  C   UNL     1       0.053  10.772  20.718  0.00  0.00    +0.000 A 
ATOM     20  C   UNL     1      -0.934  11.734  20.934  0.00  0.00    +0.000 A 
ATOM     21  C   UNL     1      -1.573  11.798  22.167  0.00  0.00    +0.000 A 
ATOM     22  C   UNL     1      -1.205  10.884  23.136  0.00  0.00    +0.000 A 
ATOM     23  N   UNL     1      -0.259   9.934  22.952  0.00  0.00    +0.000 NA
ENDBRANCH  17  18
ENDBRANCH  16  17
ENDBRANCH   3  16
TORSDOF 4
ENDMDL
