MODEL 1
REMARK VINA RESULT:      -7.8      0.000      0.000
REMARK  Name = 
REMARK  2 active torsions:
REMARK  status: ('A' for Active; 'I' for Inactive)
REMARK    1  A    between atoms: N_2  and  C_4
REMARK    2  A    between atoms: C_7  and  C_8
REMARK                            x       y       z     vdW  Elec       q    Type
REMARK                         _______ _______ _______ _____ _____    ______ ____
ROOT
ATOM      1  C   UNL     1      -2.652  12.303  19.729  0.00  0.00    +0.000 A 
ATOM      2  N   UNL     1      -1.735  11.655  18.951  0.00  0.00    +0.000 N 
ATOM      3  C   UNL     1      -0.283  11.835  18.953  0.00  0.00    +0.000 A 
ATOM      4  C   UNL     1       0.248  13.090  19.202  0.00  0.00    +0.000 A 
ATOM      5  C   UNL     1       1.610  13.279  18.959  0.00  0.00    +0.000 A 
ATOM      6  C   UNL     1       2.371  12.231  18.457  0.00  0.00    +0.000 A 
ATOM      7  C   UNL     1       1.751  11.016  18.241  0.00  0.00    +0.000 A 
ATOM      8  N   UNL     1       0.444  10.798  18.490  0.00  0.00    +0.000 NA
ATOM      9  C   UNL     1      -2.372  10.958  17.922  0.00  0.00    +0.000 A 
ATOM     10  C   UNL     1      -1.891  10.118  16.913  0.00  0.00    +0.000 A 
ATOM     11  C   UNL     1      -2.733   9.894  15.822  0.00  0.00    +0.000 A 
ATOM     12  C   UNL     1      -4.011  10.468  15.757  0.00  0.00    +0.000 A 
ATOM     13  C   UNL     1      -4.520  11.235  16.811  0.00  0.00    +0.000 A 
ATOM     14  C   UNL     1      -3.671  11.441  17.903  0.00  0.00    +0.000 A 
ATOM     15  N   UNL     1      -3.857  12.112  19.114  0.00  0.00    +0.000 N 
ATOM     16  C   UNL     1      -5.175  12.491  19.620  0.00  0.00    +0.000 A 
ATOM     17  C   UNL     1      -6.210  11.570  19.498  0.00  0.00    +0.000 A 
ATOM     18  C   UNL     1      -7.510  12.001  19.770  0.00  0.00    +0.000 A 
ATOM     19  C   UNL     1      -7.722  13.314  20.156  0.00  0.00    +0.000 A 
ATOM     20  C   UNL     1      -6.622  14.146  20.271  0.00  0.00    +0.000 A 
ATOM     21  N   UNL     1      -5.352  13.762  19.998  0.00  0.00    +0.000 NA
ENDROOT
BRANCH   1  25
ATOM     22  C   UNL     1      -1.873  14.282  23.542  0.00  0.00    +0.000 A 
ATOM     23  C   UNL     1      -1.841  12.887  23.465  0.00  0.00    +0.000 A 
ATOM     24  C   UNL     1      -2.091  12.251  22.240  0.00  0.00    +0.000 A 
ATOM     25  C   UNL     1      -2.320  12.988  21.072  0.00  0.00    +0.000 A 
ATOM     26  C   UNL     1      -2.347  14.389  21.165  0.00  0.00    +0.000 A 
ATOM     27  C   UNL     1      -2.143  15.037  22.395  0.00  0.00    +0.000 A 
BRANCH  22  29
ATOM     28  O   UNL     1      -0.507  15.359  25.074  0.00  0.00    +0.000 OA
ATOM     29  N   UNL     1      -1.649  14.945  24.834  0.00  0.00    +0.000 N 
ATOM     30  O   UNL     1      -2.615  15.040  25.601  0.00  0.00    +0.000 OA
ENDBRANCH  22  29
ENDBRANCH   1  25
TORSDOF 2
ENDMDL
MODEL 2
REMARK VINA RESULT:      -7.8      0.256      1.075
REMARK  Name = 
REMARK  2 active torsions:
REMARK  status: ('A' for Active; 'I' for Inactive)
REMARK    1  A    between atoms: N_2  and  C_4
REMARK    2  A    between atoms: C_7  and  C_8
REMARK                            x       y       z     vdW  Elec       q    Type
REMARK                         _______ _______ _______ _____ _____    ______ ____
ROOT
ATOM      1  C   UNL     1      -2.673  12.445  19.835  0.00  0.00    +0.000 A 
ATOM      2  N   UNL     1      -1.730  11.816  19.074  0.00  0.00    +0.000 N 
ATOM      3  C   UNL     1      -0.286  12.053  19.071  0.00  0.00    +0.000 A 
ATOM      4  C   UNL     1       0.194  13.334  19.290  0.00  0.00    +0.000 A 
ATOM      5  C   UNL     1       1.547  13.572  19.043  0.00  0.00    +0.000 A 
ATOM      6  C   UNL     1       2.351  12.544  18.566  0.00  0.00    +0.000 A 
ATOM      7  C   UNL     1       1.780  11.299  18.380  0.00  0.00    +0.000 A 
ATOM      8  N   UNL     1       0.482  11.036  18.634  0.00  0.00    +0.000 NA
ATOM      9  C   UNL     1      -2.337  11.069  18.061  0.00  0.00    +0.000 A 
ATOM     10  C   UNL     1      -1.821  10.225  17.073  0.00  0.00    +0.000 A 
ATOM     11  C   UNL     1      -2.653   9.941  15.987  0.00  0.00    +0.000 A 
ATOM     12  C   UNL     1      -3.953  10.461  15.909  0.00  0.00    +0.000 A 
ATOM     13  C   UNL     1      -4.493  11.232  16.944  0.00  0.00    +0.000 A 
ATOM     14  C   UNL     1      -3.654  11.499  18.030  0.00  0.00    +0.000 A 
ATOM     15  N   UNL     1      -3.869  12.191  19.225  0.00  0.00    +0.000 N 
ATOM     16  C   UNL     1      -5.202  12.529  19.721  0.00  0.00    +0.000 A 
ATOM     17  C   UNL     1      -6.199  11.564  19.621  0.00  0.00    +0.000 A 
ATOM     18  C   UNL     1      -7.515  11.950  19.883  0.00  0.00    +0.000 A 
ATOM     19  C   UNL     1      -7.780  13.262  20.237  0.00  0.00    +0.000 A 
ATOM     20  C   UNL     1      -6.714  14.139  20.332  0.00  0.00    +0.000 A 
ATOM     21  N   UNL     1      -5.430  13.800  20.068  0.00  0.00    +0.000 NA
ENDROOT
BRANCH   1  25
ATOM     22  C   UNL     1      -1.661  14.472  23.567  0.00  0.00    +0.000 A 
ATOM     23  C   UNL     1      -2.015  15.224  22.444  0.00  0.00    +0.000 A 
ATOM     24  C   UNL     1      -2.339  14.573  21.244  0.00  0.00    +0.000 A 
ATOM     25  C   UNL     1      -2.371  13.175  21.162  0.00  0.00    +0.000 A 
ATOM     26  C   UNL     1      -2.016  12.433  22.300  0.00  0.00    +0.000 A 
ATOM     27  C   UNL     1      -1.643  13.074  23.494  0.00  0.00    +0.000 A 
BRANCH  22  29
ATOM     28  O   UNL     1      -2.099  15.141  25.743  0.00  0.00    +0.000 OA
ATOM     29  N   UNL     1      -1.283  15.156  24.811  0.00  0.00    +0.000 N 
ATOM     30  O   UNL     1      -0.176  15.709  24.845  0.00  0.00    +0.000 OA
ENDBRANCH  22  29
ENDBRANCH   1  25
TORSDOF 2
ENDMDL
MODEL 3
REMARK VINA RESULT:      -7.4      2.216      5.426
REMARK  Name = 
REMARK  2 active torsions:
REMARK  status: ('A' for Active; 'I' for Inactive)
REMARK    1  A    between atoms: N_2  and  C_4
REMARK    2  A    between atoms: C_7  and  C_8
REMARK                            x       y       z     vdW  Elec       q    Type
REMARK                         _______ _______ _______ _____ _____    ______ ____
ROOT
ATOM      1  C   UNL     1      -3.003  12.700  19.914  0.00  0.00    +0.000 A 
ATOM      2  N   UNL     1      -3.888  13.288  20.773  0.00  0.00    +0.000 N 
ATOM      3  C   UNL     1      -3.611  13.823  22.106  0.00  0.00    +0.000 A 
ATOM      4  C   UNL     1      -2.659  13.208  22.902  0.00  0.00    +0.000 A 
ATOM      5  C   UNL     1      -2.591  13.588  24.244  0.00  0.00    +0.000 A 
ATOM      6  C   UNL     1      -3.482  14.532  24.738  0.00  0.00    +0.000 A 
ATOM      7  C   UNL     1      -4.396  15.089  23.865  0.00  0.00    +0.000 A 
ATOM      8  N   UNL     1      -4.468  14.759  22.560  0.00  0.00    +0.000 NA
ATOM      9  C   UNL     1      -5.200  13.083  20.339  0.00  0.00    +0.000 A 
ATOM     10  C   UNL     1      -6.435  13.517  20.832  0.00  0.00    +0.000 A 
ATOM     11  C   UNL     1      -7.567  12.826  20.395  0.00  0.00    +0.000 A 
ATOM     12  C   UNL     1      -7.468  11.763  19.487  0.00  0.00    +0.000 A 
ATOM     13  C   UNL     1      -6.239  11.392  18.930  0.00  0.00    +0.000 A 
ATOM     14  C   UNL     1      -5.115  12.100  19.366  0.00  0.00    +0.000 A 
ATOM     15  N   UNL     1      -3.767  12.022  19.006  0.00  0.00    +0.000 N 
ATOM     16  C   UNL     1      -3.303  11.338  17.800  0.00  0.00    +0.000 A 
ATOM     17  C   UNL     1      -4.032  11.517  16.628  0.00  0.00    +0.000 A 
ATOM     18  C   UNL     1      -3.731  10.700  15.537  0.00  0.00    +0.000 A 
ATOM     19  C   UNL     1      -2.725   9.755  15.653  0.00  0.00    +0.000 A 
ATOM     20  C   UNL     1      -2.044   9.672  16.854  0.00  0.00    +0.000 A 
ATOM     21  N   UNL     1      -2.323  10.439  17.936  0.00  0.00    +0.000 NA
ENDROOT
BRANCH   1  25
ATOM     22  C   UNL     1       1.299  13.388  20.192  0.00  0.00    +0.000 A 
ATOM     23  C   UNL     1       0.768  12.153  20.574  0.00  0.00    +0.000 A 
ATOM     24  C   UNL     1      -0.615  11.932  20.485  0.00  0.00    +0.000 A 
ATOM     25  C   UNL     1      -1.475  12.908  19.967  0.00  0.00    +0.000 A 
ATOM     26  C   UNL     1      -0.926  14.143  19.585  0.00  0.00    +0.000 A 
ATOM     27  C   UNL     1       0.451  14.393  19.713  0.00  0.00    +0.000 A 
BRANCH  22  29
ATOM     28  O   UNL     1       3.371  13.907  19.292  0.00  0.00    +0.000 OA
ATOM     29  N   UNL     1       2.742  13.631  20.323  0.00  0.00    +0.000 N 
ATOM     30  O   UNL     1       3.236  13.538  21.453  0.00  0.00    +0.000 OA
ENDBRANCH  22  29
ENDBRANCH   1  25
TORSDOF 2
ENDMDL
MODEL 4
REMARK VINA RESULT:      -7.3      2.284      5.588
REMARK  Name = 
REMARK  2 active torsions:
REMARK  status: ('A' for Active; 'I' for Inactive)
REMARK    1  A    between atoms: N_2  and  C_4
REMARK    2  A    between atoms: C_7  and  C_8
REMARK                            x       y       z     vdW  Elec       q    Type
REMARK                         _______ _______ _______ _____ _____    ______ ____
ROOT
ATOM      1  C   UNL     1      -2.995  12.785  19.936  0.00  0.00    +0.000 A 
ATOM      2  N   UNL     1      -3.876  13.343  20.819  0.00  0.00    +0.000 N 
ATOM      3  C   UNL     1      -3.576  13.908  22.134  0.00  0.00    +0.000 A 
ATOM      4  C   UNL     1      -2.569  13.350  22.903  0.00  0.00    +0.000 A 
ATOM      5  C   UNL     1      -2.471  13.751  24.237  0.00  0.00    +0.000 A 
ATOM      6  C   UNL     1      -3.387  14.659  24.751  0.00  0.00    +0.000 A 
ATOM      7  C   UNL     1      -4.357  15.161  23.905  0.00  0.00    +0.000 A 
ATOM      8  N   UNL     1      -4.459  14.810  22.607  0.00  0.00    +0.000 NA
ATOM      9  C   UNL     1      -5.191  13.071  20.435  0.00  0.00    +0.000 A 
ATOM     10  C   UNL     1      -6.427  13.454  20.967  0.00  0.00    +0.000 A 
ATOM     11  C   UNL     1      -7.540  12.704  20.581  0.00  0.00    +0.000 A 
ATOM     12  C   UNL     1      -7.423  11.634  19.683  0.00  0.00    +0.000 A 
ATOM     13  C   UNL     1      -6.199  11.314  19.086  0.00  0.00    +0.000 A 
ATOM     14  C   UNL     1      -5.094  12.079  19.472  0.00  0.00    +0.000 A 
ATOM     15  N   UNL     1      -3.758  12.059  19.064  0.00  0.00    +0.000 N 
ATOM     16  C   UNL     1      -3.306  11.381  17.851  0.00  0.00    +0.000 A 
ATOM     17  C   UNL     1      -4.083  11.509  16.704  0.00  0.00    +0.000 A 
ATOM     18  C   UNL     1      -3.784  10.691  15.613  0.00  0.00    +0.000 A 
ATOM     19  C   UNL     1      -2.731   9.796  15.704  0.00  0.00    +0.000 A 
ATOM     20  C   UNL     1      -2.004   9.763  16.880  0.00  0.00    +0.000 A 
ATOM     21  N   UNL     1      -2.280  10.530  17.962  0.00  0.00    +0.000 NA
ENDROOT
BRANCH   1  25
ATOM     22  C   UNL     1       1.315  13.466  19.801  0.00  0.00    +0.000 A 
ATOM     23  C   UNL     1       0.442  14.444  19.315  0.00  0.00    +0.000 A 
ATOM     24  C   UNL     1      -0.942  14.225  19.357  0.00  0.00    +0.000 A 
ATOM     25  C   UNL     1      -1.477  13.064  19.931  0.00  0.00    +0.000 A 
ATOM     26  C   UNL     1      -0.588  12.093  20.418  0.00  0.00    +0.000 A 
ATOM     27  C   UNL     1       0.802  12.280  20.338  0.00  0.00    +0.000 A 
BRANCH  22  29
ATOM     28  O   UNL     1       3.377  13.867  20.781  0.00  0.00    +0.000 OA
ATOM     29  N   UNL     1       2.766  13.680  19.720  0.00  0.00    +0.000 N 
ATOM     30  O   UNL     1       3.283  13.665  18.595  0.00  0.00    +0.000 OA
ENDBRANCH  22  29
ENDBRANCH   1  25
TORSDOF 2
ENDMDL
MODEL 5
REMARK VINA RESULT:      -7.2      3.162      5.075
REMARK  Name = 
REMARK  2 active torsions:
REMARK  status: ('A' for Active; 'I' for Inactive)
REMARK    1  A    between atoms: N_2  and  C_4
REMARK    2  A    between atoms: C_7  and  C_8
REMARK                            x       y       z     vdW  Elec       q    Type
REMARK                         _______ _______ _______ _____ _____    ______ ____
ROOT
ATOM      1  C   UNL     1      -1.146  13.524  20.645  0.00  0.00    +0.000 A 
ATOM      2  N   UNL     1      -0.418  12.409  20.341  0.00  0.00    +0.000 N 
ATOM      3  C   UNL     1      -0.437  11.120  21.033  0.00  0.00    +0.000 A 
ATOM      4  C   UNL     1      -0.632  11.085  22.403  0.00  0.00    +0.000 A 
ATOM      5  C   UNL     1      -0.404   9.875  23.062  0.00  0.00    +0.000 A 
ATOM      6  C   UNL     1       0.031   8.771  22.341  0.00  0.00    +0.000 A 
ATOM      7  C   UNL     1       0.196   8.905  20.975  0.00  0.00    +0.000 A 
ATOM      8  N   UNL     1      -0.040  10.054  20.311  0.00  0.00    +0.000 NA
ATOM      9  C   UNL     1       0.587  12.717  19.420  0.00  0.00    +0.000 A 
ATOM     10  C   UNL     1       1.543  11.930  18.770  0.00  0.00    +0.000 A 
ATOM     11  C   UNL     1       2.636  12.598  18.213  0.00  0.00    +0.000 A 
ATOM     12  C   UNL     1       2.753  13.993  18.284  0.00  0.00    +0.000 A 
ATOM     13  C   UNL     1       1.748  14.780  18.857  0.00  0.00    +0.000 A 
ATOM     14  C   UNL     1       0.653  14.101  19.400  0.00  0.00    +0.000 A 
ATOM     15  N   UNL     1      -0.520  14.558  20.006  0.00  0.00    +0.000 N 
ATOM     16  C   UNL     1      -0.982  15.941  19.904  0.00  0.00    +0.000 A 
ATOM     17  C   UNL     1      -0.888  16.570  18.666  0.00  0.00    +0.000 A 
ATOM     18  C   UNL     1      -1.115  17.946  18.610  0.00  0.00    +0.000 A 
ATOM     19  C   UNL     1      -1.431  18.630  19.773  0.00  0.00    +0.000 A 
ATOM     20  C   UNL     1      -1.524  17.908  20.949  0.00  0.00    +0.000 A 
ATOM     21  N   UNL     1      -1.293  16.576  21.039  0.00  0.00    +0.000 NA
ENDROOT
BRANCH   1  25
ATOM     22  C   UNL     1      -4.847  13.318  22.951  0.00  0.00    +0.000 A 
ATOM     23  C   UNL     1      -3.688  13.830  23.543  0.00  0.00    +0.000 A 
ATOM     24  C   UNL     1      -2.499  13.895  22.802  0.00  0.00    +0.000 A 
ATOM     25  C   UNL     1      -2.459  13.509  21.457  0.00  0.00    +0.000 A 
ATOM     26  C   UNL     1      -3.631  13.000  20.875  0.00  0.00    +0.000 A 
ATOM     27  C   UNL     1      -4.817  12.885  21.621  0.00  0.00    +0.000 A 
BRANCH  22  29
ATOM     28  O   UNL     1      -6.721  14.254  23.944  0.00  0.00    +0.000 OA
ATOM     29  N   UNL     1      -6.081  13.213  23.741  0.00  0.00    +0.000 N 
ATOM     30  O   UNL     1      -6.398  12.092  24.158  0.00  0.00    +0.000 OA
ENDBRANCH  22  29
ENDBRANCH   1  25
TORSDOF 2
ENDMDL
MODEL 6
REMARK VINA RESULT:      -7.1      3.103      6.906
REMARK  Name = 
REMARK  2 active torsions:
REMARK  status: ('A' for Active; 'I' for Inactive)
REMARK    1  A    between atoms: N_2  and  C_4
REMARK    2  A    between atoms: C_7  and  C_8
REMARK                            x       y       z     vdW  Elec       q    Type
REMARK                         _______ _______ _______ _____ _____    ______ ____
ROOT
ATOM      1  C   UNL     1      -3.642  13.488  22.586  0.00  0.00    +0.000 A 
ATOM      2  N   UNL     1      -4.945  13.279  22.235  0.00  0.00    +0.000 N 
ATOM      3  C   UNL     1      -5.452  12.396  21.184  0.00  0.00    +0.000 A 
ATOM      4  C   UNL     1      -4.713  12.223  20.025  0.00  0.00    +0.000 A 
ATOM      5  C   UNL     1      -5.329  11.576  18.953  0.00  0.00    +0.000 A 
ATOM      6  C   UNL     1      -6.649  11.159  19.067  0.00  0.00    +0.000 A 
ATOM      7  C   UNL     1      -7.303  11.376  20.264  0.00  0.00    +0.000 A 
ATOM      8  N   UNL     1      -6.724  11.976  21.324  0.00  0.00    +0.000 NA
ATOM      9  C   UNL     1      -5.772  14.233  22.834  0.00  0.00    +0.000 A 
ATOM     10  C   UNL     1      -7.158  14.415  22.828  0.00  0.00    +0.000 A 
ATOM     11  C   UNL     1      -7.631  15.675  23.203  0.00  0.00    +0.000 A 
ATOM     12  C   UNL     1      -6.754  16.698  23.587  0.00  0.00    +0.000 A 
ATOM     13  C   UNL     1      -5.374  16.481  23.675  0.00  0.00    +0.000 A 
ATOM     14  C   UNL     1      -4.915  15.212  23.310  0.00  0.00    +0.000 A 
ATOM     15  N   UNL     1      -3.636  14.649  23.308  0.00  0.00    +0.000 N 
ATOM     16  C   UNL     1      -2.506  15.236  24.025  0.00  0.00    +0.000 A 
ATOM     17  C   UNL     1      -2.734  15.733  25.305  0.00  0.00    +0.000 A 
ATOM     18  C   UNL     1      -1.725  16.490  25.904  0.00  0.00    +0.000 A 
ATOM     19  C   UNL     1      -0.543  16.711  25.217  0.00  0.00    +0.000 A 
ATOM     20  C   UNL     1      -0.407  16.153  23.959  0.00  0.00    +0.000 A 
ATOM     21  N   UNL     1      -1.372  15.429  23.344  0.00  0.00    +0.000 NA
ENDROOT
BRANCH   1  25
ATOM     22  C   UNL     1      -0.286  10.823  21.754  0.00  0.00    +0.000 A 
ATOM     23  C   UNL     1      -0.996  10.691  22.951  0.00  0.00    +0.000 A 
ATOM     24  C   UNL     1      -2.074  11.548  23.219  0.00  0.00    +0.000 A 
ATOM     25  C   UNL     1      -2.493  12.503  22.284  0.00  0.00    +0.000 A 
ATOM     26  C   UNL     1      -1.771  12.621  21.085  0.00  0.00    +0.000 A 
ATOM     27  C   UNL     1      -0.660  11.800  20.825  0.00  0.00    +0.000 A 
BRANCH  22  29
ATOM     28  O   UNL     1       1.564   9.618  22.462  0.00  0.00    +0.000 OA
ATOM     29  N   UNL     1       0.868   9.951  21.493  0.00  0.00    +0.000 N 
ATOM     30  O   UNL     1       1.073   9.612  20.321  0.00  0.00    +0.000 OA
ENDBRANCH  22  29
ENDBRANCH   1  25
TORSDOF 2
ENDMDL
MODEL 7
REMARK VINA RESULT:      -7.1      2.500      5.531
REMARK  Name = 
REMARK  2 active torsions:
REMARK  status: ('A' for Active; 'I' for Inactive)
REMARK    1  A    between atoms: N_2  and  C_4
REMARK    2  A    between atoms: C_7  and  C_8
REMARK                            x       y       z     vdW  Elec       q    Type
REMARK                         _______ _______ _______ _____ _____    ______ ____
ROOT
ATOM      1  C   UNL     1      -1.949  13.380  21.227  0.00  0.00    +0.000 A 
ATOM      2  N   UNL     1      -0.960  14.171  21.737  0.00  0.00    +0.000 N 
ATOM      3  C   UNL     1      -1.101  15.249  22.717  0.00  0.00    +0.000 A 
ATOM      4  C   UNL     1      -2.247  16.026  22.715  0.00  0.00    +0.000 A 
ATOM      5  C   UNL     1      -2.248  17.186  23.492  0.00  0.00    +0.000 A 
ATOM      6  C   UNL     1      -1.109  17.536  24.207  0.00  0.00    +0.000 A 
ATOM      7  C   UNL     1      -0.014  16.695  24.146  0.00  0.00    +0.000 A 
ATOM      8  N   UNL     1       0.005  15.557  23.424  0.00  0.00    +0.000 NA
ATOM      9  C   UNL     1       0.218  14.017  21.002  0.00  0.00    +0.000 A 
ATOM     10  C   UNL     1       1.499  14.558  21.150  0.00  0.00    +0.000 A 
ATOM     11  C   UNL     1       2.339  14.506  20.035  0.00  0.00    +0.000 A 
ATOM     12  C   UNL     1       1.920  13.919  18.833  0.00  0.00    +0.000 A 
ATOM     13  C   UNL     1       0.670  13.301  18.721  0.00  0.00    +0.000 A 
ATOM     14  C   UNL     1      -0.156  13.348  19.848  0.00  0.00    +0.000 A 
ATOM     15  N   UNL     1      -1.426  12.820  20.095  0.00  0.00    +0.000 N 
ATOM     16  C   UNL     1      -2.037  11.789  19.257  0.00  0.00    +0.000 A 
ATOM     17  C   UNL     1      -1.233  10.740  18.824  0.00  0.00    +0.000 A 
ATOM     18  C   UNL     1      -1.744   9.880  17.850  0.00  0.00    +0.000 A 
ATOM     19  C   UNL     1      -3.021  10.093  17.359  0.00  0.00    +0.000 A 
ATOM     20  C   UNL     1      -3.749  11.151  17.874  0.00  0.00    +0.000 A 
ATOM     21  N   UNL     1      -3.275  12.012  18.806  0.00  0.00    +0.000 NA
ENDROOT
BRANCH   1  25
ATOM     22  C   UNL     1      -5.759  12.815  23.282  0.00  0.00    +0.000 A 
ATOM     23  C   UNL     1      -5.736  13.397  22.012  0.00  0.00    +0.000 A 
ATOM     24  C   UNL     1      -4.512  13.580  21.352  0.00  0.00    +0.000 A 
ATOM     25  C   UNL     1      -3.309  13.137  21.916  0.00  0.00    +0.000 A 
ATOM     26  C   UNL     1      -3.349  12.551  23.192  0.00  0.00    +0.000 A 
ATOM     27  C   UNL     1      -4.564  12.405  23.883  0.00  0.00    +0.000 A 
BRANCH  22  29
ATOM     28  O   UNL     1      -7.563  11.539  23.984  0.00  0.00    +0.000 OA
ATOM     29  N   UNL     1      -7.038  12.661  23.989  0.00  0.00    +0.000 N 
ATOM     30  O   UNL     1      -7.512  13.664  24.537  0.00  0.00    +0.000 OA
ENDBRANCH  22  29
ENDBRANCH   1  25
TORSDOF 2
ENDMDL
MODEL 8
REMARK VINA RESULT:      -7.0      3.098      5.113
REMARK  Name = 
REMARK  2 active torsions:
REMARK  status: ('A' for Active; 'I' for Inactive)
REMARK    1  A    between atoms: N_2  and  C_4
REMARK    2  A    between atoms: C_7  and  C_8
REMARK                            x       y       z     vdW  Elec       q    Type
REMARK                         _______ _______ _______ _____ _____    ______ ____
ROOT
ATOM      1  C   UNL     1      -1.033  13.534  20.496  0.00  0.00    +0.000 A 
ATOM      2  N   UNL     1      -0.158  12.547  20.142  0.00  0.00    +0.000 N 
ATOM      3  C   UNL     1      -0.054  11.205  20.714  0.00  0.00    +0.000 A 
ATOM      4  C   UNL     1      -0.316  11.016  22.061  0.00  0.00    +0.000 A 
ATOM      5  C   UNL     1       0.024   9.784  22.623  0.00  0.00    +0.000 A 
ATOM      6  C   UNL     1       0.629   8.812  21.836  0.00  0.00    +0.000 A 
ATOM      7  C   UNL     1       0.849   9.095  20.502  0.00  0.00    +0.000 A 
ATOM      8  N   UNL     1       0.509  10.266  19.928  0.00  0.00    +0.000 NA
ATOM      9  C   UNL     1       0.848  13.058  19.319  0.00  0.00    +0.000 A 
ATOM     10  C   UNL     1       1.928  12.455  18.665  0.00  0.00    +0.000 A 
ATOM     11  C   UNL     1       2.958  13.297  18.240  0.00  0.00    +0.000 A 
ATOM     12  C   UNL     1       2.898  14.683  18.441  0.00  0.00    +0.000 A 
ATOM     13  C   UNL     1       1.774  15.288  19.016  0.00  0.00    +0.000 A 
ATOM     14  C   UNL     1       0.744  14.435  19.425  0.00  0.00    +0.000 A 
ATOM     15  N   UNL     1      -0.506  14.691  19.994  0.00  0.00    +0.000 N 
ATOM     16  C   UNL     1      -1.130  16.013  19.985  0.00  0.00    +0.000 A 
ATOM     17  C   UNL     1      -1.048  16.765  18.817  0.00  0.00    +0.000 A 
ATOM     18  C   UNL     1      -1.440  18.103  18.868  0.00  0.00    +0.000 A 
ATOM     19  C   UNL     1      -1.899  18.631  20.064  0.00  0.00    +0.000 A 
ATOM     20  C   UNL     1      -1.964  17.793  21.163  0.00  0.00    +0.000 A 
ATOM     21  N   UNL     1      -1.576  16.496  21.149  0.00  0.00    +0.000 NA
ENDROOT
BRANCH   1  25
ATOM     22  C   UNL     1      -4.846  12.995  22.554  0.00  0.00    +0.000 A 
ATOM     23  C   UNL     1      -4.760  12.761  21.178  0.00  0.00    +0.000 A 
ATOM     24  C   UNL     1      -3.536  12.935  20.517  0.00  0.00    +0.000 A 
ATOM     25  C   UNL     1      -2.375  13.287  21.218  0.00  0.00    +0.000 A 
ATOM     26  C   UNL     1      -2.476  13.516  22.599  0.00  0.00    +0.000 A 
ATOM     27  C   UNL     1      -3.707  13.390  23.265  0.00  0.00    +0.000 A 
BRANCH  22  29
ATOM     28  O   UNL     1      -6.178  12.121  24.237  0.00  0.00    +0.000 OA
ATOM     29  N   UNL     1      -6.138  12.852  23.238  0.00  0.00    +0.000 N 
ATOM     30  O   UNL     1      -7.104  13.464  22.767  0.00  0.00    +0.000 OA
ENDBRANCH  22  29
ENDBRANCH   1  25
TORSDOF 2
ENDMDL
MODEL 9
REMARK VINA RESULT:      -6.8      2.551      5.448
REMARK  Name = 
REMARK  2 active torsions:
REMARK  status: ('A' for Active; 'I' for Inactive)
REMARK    1  A    between atoms: N_2  and  C_4
REMARK    2  A    between atoms: C_7  and  C_8
REMARK                            x       y       z     vdW  Elec       q    Type
REMARK                         _______ _______ _______ _____ _____    ______ ____
ROOT
ATOM      1  C   UNL     1      -0.754  13.551  20.953  0.00  0.00    +0.000 A 
ATOM      2  N   UNL     1       0.301  14.326  21.343  0.00  0.00    +0.000 N 
ATOM      3  C   UNL     1       0.275  15.464  22.262  0.00  0.00    +0.000 A 
ATOM      4  C   UNL     1      -0.837  16.289  22.294  0.00  0.00    +0.000 A 
ATOM      5  C   UNL     1      -0.734  17.491  22.996  0.00  0.00    +0.000 A 
ATOM      6  C   UNL     1       0.466  17.831  23.607  0.00  0.00    +0.000 A 
ATOM      7  C   UNL     1       1.520  16.941  23.520  0.00  0.00    +0.000 A 
ATOM      8  N   UNL     1       1.440  15.763  22.869  0.00  0.00    +0.000 NA
ATOM      9  C   UNL     1       1.415  14.078  20.537  0.00  0.00    +0.000 A 
ATOM     10  C   UNL     1       2.724  14.569  20.561  0.00  0.00    +0.000 A 
ATOM     11  C   UNL     1       3.477  14.416  19.395  0.00  0.00    +0.000 A 
ATOM     12  C   UNL     1       2.949  13.779  18.264  0.00  0.00    +0.000 A 
ATOM     13  C   UNL     1       1.670  13.211  18.277  0.00  0.00    +0.000 A 
ATOM     14  C   UNL     1       0.931  13.360  19.455  0.00  0.00    +0.000 A 
ATOM     15  N   UNL     1      -0.337  12.904  19.823  0.00  0.00    +0.000 N 
ATOM     16  C   UNL     1      -1.048  11.855  19.095  0.00  0.00    +0.000 A 
ATOM     17  C   UNL     1      -0.320  10.747  18.670  0.00  0.00    +0.000 A 
ATOM     18  C   UNL     1      -0.935   9.856  17.789  0.00  0.00    +0.000 A 
ATOM     19  C   UNL     1      -2.236  10.096  17.378  0.00  0.00    +0.000 A 
ATOM     20  C   UNL     1      -2.881  11.213  17.877  0.00  0.00    +0.000 A 
ATOM     21  N   UNL     1      -2.307  12.105  18.719  0.00  0.00    +0.000 NA
ENDROOT
BRANCH   1  25
ATOM     22  C   UNL     1      -4.529  13.053  23.089  0.00  0.00    +0.000 A 
ATOM     23  C   UNL     1      -3.372  12.435  23.572  0.00  0.00    +0.000 A 
ATOM     24  C   UNL     1      -2.159  12.594  22.885  0.00  0.00    +0.000 A 
ATOM     25  C   UNL     1      -2.068  13.409  21.750  0.00  0.00    +0.000 A 
ATOM     26  C   UNL     1      -3.238  14.026  21.279  0.00  0.00    +0.000 A 
ATOM     27  C   UNL     1      -4.469  13.836  21.931  0.00  0.00    +0.000 A 
BRANCH  22  29
ATOM     28  O   UNL     1      -6.704  13.682  23.585  0.00  0.00    +0.000 OA
ATOM     29  N   UNL     1      -5.806  12.853  23.786  0.00  0.00    +0.000 N 
ATOM     30  O   UNL     1      -5.900  11.872  24.535  0.00  0.00    +0.000 OA
ENDBRANCH  22  29
ENDBRANCH   1  25
TORSDOF 2
ENDMDL
