MODEL 1
REMARK VINA RESULT:      -8.5      0.000      0.000
REMARK  Name = 
REMARK  8 active torsions:
REMARK  status: ('A' for Active; 'I' for Inactive)
REMARK    1  A    between atoms: C_1  and  C_2
REMARK    2  A    between atoms: C_7  and  C_8
REMARK    3  A    between atoms: C_8  and  C_9
REMARK    4  A    between atoms: C_9  and  N_10
REMARK    5  A    between atoms: C_11  and  C_13
REMARK    6  A    between atoms: C_17  and  S_18
REMARK    7  A    between atoms: S_18  and  N_21
REMARK    8  A    between atoms: N_30  and  C_31
REMARK                            x       y       z     vdW  Elec       q    Type
REMARK                         _______ _______ _______ _____ _____    ______ ____
ROOT
ATOM      1  C   UNL     1       2.811   7.135  18.580  0.00  0.00    +0.000 A 
ATOM      2  C   UNL     1       2.568   8.315  17.883  0.00  0.00    +0.000 A 
ATOM      3  C   UNL     1       1.694   9.130  18.655  0.00  0.00    +0.000 A 
ATOM      4  C   UNL     1       1.130  10.401  18.445  0.00  0.00    +0.000 A 
ATOM      5  C   UNL     1       0.269  10.930  19.414  0.00  0.00    +0.000 A 
ATOM      6  C   UNL     1      -0.006  10.229  20.589  0.00  0.00    +0.000 A 
ATOM      7  C   UNL     1       0.546   8.962  20.808  0.00  0.00    +0.000 A 
ATOM      8  C   UNL     1       1.400   8.431  19.828  0.00  0.00    +0.000 A 
ATOM      9  N   UNL     1       2.113   7.244  19.773  0.00  0.00    +0.000 N 
ATOM     10  C   UNL     1       2.157   6.262  20.843  0.00  0.00    +0.000 C 
ENDROOT
BRANCH   1  12
ATOM     11  N   UNL     1       2.914   4.955  17.557  0.00  0.00    +0.000 N 
ATOM     12  C   UNL     1       3.601   5.978  18.187  0.00  0.00    +0.000 C 
ATOM     13  O   UNL     1       4.811   5.901  18.387  0.00  0.00    +0.000 OA
ATOM     14  H   UNL     1       1.983   5.135  17.209  0.00  0.00    +0.000 HD
BRANCH  11  15
ATOM     15  C   UNL     1       3.662   3.811  17.071  0.00  0.00    +0.000 C 
BRANCH  15  16
ATOM     16  C   UNL     1       3.142   2.456  17.554  0.00  0.00    +0.000 C 
BRANCH  16  23
ATOM     17  C   UNL     1       4.758   2.135  20.165  0.00  0.00    +0.000 C 
ATOM     18  C   UNL     1       3.283   2.430  20.139  0.00  0.00    +0.000 A 
ATOM     19  C   UNL     1       2.625   2.577  21.374  0.00  0.00    +0.000 A 
ATOM     20  C   UNL     1       1.261   2.856  21.440  0.00  0.00    +0.000 A 
ATOM     21  C   UNL     1       0.531   2.998  20.267  0.00  0.00    +0.000 A 
ATOM     22  C   UNL     1       1.165   2.856  19.034  0.00  0.00    +0.000 A 
ATOM     23  C   UNL     1       2.540   2.562  18.944  0.00  0.00    +0.000 A 
ENDBRANCH  16  23
ENDBRANCH  15  16
ENDBRANCH  11  15
ENDBRANCH   1  12
BRANCH   5  24
ATOM     24  S   UNL     1      -0.390  12.575  19.181  0.00  0.00    +0.000 S 
ATOM     25  O   UNL     1      -0.494  13.183  20.492  0.00  0.00    +0.000 OA
ATOM     26  O   UNL     1       0.385  13.200  18.131  0.00  0.00    +0.000 OA
BRANCH  24  27
ATOM     27  N   UNL     1      -1.979  12.306  18.585  0.00  0.00    +0.000 NA
ATOM     28  C   UNL     1      -2.067  11.343  17.457  0.00  0.00    +0.000 C 
ATOM     29  C   UNL     1      -3.481  11.248  16.895  0.00  0.00    +0.000 C 
ATOM     30  C   UNL     1      -4.493  10.965  17.993  0.00  0.00    +0.000 C 
ATOM     31  C   UNL     1      -4.423  12.069  19.035  0.00  0.00    +0.000 C 
ATOM     32  C   UNL     1      -3.025  12.181  19.632  0.00  0.00    +0.000 C 
ENDBRANCH  24  27
ENDBRANCH   5  24
TORSDOF 6
ENDMDL
MODEL 2
REMARK VINA RESULT:      -8.5      3.293      9.708
REMARK  Name = 
REMARK  8 active torsions:
REMARK  status: ('A' for Active; 'I' for Inactive)
REMARK    1  A    between atoms: C_1  and  C_2
REMARK    2  A    between atoms: C_7  and  C_8
REMARK    3  A    between atoms: C_8  and  C_9
REMARK    4  A    between atoms: C_9  and  N_10
REMARK    5  A    between atoms: C_11  and  C_13
REMARK    6  A    between atoms: C_17  and  S_18
REMARK    7  A    between atoms: S_18  and  N_21
REMARK    8  A    between atoms: N_30  and  C_31
REMARK                            x       y       z     vdW  Elec       q    Type
REMARK                         _______ _______ _______ _____ _____    ______ ____
ROOT
ATOM      1  C   UNL     1       0.933   9.697  20.888  0.00  0.00    +0.000 A 
ATOM      2  C   UNL     1       1.240   8.425  21.361  0.00  0.00    +0.000 A 
ATOM      3  C   UNL     1       1.757   7.649  20.287  0.00  0.00    +0.000 A 
ATOM      4  C   UNL     1       2.221   6.325  20.195  0.00  0.00    +0.000 A 
ATOM      5  C   UNL     1       2.656   5.844  18.954  0.00  0.00    +0.000 A 
ATOM      6  C   UNL     1       2.664   6.667  17.827  0.00  0.00    +0.000 A 
ATOM      7  C   UNL     1       2.202   7.985  17.905  0.00  0.00    +0.000 A 
ATOM      8  C   UNL     1       1.756   8.460  19.150  0.00  0.00    +0.000 A 
ATOM      9  N   UNL     1       1.285   9.701  19.547  0.00  0.00    +0.000 N 
ATOM     10  C   UNL     1       1.209  10.866  18.681  0.00  0.00    +0.000 C 
ENDROOT
BRANCH   1  12
ATOM     11  N   UNL     1      -0.890  10.601  22.180  0.00  0.00    +0.000 N 
ATOM     12  C   UNL     1       0.342  10.825  21.591  0.00  0.00    +0.000 C 
ATOM     13  O   UNL     1       0.895  11.919  21.676  0.00  0.00    +0.000 OA
ATOM     14  H   UNL     1      -1.212   9.650  22.287  0.00  0.00    +0.000 HD
BRANCH  11  15
ATOM     15  C   UNL     1      -1.492  11.664  22.962  0.00  0.00    +0.000 C 
BRANCH  15  16
ATOM     16  C   UNL     1      -2.400  12.604  22.169  0.00  0.00    +0.000 C 
BRANCH  16  23
ATOM     17  C   UNL     1      -4.966  13.175  20.550  0.00  0.00    +0.000 C 
ATOM     18  C   UNL     1      -4.966  12.915  22.032  0.00  0.00    +0.000 A 
ATOM     19  C   UNL     1      -6.207  12.922  22.695  0.00  0.00    +0.000 A 
ATOM     20  C   UNL     1      -6.297  12.684  24.065  0.00  0.00    +0.000 A 
ATOM     21  C   UNL     1      -5.145  12.429  24.797  0.00  0.00    +0.000 A 
ATOM     22  C   UNL     1      -3.906  12.419  24.157  0.00  0.00    +0.000 A 
ATOM     23  C   UNL     1      -3.790  12.668  22.776  0.00  0.00    +0.000 A 
ENDBRANCH  16  23
ENDBRANCH  15  16
ENDBRANCH  11  15
ENDBRANCH   1  12
BRANCH   5  24
ATOM     24  S   UNL     1       3.312   4.184  18.851  0.00  0.00    +0.000 S 
ATOM     25  O   UNL     1       3.226   3.607  20.177  0.00  0.00    +0.000 OA
ATOM     26  O   UNL     1       2.678   3.544  17.719  0.00  0.00    +0.000 OA
BRANCH  24  27
ATOM     27  N   UNL     1       4.972   4.416  18.472  0.00  0.00    +0.000 NA
ATOM     28  C   UNL     1       5.281   4.452  17.020  0.00  0.00    +0.000 C 
ATOM     29  C   UNL     1       6.780   4.531  16.755  0.00  0.00    +0.000 C 
ATOM     30  C   UNL     1       7.415   5.680  17.522  0.00  0.00    +0.000 C 
ATOM     31  C   UNL     1       7.160   5.490  19.008  0.00  0.00    +0.000 C 
ATOM     32  C   UNL     1       5.668   5.424  19.312  0.00  0.00    +0.000 C 
ENDBRANCH  24  27
ENDBRANCH   5  24
TORSDOF 6
ENDMDL
MODEL 3
REMARK VINA RESULT:      -8.5      2.643      9.391
REMARK  Name = 
REMARK  8 active torsions:
REMARK  status: ('A' for Active; 'I' for Inactive)
REMARK    1  A    between atoms: C_1  and  C_2
REMARK    2  A    between atoms: C_7  and  C_8
REMARK    3  A    between atoms: C_8  and  C_9
REMARK    4  A    between atoms: C_9  and  N_10
REMARK    5  A    between atoms: C_11  and  C_13
REMARK    6  A    between atoms: C_17  and  S_18
REMARK    7  A    between atoms: S_18  and  N_21
REMARK    8  A    between atoms: N_30  and  C_31
REMARK                            x       y       z     vdW  Elec       q    Type
REMARK                         _______ _______ _______ _____ _____    ______ ____
ROOT
ATOM      1  C   UNL     1       1.226   9.430  19.160  0.00  0.00    +0.000 A 
ATOM      2  C   UNL     1       2.025   8.762  18.238  0.00  0.00    +0.000 A 
ATOM      3  C   UNL     1       2.368   7.487  18.767  0.00  0.00    +0.000 A 
ATOM      4  C   UNL     1       3.136   6.417  18.275  0.00  0.00    +0.000 A 
ATOM      5  C   UNL     1       3.304   5.279  19.073  0.00  0.00    +0.000 A 
ATOM      6  C   UNL     1       2.696   5.183  20.325  0.00  0.00    +0.000 A 
ATOM      7  C   UNL     1       1.932   6.242  20.827  0.00  0.00    +0.000 A 
ATOM      8  C   UNL     1       1.776   7.387  20.028  0.00  0.00    +0.000 A 
ATOM      9  N   UNL     1       1.065   8.560  20.228  0.00  0.00    +0.000 N 
ATOM     10  C   UNL     1       0.227   8.825  21.385  0.00  0.00    +0.000 C 
ENDROOT
BRANCH   1  12
ATOM     11  N   UNL     1      -0.610  10.873  18.568  0.00  0.00    +0.000 N 
ATOM     12  C   UNL     1       0.665  10.770  19.095  0.00  0.00    +0.000 C 
ATOM     13  O   UNL     1       1.270  11.764  19.489  0.00  0.00    +0.000 OA
ATOM     14  H   UNL     1      -1.163  10.034  18.462  0.00  0.00    +0.000 HD
BRANCH  11  15
ATOM     15  C   UNL     1      -1.254  12.173  18.550  0.00  0.00    +0.000 C 
BRANCH  15  16
ATOM     16  C   UNL     1      -2.315  12.376  19.631  0.00  0.00    +0.000 C 
BRANCH  16  23
ATOM     17  C   UNL     1      -4.909  12.802  21.250  0.00  0.00    +0.000 C 
ATOM     18  C   UNL     1      -4.894  12.288  19.836  0.00  0.00    +0.000 A 
ATOM     19  C   UNL     1      -6.133  12.006  19.230  0.00  0.00    +0.000 A 
ATOM     20  C   UNL     1      -6.208  11.532  17.922  0.00  0.00    +0.000 A 
ATOM     21  C   UNL     1      -5.043  11.337  17.192  0.00  0.00    +0.000 A 
ATOM     22  C   UNL     1      -3.806  11.611  17.775  0.00  0.00    +0.000 A 
ATOM     23  C   UNL     1      -3.706  12.079  19.099  0.00  0.00    +0.000 A 
ENDBRANCH  16  23
ENDBRANCH  15  16
ENDBRANCH  11  15
ENDBRANCH   1  12
BRANCH   5  24
ATOM     24  S   UNL     1       4.220   3.890  18.418  0.00  0.00    +0.000 S 
ATOM     25  O   UNL     1       5.142   3.461  19.450  0.00  0.00    +0.000 OA
ATOM     26  O   UNL     1       3.256   2.971  17.854  0.00  0.00    +0.000 OA
BRANCH  24  27
ATOM     27  N   UNL     1       5.133   4.565  17.127  0.00  0.00    +0.000 NA
ATOM     28  C   UNL     1       6.524   4.945  17.479  0.00  0.00    +0.000 C 
ATOM     29  C   UNL     1       7.234   5.651  16.330  0.00  0.00    +0.000 C 
ATOM     30  C   UNL     1       7.150   4.838  15.048  0.00  0.00    +0.000 C 
ATOM     31  C   UNL     1       5.690   4.610  14.695  0.00  0.00    +0.000 C 
ATOM     32  C   UNL     1       4.953   3.888  15.817  0.00  0.00    +0.000 C 
ENDBRANCH  24  27
ENDBRANCH   5  24
TORSDOF 6
ENDMDL
MODEL 4
REMARK VINA RESULT:      -8.4      2.698      9.311
REMARK  Name = 
REMARK  8 active torsions:
REMARK  status: ('A' for Active; 'I' for Inactive)
REMARK    1  A    between atoms: C_1  and  C_2
REMARK    2  A    between atoms: C_7  and  C_8
REMARK    3  A    between atoms: C_8  and  C_9
REMARK    4  A    between atoms: C_9  and  N_10
REMARK    5  A    between atoms: C_11  and  C_13
REMARK    6  A    between atoms: C_17  and  S_18
REMARK    7  A    between atoms: S_18  and  N_21
REMARK    8  A    between atoms: N_30  and  C_31
REMARK                            x       y       z     vdW  Elec       q    Type
REMARK                         _______ _______ _______ _____ _____    ______ ____
ROOT
ATOM      1  C   UNL     1       1.413   9.223  18.894  0.00  0.00    +0.000 A 
ATOM      2  C   UNL     1       1.935   8.384  17.915  0.00  0.00    +0.000 A 
ATOM      3  C   UNL     1       2.278   7.140  18.513  0.00  0.00    +0.000 A 
ATOM      4  C   UNL     1       2.830   5.950  18.008  0.00  0.00    +0.000 A 
ATOM      5  C   UNL     1       3.071   4.887  18.887  0.00  0.00    +0.000 A 
ATOM      6  C   UNL     1       2.743   4.984  20.239  0.00  0.00    +0.000 A 
ATOM      7  C   UNL     1       2.196   6.164  20.755  0.00  0.00    +0.000 A 
ATOM      8  C   UNL     1       1.966   7.232  19.872  0.00  0.00    +0.000 A 
ATOM      9  N   UNL     1       1.414   8.488  20.069  0.00  0.00    +0.000 N 
ATOM     10  C   UNL     1       0.871   8.957  21.332  0.00  0.00    +0.000 C 
ENDROOT
BRANCH   1  12
ATOM     11  N   UNL     1      -0.333  10.788  18.335  0.00  0.00    +0.000 N 
ATOM     12  C   UNL     1       0.963  10.602  18.782  0.00  0.00    +0.000 C 
ATOM     13  O   UNL     1       1.676  11.559  19.073  0.00  0.00    +0.000 OA
ATOM     14  H   UNL     1      -0.961   9.997  18.318  0.00  0.00    +0.000 HD
BRANCH  11  15
ATOM     15  C   UNL     1      -0.864  12.137  18.279  0.00  0.00    +0.000 C 
BRANCH  15  16
ATOM     16  C   UNL     1      -1.882  12.468  19.370  0.00  0.00    +0.000 C 
BRANCH  16  23
ATOM     17  C   UNL     1      -4.393  12.909  21.113  0.00  0.00    +0.000 C 
ATOM     18  C   UNL     1      -4.440  12.307  19.734  0.00  0.00    +0.000 A 
ATOM     19  C   UNL     1      -5.700  11.946  19.223  0.00  0.00    +0.000 A 
ATOM     20  C   UNL     1      -5.834  11.388  17.953  0.00  0.00    +0.000 A 
ATOM     21  C   UNL     1      -4.707  11.187  17.167  0.00  0.00    +0.000 A 
ATOM     22  C   UNL     1      -3.449  11.538  17.657  0.00  0.00    +0.000 A 
ATOM     23  C   UNL     1      -3.290  12.092  18.942  0.00  0.00    +0.000 A 
ENDBRANCH  16  23
ENDBRANCH  15  16
ENDBRANCH  11  15
ENDBRANCH   1  12
BRANCH   5  24
ATOM     24  S   UNL     1       3.706   3.349  18.231  0.00  0.00    +0.000 S 
ATOM     25  O   UNL     1       4.024   2.502  19.362  0.00  0.00    +0.000 OA
ATOM     26  O   UNL     1       2.783   2.908  17.208  0.00  0.00    +0.000 OA
BRANCH  24  27
ATOM     27  N   UNL     1       5.177   3.799  17.465  0.00  0.00    +0.000 NA
ATOM     28  C   UNL     1       5.045   4.177  16.035  0.00  0.00    +0.000 C 
ATOM     29  C   UNL     1       6.398   4.439  15.384  0.00  0.00    +0.000 C 
ATOM     30  C   UNL     1       7.209   5.444  16.187  0.00  0.00    +0.000 C 
ATOM     31  C   UNL     1       7.406   4.914  17.598  0.00  0.00    +0.000 C 
ATOM     32  C   UNL     1       6.071   4.656  18.286  0.00  0.00    +0.000 C 
ENDBRANCH  24  27
ENDBRANCH   5  24
TORSDOF 6
ENDMDL
MODEL 5
REMARK VINA RESULT:      -8.3      3.988     10.081
REMARK  Name = 
REMARK  8 active torsions:
REMARK  status: ('A' for Active; 'I' for Inactive)
REMARK    1  A    between atoms: C_1  and  C_2
REMARK    2  A    between atoms: C_7  and  C_8
REMARK    3  A    between atoms: C_8  and  C_9
REMARK    4  A    between atoms: C_9  and  N_10
REMARK    5  A    between atoms: C_11  and  C_13
REMARK    6  A    between atoms: C_17  and  S_18
REMARK    7  A    between atoms: S_18  and  N_21
REMARK    8  A    between atoms: N_30  and  C_31
REMARK                            x       y       z     vdW  Elec       q    Type
REMARK                         _______ _______ _______ _____ _____    ______ ____
ROOT
ATOM      1  C   UNL     1       1.066   9.808  19.186  0.00  0.00    +0.000 A 
ATOM      2  C   UNL     1       1.831   9.134  18.239  0.00  0.00    +0.000 A 
ATOM      3  C   UNL     1       2.157   7.846  18.747  0.00  0.00    +0.000 A 
ATOM      4  C   UNL     1       2.891   6.765  18.227  0.00  0.00    +0.000 A 
ATOM      5  C   UNL     1       3.049   5.614  19.007  0.00  0.00    +0.000 A 
ATOM      6  C   UNL     1       2.464   5.517  20.270  0.00  0.00    +0.000 A 
ATOM      7  C   UNL     1       1.733   6.586  20.800  0.00  0.00    +0.000 A 
ATOM      8  C   UNL     1       1.587   7.743  20.018  0.00  0.00    +0.000 A 
ATOM      9  N   UNL     1       0.906   8.928  20.246  0.00  0.00    +0.000 N 
ATOM     10  C   UNL     1       0.097   9.198  21.422  0.00  0.00    +0.000 C 
ENDROOT
BRANCH   1  12
ATOM     11  N   UNL     1       1.302  12.138  19.757  0.00  0.00    +0.000 N 
ATOM     12  C   UNL     1       0.533  11.161  19.147  0.00  0.00    +0.000 C 
ATOM     13  O   UNL     1      -0.531  11.441  18.601  0.00  0.00    +0.000 OA
ATOM     14  H   UNL     1       2.259  11.925  19.996  0.00  0.00    +0.000 HD
BRANCH  11  15
ATOM     15  C   UNL     1       0.861  13.518  19.682  0.00  0.00    +0.000 C 
BRANCH  15  16
ATOM     16  C   UNL     1       1.948  14.514  19.279  0.00  0.00    +0.000 C 
BRANCH  16  23
ATOM     17  C   UNL     1       3.583  16.645  17.756  0.00  0.00    +0.000 C 
ATOM     18  C   UNL     1       2.094  16.733  17.953  0.00  0.00    +0.000 A 
ATOM     19  C   UNL     1       1.426  17.840  17.397  0.00  0.00    +0.000 A 
ATOM     20  C   UNL     1       0.047  17.994  17.528  0.00  0.00    +0.000 A 
ATOM     21  C   UNL     1      -0.691  17.039  18.214  0.00  0.00    +0.000 A 
ATOM     22  C   UNL     1      -0.047  15.935  18.772  0.00  0.00    +0.000 A 
ATOM     23  C   UNL     1       1.347  15.765  18.662  0.00  0.00    +0.000 A 
ENDBRANCH  16  23
ENDBRANCH  15  16
ENDBRANCH  11  15
ENDBRANCH   1  12
BRANCH   5  24
ATOM     24  S   UNL     1       3.921   4.214  18.318  0.00  0.00    +0.000 S 
ATOM     25  O   UNL     1       3.962   3.190  19.342  0.00  0.00    +0.000 OA
ATOM     26  O   UNL     1       3.338   3.945  17.021  0.00  0.00    +0.000 OA
BRANCH  24  27
ATOM     27  N   UNL     1       5.519   4.797  18.075  0.00  0.00    +0.000 NA
ATOM     28  C   UNL     1       5.721   5.555  16.814  0.00  0.00    +0.000 C 
ATOM     29  C   UNL     1       7.183   5.932  16.600  0.00  0.00    +0.000 C 
ATOM     30  C   UNL     1       7.750   6.647  17.816  0.00  0.00    +0.000 C 
ATOM     31  C   UNL     1       7.620   5.745  19.032  0.00  0.00    +0.000 C 
ATOM     32  C   UNL     1       6.167   5.362  19.286  0.00  0.00    +0.000 C 
ENDBRANCH  24  27
ENDBRANCH   5  24
TORSDOF 6
ENDMDL
MODEL 6
REMARK VINA RESULT:      -8.3      2.269      9.226
REMARK  Name = 
REMARK  8 active torsions:
REMARK  status: ('A' for Active; 'I' for Inactive)
REMARK    1  A    between atoms: C_1  and  C_2
REMARK    2  A    between atoms: C_7  and  C_8
REMARK    3  A    between atoms: C_8  and  C_9
REMARK    4  A    between atoms: C_9  and  N_10
REMARK    5  A    between atoms: C_11  and  C_13
REMARK    6  A    between atoms: C_17  and  S_18
REMARK    7  A    between atoms: S_18  and  N_21
REMARK    8  A    between atoms: N_30  and  C_31
REMARK                            x       y       z     vdW  Elec       q    Type
REMARK                         _______ _______ _______ _____ _____    ______ ____
ROOT
ATOM      1  C   UNL     1       0.048  10.748  20.792  0.00  0.00    +0.000 A 
ATOM      2  C   UNL     1       0.461   9.483  21.200  0.00  0.00    +0.000 A 
ATOM      3  C   UNL     1       1.215   8.887  20.151  0.00  0.00    +0.000 A 
ATOM      4  C   UNL     1       1.863   7.646  20.019  0.00  0.00    +0.000 A 
ATOM      5  C   UNL     1       2.517   7.346  18.817  0.00  0.00    +0.000 A 
ATOM      6  C   UNL     1       2.559   8.271  17.773  0.00  0.00    +0.000 A 
ATOM      7  C   UNL     1       1.916   9.508  17.891  0.00  0.00    +0.000 A 
ATOM      8  C   UNL     1       1.251   9.799  19.093  0.00  0.00    +0.000 A 
ATOM      9  N   UNL     1       0.568  10.927  19.518  0.00  0.00    +0.000 N 
ATOM     10  C   UNL     1       0.447  12.153  18.747  0.00  0.00    +0.000 C 
ENDROOT
BRANCH   1  12
ATOM     11  N   UNL     1      -2.088  11.830  21.062  0.00  0.00    +0.000 N 
ATOM     12  C   UNL     1      -0.777  11.719  21.492  0.00  0.00    +0.000 C 
ATOM     13  O   UNL     1      -0.354  12.404  22.421  0.00  0.00    +0.000 OA
ATOM     14  H   UNL     1      -2.465  11.112  20.461  0.00  0.00    +0.000 HD
BRANCH  11  15
ATOM     15  C   UNL     1      -2.981  12.725  21.774  0.00  0.00    +0.000 C 
BRANCH  15  16
ATOM     16  C   UNL     1      -3.974  13.475  20.886  0.00  0.00    +0.000 C 
BRANCH  16  23
ATOM     17  C   UNL     1      -6.614  12.601  22.227  0.00  0.00    +0.000 C 
ATOM     18  C   UNL     1      -6.188  12.135  20.861  0.00  0.00    +0.000 A 
ATOM     19  C   UNL     1      -7.054  11.269  20.168  0.00  0.00    +0.000 A 
ATOM     20  C   UNL     1      -6.739  10.795  18.895  0.00  0.00    +0.000 A 
ATOM     21  C   UNL     1      -5.552  11.185  18.290  0.00  0.00    +0.000 A 
ATOM     22  C   UNL     1      -4.680  12.042  18.962  0.00  0.00    +0.000 A 
ATOM     23  C   UNL     1      -4.974  12.523  20.253  0.00  0.00    +0.000 A 
ENDBRANCH  16  23
ENDBRANCH  15  16
ENDBRANCH  11  15
ENDBRANCH   1  12
BRANCH   5  24
ATOM     24  S   UNL     1       3.401   5.799  18.676  0.00  0.00    +0.000 S 
ATOM     25  O   UNL     1       3.639   5.571  17.265  0.00  0.00    +0.000 OA
ATOM     26  O   UNL     1       4.499   5.848  19.617  0.00  0.00    +0.000 OA
BRANCH  24  27
ATOM     27  N   UNL     1       2.276   4.624  19.229  0.00  0.00    +0.000 NA
ATOM     28  C   UNL     1       1.884   3.611  18.217  0.00  0.00    +0.000 C 
ATOM     29  C   UNL     1       0.792   2.680  18.731  0.00  0.00    +0.000 C 
ATOM     30  C   UNL     1       1.179   2.062  20.066  0.00  0.00    +0.000 C 
ATOM     31  C   UNL     1       1.433   3.170  21.074  0.00  0.00    +0.000 C 
ATOM     32  C   UNL     1       2.534   4.111  20.599  0.00  0.00    +0.000 C 
ENDBRANCH  24  27
ENDBRANCH   5  24
TORSDOF 6
ENDMDL
MODEL 7
REMARK VINA RESULT:      -8.3      2.335      9.300
REMARK  Name = 
REMARK  8 active torsions:
REMARK  status: ('A' for Active; 'I' for Inactive)
REMARK    1  A    between atoms: C_1  and  C_2
REMARK    2  A    between atoms: C_7  and  C_8
REMARK    3  A    between atoms: C_8  and  C_9
REMARK    4  A    between atoms: C_9  and  N_10
REMARK    5  A    between atoms: C_11  and  C_13
REMARK    6  A    between atoms: C_17  and  S_18
REMARK    7  A    between atoms: S_18  and  N_21
REMARK    8  A    between atoms: N_30  and  C_31
REMARK                            x       y       z     vdW  Elec       q    Type
REMARK                         _______ _______ _______ _____ _____    ______ ____
ROOT
ATOM      1  C   UNL     1       0.124  10.711  20.780  0.00  0.00    +0.000 A 
ATOM      2  C   UNL     1       0.540   9.450  21.193  0.00  0.00    +0.000 A 
ATOM      3  C   UNL     1       1.275   8.841  20.138  0.00  0.00    +0.000 A 
ATOM      4  C   UNL     1       1.917   7.597  20.008  0.00  0.00    +0.000 A 
ATOM      5  C   UNL     1       2.551   7.283  18.799  0.00  0.00    +0.000 A 
ATOM      6  C   UNL     1       2.578   8.197  17.745  0.00  0.00    +0.000 A 
ATOM      7  C   UNL     1       1.940   9.437  17.861  0.00  0.00    +0.000 A 
ATOM      8  C   UNL     1       1.297   9.742  19.071  0.00  0.00    +0.000 A 
ATOM      9  N   UNL     1       0.624  10.877  19.496  0.00  0.00    +0.000 N 
ATOM     10  C   UNL     1       0.494  12.095  18.715  0.00  0.00    +0.000 C 
ENDROOT
BRANCH   1  12
ATOM     11  N   UNL     1      -1.987  11.844  21.036  0.00  0.00    +0.000 N 
ATOM     12  C   UNL     1      -0.687  11.692  21.484  0.00  0.00    +0.000 C 
ATOM     13  O   UNL     1      -0.261  12.350  22.431  0.00  0.00    +0.000 OA
ATOM     14  H   UNL     1      -2.373  11.147  20.416  0.00  0.00    +0.000 HD
BRANCH  11  15
ATOM     15  C   UNL     1      -2.868  12.750  21.749  0.00  0.00    +0.000 C 
BRANCH  15  16
ATOM     16  C   UNL     1      -3.868  13.496  20.865  0.00  0.00    +0.000 C 
BRANCH  16  23
ATOM     17  C   UNL     1      -4.786  11.879  18.401  0.00  0.00    +0.000 C 
ATOM     18  C   UNL     1      -5.603  12.001  19.659  0.00  0.00    +0.000 A 
ATOM     19  C   UNL     1      -6.837  11.326  19.704  0.00  0.00    +0.000 A 
ATOM     20  C   UNL     1      -7.652  11.382  20.833  0.00  0.00    +0.000 A 
ATOM     21  C   UNL     1      -7.243  12.110  21.942  0.00  0.00    +0.000 A 
ATOM     22  C   UNL     1      -6.024  12.785  21.916  0.00  0.00    +0.000 A 
ATOM     23  C   UNL     1      -5.189  12.752  20.782  0.00  0.00    +0.000 A 
ENDBRANCH  16  23
ENDBRANCH  15  16
ENDBRANCH  11  15
ENDBRANCH   1  12
BRANCH   5  24
ATOM     24  S   UNL     1       3.428   5.732  18.658  0.00  0.00    +0.000 S 
ATOM     25  O   UNL     1       3.641   5.488  17.246  0.00  0.00    +0.000 OA
ATOM     26  O   UNL     1       4.543   5.788  19.579  0.00  0.00    +0.000 OA
BRANCH  24  27
ATOM     27  N   UNL     1       2.309   4.567  19.243  0.00  0.00    +0.000 NA
ATOM     28  C   UNL     1       1.874   3.562  18.240  0.00  0.00    +0.000 C 
ATOM     29  C   UNL     1       0.790   2.640  18.787  0.00  0.00    +0.000 C 
ATOM     30  C   UNL     1       1.214   2.012  20.105  0.00  0.00    +0.000 C 
ATOM     31  C   UNL     1       1.513   3.113  21.109  0.00  0.00    +0.000 C 
ATOM     32  C   UNL     1       2.607   4.045  20.602  0.00  0.00    +0.000 C 
ENDBRANCH  24  27
ENDBRANCH   5  24
TORSDOF 6
ENDMDL
MODEL 8
REMARK VINA RESULT:      -8.3      3.133      9.880
REMARK  Name = 
REMARK  8 active torsions:
REMARK  status: ('A' for Active; 'I' for Inactive)
REMARK    1  A    between atoms: C_1  and  C_2
REMARK    2  A    between atoms: C_7  and  C_8
REMARK    3  A    between atoms: C_8  and  C_9
REMARK    4  A    between atoms: C_9  and  N_10
REMARK    5  A    between atoms: C_11  and  C_13
REMARK    6  A    between atoms: C_17  and  S_18
REMARK    7  A    between atoms: S_18  and  N_21
REMARK    8  A    between atoms: N_30  and  C_31
REMARK                            x       y       z     vdW  Elec       q    Type
REMARK                         _______ _______ _______ _____ _____    ______ ____
ROOT
ATOM      1  C   UNL     1       0.454  10.388  20.586  0.00  0.00    +0.000 A 
ATOM      2  C   UNL     1       0.655   9.093  21.054  0.00  0.00    +0.000 A 
ATOM      3  C   UNL     1       1.403   8.367  20.088  0.00  0.00    +0.000 A 
ATOM      4  C   UNL     1       1.884   7.047  20.038  0.00  0.00    +0.000 A 
ATOM      5  C   UNL     1       2.588   6.623  18.904  0.00  0.00    +0.000 A 
ATOM      6  C   UNL     1       2.843   7.499  17.848  0.00  0.00    +0.000 A 
ATOM      7  C   UNL     1       2.368   8.814  17.884  0.00  0.00    +0.000 A 
ATOM      8  C   UNL     1       1.652   9.231  19.018  0.00  0.00    +0.000 A 
ATOM      9  N   UNL     1       1.097  10.455  19.359  0.00  0.00    +0.000 N 
ATOM     10  C   UNL     1       1.210  11.659  18.555  0.00  0.00    +0.000 C 
ENDROOT
BRANCH   1  12
ATOM     11  N   UNL     1      -1.539  11.740  20.665  0.00  0.00    +0.000 N 
ATOM     12  C   UNL     1      -0.285  11.484  21.192  0.00  0.00    +0.000 C 
ATOM     13  O   UNL     1       0.158  12.149  22.125  0.00  0.00    +0.000 OA
ATOM     14  H   UNL     1      -1.964  11.051  20.062  0.00  0.00    +0.000 HD
BRANCH  11  15
ATOM     15  C   UNL     1      -2.356  12.769  21.280  0.00  0.00    +0.000 C 
BRANCH  15  16
ATOM     16  C   UNL     1      -3.781  12.865  20.734  0.00  0.00    +0.000 C 
BRANCH  16  23
ATOM     17  C   UNL     1      -6.819  12.559  20.283  0.00  0.00    +0.000 C 
ATOM     18  C   UNL     1      -6.193  12.656  21.647  0.00  0.00    +0.000 A 
ATOM     19  C   UNL     1      -7.048  12.589  22.764  0.00  0.00    +0.000 A 
ATOM     20  C   UNL     1      -6.549  12.665  24.063  0.00  0.00    +0.000 A 
ATOM     21  C   UNL     1      -5.183  12.805  24.269  0.00  0.00    +0.000 A 
ATOM     22  C   UNL     1      -4.321  12.874  23.176  0.00  0.00    +0.000 A 
ATOM     23  C   UNL     1      -4.804  12.811  21.854  0.00  0.00    +0.000 A 
ENDBRANCH  16  23
ENDBRANCH  15  16
ENDBRANCH  11  15
ENDBRANCH   1  12
BRANCH   5  24
ATOM     24  S   UNL     1       3.260   4.967  18.872  0.00  0.00    +0.000 S 
ATOM     25  O   UNL     1       3.364   4.521  20.246  0.00  0.00    +0.000 OA
ATOM     26  O   UNL     1       2.494   4.214  17.902  0.00  0.00    +0.000 OA
BRANCH  24  27
ATOM     27  N   UNL     1       4.849   5.174  18.251  0.00  0.00    +0.000 NA
ATOM     28  C   UNL     1       5.914   5.270  19.283  0.00  0.00    +0.000 C 
ATOM     29  C   UNL     1       7.276   5.581  18.673  0.00  0.00    +0.000 C 
ATOM     30  C   UNL     1       7.618   4.601  17.562  0.00  0.00    +0.000 C 
ATOM     31  C   UNL     1       6.542   4.667  16.489  0.00  0.00    +0.000 C 
ATOM     32  C   UNL     1       5.167   4.344  17.062  0.00  0.00    +0.000 C 
ENDBRANCH  24  27
ENDBRANCH   5  24
TORSDOF 6
ENDMDL
MODEL 9
REMARK VINA RESULT:      -8.2      2.971      9.635
REMARK  Name = 
REMARK  8 active torsions:
REMARK  status: ('A' for Active; 'I' for Inactive)
REMARK    1  A    between atoms: C_1  and  C_2
REMARK    2  A    between atoms: C_7  and  C_8
REMARK    3  A    between atoms: C_8  and  C_9
REMARK    4  A    between atoms: C_9  and  N_10
REMARK    5  A    between atoms: C_11  and  C_13
REMARK    6  A    between atoms: C_17  and  S_18
REMARK    7  A    between atoms: S_18  and  N_21
REMARK    8  A    between atoms: N_30  and  C_31
REMARK                            x       y       z     vdW  Elec       q    Type
REMARK                         _______ _______ _______ _____ _____    ______ ____
ROOT
ATOM      1  C   UNL     1       0.420  10.521  20.700  0.00  0.00    +0.000 A 
ATOM      2  C   UNL     1       0.650   9.233  21.173  0.00  0.00    +0.000 A 
ATOM      3  C   UNL     1       1.362   8.502  20.183  0.00  0.00    +0.000 A 
ATOM      4  C   UNL     1       1.850   7.184  20.127  0.00  0.00    +0.000 A 
ATOM      5  C   UNL     1       2.508   6.753  18.969  0.00  0.00    +0.000 A 
ATOM      6  C   UNL     1       2.711   7.619  17.893  0.00  0.00    +0.000 A 
ATOM      7  C   UNL     1       2.228   8.931  17.936  0.00  0.00    +0.000 A 
ATOM      8  C   UNL     1       1.559   9.356  19.095  0.00  0.00    +0.000 A 
ATOM      9  N   UNL     1       1.009  10.579  19.446  0.00  0.00    +0.000 N 
ATOM     10  C   UNL     1       1.079  11.776  18.625  0.00  0.00    +0.000 C 
ENDROOT
BRANCH   1  12
ATOM     11  N   UNL     1      -1.655  11.697  21.048  0.00  0.00    +0.000 N 
ATOM     12  C   UNL     1      -0.301  11.618  21.326  0.00  0.00    +0.000 C 
ATOM     13  O   UNL     1       0.241  12.433  22.068  0.00  0.00    +0.000 OA
ATOM     14  H   UNL     1      -2.112  10.902  20.625  0.00  0.00    +0.000 HD
BRANCH  11  15
ATOM     15  C   UNL     1      -2.443  12.722  21.705  0.00  0.00    +0.000 C 
BRANCH  15  16
ATOM     16  C   UNL     1      -3.384  13.495  20.781  0.00  0.00    +0.000 C 
BRANCH  16  23
ATOM     17  C   UNL     1      -4.349  11.789  18.396  0.00  0.00    +0.000 C 
ATOM     18  C   UNL     1      -5.184  12.040  19.622  0.00  0.00    +0.000 A 
ATOM     19  C   UNL     1      -6.461  11.450  19.675  0.00  0.00    +0.000 A 
ATOM     20  C   UNL     1      -7.296  11.627  20.776  0.00  0.00    +0.000 A 
ATOM     21  C   UNL     1      -6.866  12.396  21.850  0.00  0.00    +0.000 A 
ATOM     22  C   UNL     1      -5.605  12.989  21.816  0.00  0.00    +0.000 A 
ATOM     23  C   UNL     1      -4.749  12.833  20.708  0.00  0.00    +0.000 A 
ENDBRANCH  16  23
ENDBRANCH  15  16
ENDBRANCH  11  15
ENDBRANCH   1  12
BRANCH   5  24
ATOM     24  S   UNL     1       3.191   5.101  18.925  0.00  0.00    +0.000 S 
ATOM     25  O   UNL     1       3.324   4.657  20.298  0.00  0.00    +0.000 OA
ATOM     26  O   UNL     1       2.413   4.343  17.970  0.00  0.00    +0.000 OA
BRANCH  24  27
ATOM     27  N   UNL     1       4.767   5.320  18.275  0.00  0.00    +0.000 NA
ATOM     28  C   UNL     1       5.868   5.235  19.269  0.00  0.00    +0.000 C 
ATOM     29  C   UNL     1       7.223   5.563  18.651  0.00  0.00    +0.000 C 
ATOM     30  C   UNL     1       7.481   4.723  17.411  0.00  0.00    +0.000 C 
ATOM     31  C   UNL     1       6.375   4.973  16.399  0.00  0.00    +0.000 C 
ATOM     32  C   UNL     1       5.006   4.638  16.978  0.00  0.00    +0.000 C 
ENDBRANCH  24  27
ENDBRANCH   5  24
TORSDOF 6
ENDMDL
