MODEL 1
REMARK VINA RESULT:      -7.4      0.000      0.000
REMARK  Name = 
REMARK  2 active torsions:
REMARK  status: ('A' for Active; 'I' for Inactive)
REMARK    1  A    between atoms: C_14  and  C_16
REMARK    2  A    between atoms: C_16  and  C_17
REMARK                            x       y       z     vdW  Elec       q    Type
REMARK                         _______ _______ _______ _____ _____    ______ ____
ROOT
ATOM      1  N   UNL     1      -2.828  13.756  20.499  0.00  0.00    +0.000 N 
ATOM      2  C   UNL     1      -2.208  12.716  19.836  0.00  0.00    +0.000 A 
ATOM      3  N   UNL     1      -3.001  11.867  19.154  0.00  0.00    +0.000 NA
ATOM      4  C   UNL     1      -2.412  10.857  18.508  0.00  0.00    +0.000 A 
ATOM      5  N   UNL     1      -3.219  10.017  17.741  0.00  0.00    +0.000 N 
ATOM      6  C   UNL     1      -1.068  10.689  18.551  0.00  0.00    +0.000 A 
ATOM      7  C   UNL     1      -0.363  11.590  19.290  0.00  0.00    +0.000 A 
ATOM      8  N   UNL     1      -0.881  12.615  19.960  0.00  0.00    +0.000 NA
ATOM      9  O   UNL     1       1.005  11.334  19.295  0.00  0.00    +0.000 OA
ATOM     10  C   UNL     1       1.104   9.984  18.752  0.00  0.00    +0.000 C 
ATOM     11  C   UNL     1       2.368   9.871  17.888  0.00  0.00    +0.000 C 
ATOM     12  C   UNL     1       2.567   8.436  17.405  0.00  0.00    +0.000 C 
ATOM     13  N   UNL     1       2.609   7.513  18.542  0.00  0.00    +0.000 N 
ATOM     14  C   UNL     1       3.574   6.531  18.748  0.00  0.00    +0.000 C 
ATOM     15  O   UNL     1       3.581   5.835  19.762  0.00  0.00    +0.000 OA
ATOM     16  C   UNL     1       1.485   7.579  19.474  0.00  0.00    +0.000 C 
ATOM     17  C   UNL     1       1.235   9.006  19.939  0.00  0.00    +0.000 C 
ATOM     18  C   UNL     1      -0.161   9.740  17.896  0.00  0.00    +0.000 C 
ATOM     19  H   UNL     1      -3.790  13.520  20.697  0.00  0.00    +0.000 HD
ATOM     20  H   UNL     1      -2.250  14.069  21.266  0.00  0.00    +0.000 HD
ATOM     21  H   UNL     1      -4.187  10.290  17.887  0.00  0.00    +0.000 HD
ATOM     22  H   UNL     1      -3.061   9.034  17.932  0.00  0.00    +0.000 HD
ENDROOT
BRANCH  14  23
ATOM     23  C   UNL     1       4.620   6.361  17.659  0.00  0.00    +0.000 C 
BRANCH  23  24
ATOM     24  C   UNL     1       5.398   5.031  17.740  0.00  0.00    +0.000 C 
ATOM     25  C   UNL     1       4.974   4.000  16.677  0.00  0.00    +0.000 C 
ATOM     26  C   UNL     1       5.433   4.404  15.281  0.00  0.00    +0.000 C 
ATOM     27  C   UNL     1       6.929   4.704  15.261  0.00  0.00    +0.000 C 
ATOM     28  N   UNL     1       7.314   5.702  16.263  0.00  0.00    +0.000 NA
ATOM     29  C   UNL     1       6.912   5.281  17.609  0.00  0.00    +0.000 C 
ATOM     30  H   UNL     1       6.877   6.593  16.034  0.00  0.00    +0.000 HD
ENDBRANCH  23  24
ENDBRANCH  14  23
TORSDOF 2
ENDMDL
MODEL 2
REMARK VINA RESULT:      -7.1      2.645      8.853
REMARK  Name = 
REMARK  2 active torsions:
REMARK  status: ('A' for Active; 'I' for Inactive)
REMARK    1  A    between atoms: C_14  and  C_16
REMARK    2  A    between atoms: C_16  and  C_17
REMARK                            x       y       z     vdW  Elec       q    Type
REMARK                         _______ _______ _______ _____ _____    ______ ____
ROOT
ATOM      1  N   UNL     1       4.064   0.823  18.479  0.00  0.00    +0.000 N 
ATOM      2  C   UNL     1       4.039   2.198  18.596  0.00  0.00    +0.000 A 
ATOM      3  N   UNL     1       5.168   2.795  19.026  0.00  0.00    +0.000 NA
ATOM      4  C   UNL     1       5.156   4.126  19.143  0.00  0.00    +0.000 A 
ATOM      5  N   UNL     1       6.341   4.757  19.517  0.00  0.00    +0.000 N 
ATOM      6  C   UNL     1       4.043   4.843  18.851  0.00  0.00    +0.000 A 
ATOM      7  C   UNL     1       2.949   4.138  18.449  0.00  0.00    +0.000 A 
ATOM      8  N   UNL     1       2.889   2.816  18.313  0.00  0.00    +0.000 NA
ATOM      9  O   UNL     1       1.848   4.947  18.187  0.00  0.00    +0.000 OA
ATOM     10  C   UNL     1       2.221   6.232  18.768  0.00  0.00    +0.000 C 
ATOM     11  C   UNL     1       1.672   7.369  17.894  0.00  0.00    +0.000 C 
ATOM     12  C   UNL     1       1.939   8.726  18.541  0.00  0.00    +0.000 C 
ATOM     13  N   UNL     1       1.378   8.770  19.893  0.00  0.00    +0.000 N 
ATOM     14  C   UNL     1       0.580   9.790  20.403  0.00  0.00    +0.000 C 
ATOM     15  O   UNL     1       0.090   9.726  21.530  0.00  0.00    +0.000 OA
ATOM     16  C   UNL     1       1.779   7.694  20.798  0.00  0.00    +0.000 C 
ATOM     17  C   UNL     1       1.566   6.328  20.162  0.00  0.00    +0.000 C 
ATOM     18  C   UNL     1       3.767   6.283  18.815  0.00  0.00    +0.000 C 
ATOM     19  H   UNL     1       4.774   0.433  19.083  0.00  0.00    +0.000 HD
ATOM     20  H   UNL     1       3.127   0.454  18.551  0.00  0.00    +0.000 HD
ATOM     21  H   UNL     1       7.027   4.038  19.732  0.00  0.00    +0.000 HD
ATOM     22  H   UNL     1       6.217   5.413  20.281  0.00  0.00    +0.000 HD
ENDROOT
BRANCH  14  23
ATOM     23  C   UNL     1       0.341  10.988  19.499  0.00  0.00    +0.000 C 
BRANCH  23  24
ATOM     24  C   UNL     1      -0.625  12.036  20.090  0.00  0.00    +0.000 C 
ATOM     25  C   UNL     1       0.085  13.185  20.829  0.00  0.00    +0.000 C 
ATOM     26  C   UNL     1       0.811  14.117  19.865  0.00  0.00    +0.000 C 
ATOM     27  C   UNL     1      -0.126  14.603  18.762  0.00  0.00    +0.000 C 
ATOM     28  N   UNL     1      -0.778  13.498  18.054  0.00  0.00    +0.000 NA
ATOM     29  C   UNL     1      -1.515  12.635  18.984  0.00  0.00    +0.000 C 
ATOM     30  H   UNL     1      -0.073  12.953  17.561  0.00  0.00    +0.000 HD
ENDBRANCH  23  24
ENDBRANCH  14  23
TORSDOF 2
ENDMDL
MODEL 3
REMARK VINA RESULT:      -7.0      8.638     10.019
REMARK  Name = 
REMARK  2 active torsions:
REMARK  status: ('A' for Active; 'I' for Inactive)
REMARK    1  A    between atoms: C_14  and  C_16
REMARK    2  A    between atoms: C_16  and  C_17
REMARK                            x       y       z     vdW  Elec       q    Type
REMARK                         _______ _______ _______ _____ _____    ______ ____
ROOT
ATOM      1  N   UNL     1       3.833  10.240  27.369  0.00  0.00    +0.000 N 
ATOM      2  C   UNL     1       4.942  10.794  26.761  0.00  0.00    +0.000 A 
ATOM      3  N   UNL     1       5.846  11.387  27.564  0.00  0.00    +0.000 NA
ATOM      4  C   UNL     1       6.924  11.926  26.987  0.00  0.00    +0.000 A 
ATOM      5  N   UNL     1       7.899  12.477  27.817  0.00  0.00    +0.000 N 
ATOM      6  C   UNL     1       7.090  11.887  25.642  0.00  0.00    +0.000 A 
ATOM      7  C   UNL     1       6.103  11.285  24.922  0.00  0.00    +0.000 A 
ATOM      8  N   UNL     1       5.005  10.731  25.427  0.00  0.00    +0.000 NA
ATOM      9  O   UNL     1       6.344  11.304  23.551  0.00  0.00    +0.000 OA
ATOM     10  C   UNL     1       7.431  12.266  23.407  0.00  0.00    +0.000 C 
ATOM     11  C   UNL     1       8.376  11.807  22.287  0.00  0.00    +0.000 C 
ATOM     12  C   UNL     1       9.456  12.855  22.028  0.00  0.00    +0.000 C 
ATOM     13  N   UNL     1       8.849  14.153  21.721  0.00  0.00    +0.000 N 
ATOM     14  C   UNL     1       9.189  14.968  20.645  0.00  0.00    +0.000 C 
ATOM     15  O   UNL     1       8.589  16.017  20.413  0.00  0.00    +0.000 OA
ATOM     16  C   UNL     1       7.878  14.660  22.688  0.00  0.00    +0.000 C 
ATOM     17  C   UNL     1       6.812  13.620  23.000  0.00  0.00    +0.000 C 
ATOM     18  C   UNL     1       8.180  12.318  24.760  0.00  0.00    +0.000 C 
ATOM     19  H   UNL     1       3.666  10.683  28.261  0.00  0.00    +0.000 HD
ATOM     20  H   UNL     1       3.067  10.194  26.712  0.00  0.00    +0.000 HD
ATOM     21  H   UNL     1       7.554  12.445  28.773  0.00  0.00    +0.000 HD
ATOM     22  H   UNL     1       8.175  13.412  27.538  0.00  0.00    +0.000 HD
ENDROOT
BRANCH  14  23
ATOM     23  C   UNL     1      10.339  14.499  19.768  0.00  0.00    +0.000 C 
BRANCH  23  24
ATOM     24  C   UNL     1       9.934  14.201  18.310  0.00  0.00    +0.000 C 
ATOM     25  C   UNL     1      11.113  13.788  17.411  0.00  0.00    +0.000 C 
ATOM     26  C   UNL     1      11.628  12.395  17.754  0.00  0.00    +0.000 C 
ATOM     27  C   UNL     1      10.491  11.376  17.755  0.00  0.00    +0.000 C 
ATOM     28  N   UNL     1       9.385  11.772  18.632  0.00  0.00    +0.000 NA
ATOM     29  C   UNL     1       8.865  13.093  18.262  0.00  0.00    +0.000 C 
ATOM     30  H   UNL     1       9.710  11.786  19.596  0.00  0.00    +0.000 HD
ENDBRANCH  23  24
ENDBRANCH  14  23
TORSDOF 2
ENDMDL
MODEL 4
REMARK VINA RESULT:      -6.9      2.950      4.142
REMARK  Name = 
REMARK  2 active torsions:
REMARK  status: ('A' for Active; 'I' for Inactive)
REMARK    1  A    between atoms: C_14  and  C_16
REMARK    2  A    between atoms: C_16  and  C_17
REMARK                            x       y       z     vdW  Elec       q    Type
REMARK                         _______ _______ _______ _____ _____    ______ ____
ROOT
ATOM      1  N   UNL     1      -3.023  15.156  20.392  0.00  0.00    +0.000 N 
ATOM      2  C   UNL     1      -2.011  14.234  20.569  0.00  0.00    +0.000 A 
ATOM      3  N   UNL     1      -0.789  14.718  20.863  0.00  0.00    +0.000 NA
ATOM      4  C   UNL     1       0.199  13.835  21.038  0.00  0.00    +0.000 A 
ATOM      5  N   UNL     1       1.450  14.323  21.414  0.00  0.00    +0.000 N 
ATOM      6  C   UNL     1      -0.023  12.504  20.910  0.00  0.00    +0.000 A 
ATOM      7  C   UNL     1      -1.290  12.123  20.586  0.00  0.00    +0.000 A 
ATOM      8  N   UNL     1      -2.319  12.945  20.395  0.00  0.00    +0.000 NA
ATOM      9  O   UNL     1      -1.427  10.745  20.457  0.00  0.00    +0.000 OA
ATOM     10  C   UNL     1      -0.049  10.267  20.408  0.00  0.00    +0.000 C 
ATOM     11  C   UNL     1       0.051   8.917  21.133  0.00  0.00    +0.000 C 
ATOM     12  C   UNL     1       1.454   8.331  20.993  0.00  0.00    +0.000 C 
ATOM     13  N   UNL     1       1.822   8.210  19.580  0.00  0.00    +0.000 N 
ATOM     14  C   UNL     1       2.356   7.073  18.981  0.00  0.00    +0.000 C 
ATOM     15  O   UNL     1       2.580   7.024  17.772  0.00  0.00    +0.000 OA
ATOM     16  C   UNL     1       1.700   9.421  18.772  0.00  0.00    +0.000 C 
ATOM     17  C   UNL     1       0.324  10.054  18.926  0.00  0.00    +0.000 C 
ATOM     18  C   UNL     1       0.830  11.327  21.113  0.00  0.00    +0.000 C 
ATOM     19  H   UNL     1      -2.638  16.052  20.130  0.00  0.00    +0.000 HD
ATOM     20  H   UNL     1      -3.748  14.764  19.808  0.00  0.00    +0.000 HD
ATOM     21  H   UNL     1       1.407  15.339  21.405  0.00  0.00    +0.000 HD
ATOM     22  H   UNL     1       2.204  13.963  20.840  0.00  0.00    +0.000 HD
ENDROOT
BRANCH  14  23
ATOM     23  C   UNL     1       2.651   5.893  19.892  0.00  0.00    +0.000 C 
BRANCH  23  24
ATOM     24  C   UNL     1       2.680   4.533  19.166  0.00  0.00    +0.000 C 
ATOM     25  C   UNL     1       3.495   3.454  19.903  0.00  0.00    +0.000 C 
ATOM     26  C   UNL     1       2.793   2.979  21.170  0.00  0.00    +0.000 C 
ATOM     27  C   UNL     1       1.359   2.547  20.873  0.00  0.00    +0.000 C 
ATOM     28  N   UNL     1       0.590   3.591  20.191  0.00  0.00    +0.000 NA
ATOM     29  C   UNL     1       1.248   4.006  18.948  0.00  0.00    +0.000 C 
ATOM     30  H   UNL     1       0.486   4.392  20.812  0.00  0.00    +0.000 HD
ENDBRANCH  23  24
ENDBRANCH  14  23
TORSDOF 2
ENDMDL
MODEL 5
REMARK VINA RESULT:      -6.9      2.631      8.655
REMARK  Name = 
REMARK  2 active torsions:
REMARK  status: ('A' for Active; 'I' for Inactive)
REMARK    1  A    between atoms: C_14  and  C_16
REMARK    2  A    between atoms: C_16  and  C_17
REMARK                            x       y       z     vdW  Elec       q    Type
REMARK                         _______ _______ _______ _____ _____    ______ ____
ROOT
ATOM      1  N   UNL     1       4.075   1.163  18.404  0.00  0.00    +0.000 N 
ATOM      2  C   UNL     1       4.060   2.540  18.497  0.00  0.00    +0.000 A 
ATOM      3  N   UNL     1       5.174   3.133  18.970  0.00  0.00    +0.000 NA
ATOM      4  C   UNL     1       5.172   4.466  19.064  0.00  0.00    +0.000 A 
ATOM      5  N   UNL     1       6.346   5.091  19.483  0.00  0.00    +0.000 N 
ATOM      6  C   UNL     1       4.082   5.189  18.709  0.00  0.00    +0.000 A 
ATOM      7  C   UNL     1       3.000   4.489  18.268  0.00  0.00    +0.000 A 
ATOM      8  N   UNL     1       2.931   3.166  18.151  0.00  0.00    +0.000 NA
ATOM      9  O   UNL     1       1.921   5.306  17.942  0.00  0.00    +0.000 OA
ATOM     10  C   UNL     1       2.282   6.596  18.519  0.00  0.00    +0.000 C 
ATOM     11  C   UNL     1       1.786   7.724  17.602  0.00  0.00    +0.000 C 
ATOM     12  C   UNL     1       2.039   9.089  18.238  0.00  0.00    +0.000 C 
ATOM     13  N   UNL     1       1.416   9.161  19.562  0.00  0.00    +0.000 N 
ATOM     14  C   UNL     1       0.606  10.198  20.017  0.00  0.00    +0.000 C 
ATOM     15  O   UNL     1       0.064  10.158  21.121  0.00  0.00    +0.000 OA
ATOM     16  C   UNL     1       1.763   8.096  20.502  0.00  0.00    +0.000 C 
ATOM     17  C   UNL     1       1.564   6.722  19.879  0.00  0.00    +0.000 C 
ATOM     18  C   UNL     1       3.824   6.632  18.637  0.00  0.00    +0.000 C 
ATOM     19  H   UNL     1       4.752   0.777  19.047  0.00  0.00    +0.000 HD
ATOM     20  H   UNL     1       3.132   0.806  18.438  0.00  0.00    +0.000 HD
ATOM     21  H   UNL     1       7.013   4.368  19.741  0.00  0.00    +0.000 HD
ATOM     22  H   UNL     1       6.193   5.760  20.230  0.00  0.00    +0.000 HD
ENDROOT
BRANCH  14  23
ATOM     23  C   UNL     1       0.424  11.383  19.083  0.00  0.00    +0.000 C 
BRANCH  23  24
ATOM     24  C   UNL     1       1.488  12.487  19.257  0.00  0.00    +0.000 C 
ATOM     25  C   UNL     1       1.089  13.836  18.631  0.00  0.00    +0.000 C 
ATOM     26  C   UNL     1      -0.024  14.519  19.418  0.00  0.00    +0.000 C 
ATOM     27  C   UNL     1       0.338  14.629  20.897  0.00  0.00    +0.000 C 
ATOM     28  N   UNL     1       0.695  13.334  21.483  0.00  0.00    +0.000 NA
ATOM     29  C   UNL     1       1.799  12.707  20.749  0.00  0.00    +0.000 C 
ATOM     30  H   UNL     1      -0.120  12.723  21.470  0.00  0.00    +0.000 HD
ENDBRANCH  23  24
ENDBRANCH  14  23
TORSDOF 2
ENDMDL
MODEL 6
REMARK VINA RESULT:      -6.8      2.815      3.749
REMARK  Name = 
REMARK  2 active torsions:
REMARK  status: ('A' for Active; 'I' for Inactive)
REMARK    1  A    between atoms: C_14  and  C_16
REMARK    2  A    between atoms: C_16  and  C_17
REMARK                            x       y       z     vdW  Elec       q    Type
REMARK                         _______ _______ _______ _____ _____    ______ ____
ROOT
ATOM      1  N   UNL     1      -3.311  14.840  20.526  0.00  0.00    +0.000 N 
ATOM      2  C   UNL     1      -2.256  13.964  20.685  0.00  0.00    +0.000 A 
ATOM      3  N   UNL     1      -1.061  14.497  21.005  0.00  0.00    +0.000 NA
ATOM      4  C   UNL     1      -0.033  13.658  21.162  0.00  0.00    +0.000 A 
ATOM      5  N   UNL     1       1.189  14.194  21.565  0.00  0.00    +0.000 N 
ATOM      6  C   UNL     1      -0.189  12.322  20.989  0.00  0.00    +0.000 A 
ATOM      7  C   UNL     1      -1.433  11.892  20.641  0.00  0.00    +0.000 A 
ATOM      8  N   UNL     1      -2.499  12.668  20.466  0.00  0.00    +0.000 NA
ATOM      9  O   UNL     1      -1.501  10.513  20.467  0.00  0.00    +0.000 OA
ATOM     10  C   UNL     1      -0.101  10.105  20.416  0.00  0.00    +0.000 C 
ATOM     11  C   UNL     1       0.059   8.739  21.099  0.00  0.00    +0.000 C 
ATOM     12  C   UNL     1       1.491   8.226  20.954  0.00  0.00    +0.000 C 
ATOM     13  N   UNL     1       1.875   8.169  19.542  0.00  0.00    +0.000 N 
ATOM     14  C   UNL     1       2.469   7.079  18.911  0.00  0.00    +0.000 C 
ATOM     15  O   UNL     1       2.705   7.080  17.704  0.00  0.00    +0.000 OA
ATOM     16  C   UNL     1       1.700   9.398  18.771  0.00  0.00    +0.000 C 
ATOM     17  C   UNL     1       0.294   9.957  18.932  0.00  0.00    +0.000 C 
ATOM     18  C   UNL     1       0.719  11.183  21.163  0.00  0.00    +0.000 C 
ATOM     19  H   UNL     1      -2.967  15.763  20.298  0.00  0.00    +0.000 HD
ATOM     20  H   UNL     1      -4.010  14.433  19.923  0.00  0.00    +0.000 HD
ATOM     21  H   UNL     1       1.096  15.207  21.588  0.00  0.00    +0.000 HD
ATOM     22  H   UNL     1       1.965  13.890  20.987  0.00  0.00    +0.000 HD
ENDROOT
BRANCH  14  23
ATOM     23  C   UNL     1       2.814   5.886  19.788  0.00  0.00    +0.000 C 
BRANCH  23  24
ATOM     24  C   UNL     1       1.734   4.785  19.801  0.00  0.00    +0.000 C 
ATOM     25  C   UNL     1       1.525   4.107  18.434  0.00  0.00    +0.000 C 
ATOM     26  C   UNL     1       2.703   3.215  18.057  0.00  0.00    +0.000 C 
ATOM     27  C   UNL     1       3.019   2.225  19.174  0.00  0.00    +0.000 C 
ATOM     28  N   UNL     1       3.236   2.886  20.464  0.00  0.00    +0.000 NA
ATOM     29  C   UNL     1       2.078   3.703  20.841  0.00  0.00    +0.000 C 
ATOM     30  H   UNL     1       4.068   3.471  20.406  0.00  0.00    +0.000 HD
ENDBRANCH  23  24
ENDBRANCH  14  23
TORSDOF 2
ENDMDL
MODEL 7
REMARK VINA RESULT:      -6.8      2.232      8.921
REMARK  Name = 
REMARK  2 active torsions:
REMARK  status: ('A' for Active; 'I' for Inactive)
REMARK    1  A    between atoms: C_14  and  C_16
REMARK    2  A    between atoms: C_16  and  C_17
REMARK                            x       y       z     vdW  Elec       q    Type
REMARK                         _______ _______ _______ _____ _____    ______ ____
ROOT
ATOM      1  N   UNL     1       4.470   5.442  16.862  0.00  0.00    +0.000 N 
ATOM      2  C   UNL     1       3.693   6.252  17.666  0.00  0.00    +0.000 A 
ATOM      3  N   UNL     1       3.232   5.713  18.812  0.00  0.00    +0.000 NA
ATOM      4  C   UNL     1       2.479   6.487  19.599  0.00  0.00    +0.000 A 
ATOM      5  N   UNL     1       2.059   5.960  20.820  0.00  0.00    +0.000 N 
ATOM      6  C   UNL     1       2.182   7.762  19.247  0.00  0.00    +0.000 A 
ATOM      7  C   UNL     1       2.678   8.199  18.056  0.00  0.00    +0.000 A 
ATOM      8  N   UNL     1       3.429   7.485  17.223  0.00  0.00    +0.000 NA
ATOM      9  O   UNL     1       2.311   9.509  17.764  0.00  0.00    +0.000 OA
ATOM     10  C   UNL     1       1.252   9.791  18.726  0.00  0.00    +0.000 C 
ATOM     11  C   UNL     1       1.346  11.257  19.176  0.00  0.00    +0.000 C 
ATOM     12  C   UNL     1       0.176  11.618  20.090  0.00  0.00    +0.000 C 
ATOM     13  N   UNL     1      -1.099  11.341  19.425  0.00  0.00    +0.000 N 
ATOM     14  C   UNL     1      -2.174  12.222  19.343  0.00  0.00    +0.000 C 
ATOM     15  O   UNL     1      -3.192  11.943  18.710  0.00  0.00    +0.000 OA
ATOM     16  C   UNL     1      -1.275   9.991  18.893  0.00  0.00    +0.000 C 
ATOM     17  C   UNL     1      -0.101   9.586  18.013  0.00  0.00    +0.000 C 
ATOM     18  C   UNL     1       1.459   8.841  19.929  0.00  0.00    +0.000 C 
ATOM     19  H   UNL     1       4.269   4.470  17.047  0.00  0.00    +0.000 HD
ATOM     20  H   UNL     1       4.424   5.762  15.905  0.00  0.00    +0.000 HD
ATOM     21  H   UNL     1       2.349   4.986  20.859  0.00  0.00    +0.000 HD
ATOM     22  H   UNL     1       1.064   6.074  20.979  0.00  0.00    +0.000 HD
ENDROOT
BRANCH  14  23
ATOM     23  C   UNL     1      -2.030  13.547  20.074  0.00  0.00    +0.000 C 
BRANCH  23  24
ATOM     24  C   UNL     1      -3.040  13.740  21.224  0.00  0.00    +0.000 C 
ATOM     25  C   UNL     1      -2.994  12.624  22.283  0.00  0.00    +0.000 C 
ATOM     26  C   UNL     1      -1.727  12.696  23.129  0.00  0.00    +0.000 C 
ATOM     27  C   UNL     1      -1.542  14.091  23.720  0.00  0.00    +0.000 C 
ATOM     28  N   UNL     1      -1.567  15.140  22.698  0.00  0.00    +0.000 NA
ATOM     29  C   UNL     1      -2.811  15.094  21.923  0.00  0.00    +0.000 C 
ATOM     30  H   UNL     1      -0.768  15.024  22.078  0.00  0.00    +0.000 HD
ENDBRANCH  23  24
ENDBRANCH  14  23
TORSDOF 2
ENDMDL
MODEL 8
REMARK VINA RESULT:      -6.8      0.842      1.066
REMARK  Name = 
REMARK  2 active torsions:
REMARK  status: ('A' for Active; 'I' for Inactive)
REMARK    1  A    between atoms: C_14  and  C_16
REMARK    2  A    between atoms: C_16  and  C_17
REMARK                            x       y       z     vdW  Elec       q    Type
REMARK                         _______ _______ _______ _____ _____    ______ ____
ROOT
ATOM      1  N   UNL     1      -2.997  13.558  20.182  0.00  0.00    +0.000 N 
ATOM      2  C   UNL     1      -2.308  12.521  19.585  0.00  0.00    +0.000 A 
ATOM      3  N   UNL     1      -3.024  11.668  18.827  0.00  0.00    +0.000 NA
ATOM      4  C   UNL     1      -2.368  10.660  18.244  0.00  0.00    +0.000 A 
ATOM      5  N   UNL     1      -3.089   9.817  17.400  0.00  0.00    +0.000 N 
ATOM      6  C   UNL     1      -1.034  10.499  18.423  0.00  0.00    +0.000 A 
ATOM      7  C   UNL     1      -0.412  11.403  19.229  0.00  0.00    +0.000 A 
ATOM      8  N   UNL     1      -1.000  12.426  19.842  0.00  0.00    +0.000 NA
ATOM      9  O   UNL     1       0.950  11.154  19.372  0.00  0.00    +0.000 OA
ATOM     10  C   UNL     1       1.109   9.804  18.843  0.00  0.00    +0.000 C 
ATOM     11  C   UNL     1       2.455   9.696  18.111  0.00  0.00    +0.000 C 
ATOM     12  C   UNL     1       2.708   8.262  17.651  0.00  0.00    +0.000 C 
ATOM     13  N   UNL     1       2.639   7.339  18.787  0.00  0.00    +0.000 N 
ATOM     14  C   UNL     1       3.583   6.362  19.091  0.00  0.00    +0.000 C 
ATOM     15  O   UNL     1       3.491   5.666  20.101  0.00  0.00    +0.000 OA
ATOM     16  C   UNL     1       1.426   7.401  19.601  0.00  0.00    +0.000 C 
ATOM     17  C   UNL     1       1.124   8.826  20.037  0.00  0.00    +0.000 C 
ATOM     18  C   UNL     1      -0.062   9.554  17.863  0.00  0.00    +0.000 C 
ATOM     19  H   UNL     1      -3.973  13.317  20.281  0.00  0.00    +0.000 HD
ATOM     20  H   UNL     1      -2.501  13.873  21.002  0.00  0.00    +0.000 HD
ATOM     21  H   UNL     1      -4.069  10.085  17.447  0.00  0.00    +0.000 HD
ATOM     22  H   UNL     1      -2.947   8.834  17.606  0.00  0.00    +0.000 HD
ENDROOT
BRANCH  14  23
ATOM     23  C   UNL     1       4.735   6.196  18.113  0.00  0.00    +0.000 C 
BRANCH  23  24
ATOM     24  C   UNL     1       4.327   5.564  16.766  0.00  0.00    +0.000 C 
ATOM     25  C   UNL     1       5.125   6.099  15.563  0.00  0.00    +0.000 C 
ATOM     26  C   UNL     1       6.568   5.607  15.576  0.00  0.00    +0.000 C 
ATOM     27  C   UNL     1       6.628   4.087  15.706  0.00  0.00    +0.000 C 
ATOM     28  N   UNL     1       5.881   3.595  16.867  0.00  0.00    +0.000 NA
ATOM     29  C   UNL     1       4.482   4.032  16.820  0.00  0.00    +0.000 C 
ATOM     30  H   UNL     1       6.322   3.935  17.719  0.00  0.00    +0.000 HD
ENDBRANCH  23  24
ENDBRANCH  14  23
TORSDOF 2
ENDMDL
MODEL 9
REMARK VINA RESULT:      -6.7      3.002      4.270
REMARK  Name = 
REMARK  2 active torsions:
REMARK  status: ('A' for Active; 'I' for Inactive)
REMARK    1  A    between atoms: C_14  and  C_16
REMARK    2  A    between atoms: C_16  and  C_17
REMARK                            x       y       z     vdW  Elec       q    Type
REMARK                         _______ _______ _______ _____ _____    ______ ____
ROOT
ATOM      1  N   UNL     1      -0.957  15.931  18.760  0.00  0.00    +0.000 N 
ATOM      2  C   UNL     1      -0.250  14.826  19.189  0.00  0.00    +0.000 A 
ATOM      3  N   UNL     1       1.024  15.029  19.579  0.00  0.00    +0.000 NA
ATOM      4  C   UNL     1       1.719  13.967  19.997  0.00  0.00    +0.000 A 
ATOM      5  N   UNL     1       3.012  14.181  20.470  0.00  0.00    +0.000 N 
ATOM      6  C   UNL     1       1.163  12.731  20.013  0.00  0.00    +0.000 A 
ATOM      7  C   UNL     1      -0.123  12.633  19.574  0.00  0.00    +0.000 A 
ATOM      8  N   UNL     1      -0.872  13.644  19.142  0.00  0.00    +0.000 NA
ATOM      9  O   UNL     1      -0.609  11.329  19.607  0.00  0.00    +0.000 OA
ATOM     10  C   UNL     1       0.589  10.521  19.805  0.00  0.00    +0.000 C 
ATOM     11  C   UNL     1       0.256   9.323  20.705  0.00  0.00    +0.000 C 
ATOM     12  C   UNL     1       1.458   8.390  20.830  0.00  0.00    +0.000 C 
ATOM     13  N   UNL     1       1.913   7.957  19.507  0.00  0.00    +0.000 N 
ATOM     14  C   UNL     1       2.180   6.643  19.136  0.00  0.00    +0.000 C 
ATOM     15  O   UNL     1       2.497   6.347  17.984  0.00  0.00    +0.000 OA
ATOM     16  C   UNL     1       2.197   9.016  18.540  0.00  0.00    +0.000 C 
ATOM     17  C   UNL     1       1.032   9.988  18.426  0.00  0.00    +0.000 C 
ATOM     18  C   UNL     1       1.647  11.427  20.478  0.00  0.00    +0.000 C 
ATOM     19  H   UNL     1      -0.323  16.649  18.439  0.00  0.00    +0.000 HD
ATOM     20  H   UNL     1      -1.701  15.644  18.140  0.00  0.00    +0.000 HD
ATOM     21  H   UNL     1       3.243  15.161  20.325  0.00  0.00    +0.000 HD
ATOM     22  H   UNL     1       3.695  13.557  20.054  0.00  0.00    +0.000 HD
ENDROOT
BRANCH  14  23
ATOM     23  C   UNL     1       2.061   5.587  20.223  0.00  0.00    +0.000 C 
BRANCH  23  24
ATOM     24  C   UNL     1       1.682   4.187  19.698  0.00  0.00    +0.000 C 
ATOM     25  C   UNL     1       2.870   3.403  19.111  0.00  0.00    +0.000 C 
ATOM     26  C   UNL     1       3.839   2.945  20.196  0.00  0.00    +0.000 C 
ATOM     27  C   UNL     1       3.106   2.184  21.299  0.00  0.00    +0.000 C 
ATOM     28  N   UNL     1       1.991   2.951  21.862  0.00  0.00    +0.000 NA
ATOM     29  C   UNL     1       1.040   3.345  20.818  0.00  0.00    +0.000 C 
ATOM     30  H   UNL     1       2.356   3.779  22.329  0.00  0.00    +0.000 HD
ENDBRANCH  23  24
ENDBRANCH  14  23
TORSDOF 2
ENDMDL
