MODEL 1
REMARK VINA RESULT:      -7.6      0.000      0.000
REMARK  Name = 
REMARK  6 active torsions:
REMARK  status: ('A' for Active; 'I' for Inactive)
REMARK    1  A    between atoms: C_1  and  C_2
REMARK    2  A    between atoms: C_2  and  C_3
REMARK    3  A    between atoms: C_6  and  S_7
REMARK    4  A    between atoms: S_7  and  C_8
REMARK    5  A    between atoms: C_8  and  C_9
REMARK    6  A    between atoms: C_17  and  C_18
REMARK                            x       y       z     vdW  Elec       q    Type
REMARK                         _______ _______ _______ _____ _____    ______ ____
ROOT
ATOM      1  C   UNL     1       2.927   4.860  17.990  0.00  0.00    +0.000 C 
ATOM      2  O   UNL     1       2.134   4.246  17.278  0.00  0.00    +0.000 OA
ATOM      3  N   UNL     1       4.301   4.731  17.796  0.00  0.00    +0.000 N 
ATOM      4  C   UNL     1       5.355   5.316  18.659  0.00  0.00    +0.000 C 
ATOM      5  C   UNL     1       6.267   6.284  17.872  0.00  0.00    +0.000 C 
ATOM      6  C   UNL     1       6.581   5.666  16.562  0.00  0.00    +0.000 A 
ATOM      7  N   UNL     1       7.544   6.048  15.685  0.00  0.00    +0.000 N 
ATOM      8  N   UNL     1       7.571   5.283  14.582  0.00  0.00    +0.000 NA
ATOM      9  C   UNL     1       6.555   4.425  14.746  0.00  0.00    +0.000 A 
ATOM     10  C   UNL     1       5.906   4.607  15.989  0.00  0.00    +0.000 A 
ATOM     11  C   UNL     1       4.774   3.901  16.660  0.00  0.00    +0.000 C 
ATOM     12  H   UNL     1       8.214   6.806  15.760  0.00  0.00    +0.000 HD
ENDROOT
BRANCH   9  13
ATOM     13  C   UNL     1       6.175   3.383  13.696  0.00  0.00    +0.000 C 
ATOM     14  C   UNL     1       4.826   3.650  12.958  0.00  0.00    +0.000 C 
ATOM     15  C   UNL     1       5.516   3.245  11.647  0.00  0.00    +0.000 C 
ATOM     16  C   UNL     1       6.848   3.632  12.311  0.00  0.00    +0.000 C 
ENDBRANCH   9  13
BRANCH   1  17
ATOM     17  C   UNL     1       2.468   5.791  19.117  0.00  0.00    +0.000 C 
BRANCH  17  18
ATOM     18  S   UNL     1       2.510   7.539  18.608  0.00  0.00    +0.000 S 
BRANCH  18  22
ATOM     19  C   UNL     1       0.541   9.718  21.044  0.00  0.00    +0.000 A 
ATOM     20  N   UNL     1       0.674   8.658  21.812  0.00  0.00    +0.000 NA
ATOM     21  N   UNL     1       1.385   7.733  21.074  0.00  0.00    +0.000 NA
ATOM     22  C   UNL     1       1.638   8.290  19.906  0.00  0.00    +0.000 A 
ATOM     23  O   UNL     1       1.127   9.561  19.819  0.00  0.00    +0.000 OA
BRANCH  19  25
ATOM     24  C   UNL     1      -1.128  11.362  20.210  0.00  0.00    +0.000 C 
ATOM     25  C   UNL     1      -0.154  10.999  21.317  0.00  0.00    +0.000 C 
ENDBRANCH  19  25
ENDBRANCH  18  22
ENDBRANCH  17  18
ENDBRANCH   1  17
TORSDOF 5
ENDMDL
MODEL 2
REMARK VINA RESULT:      -7.4      2.129      2.665
REMARK  Name = 
REMARK  6 active torsions:
REMARK  status: ('A' for Active; 'I' for Inactive)
REMARK    1  A    between atoms: C_1  and  C_2
REMARK    2  A    between atoms: C_2  and  C_3
REMARK    3  A    between atoms: C_6  and  S_7
REMARK    4  A    between atoms: S_7  and  C_8
REMARK    5  A    between atoms: C_8  and  C_9
REMARK    6  A    between atoms: C_17  and  C_18
REMARK                            x       y       z     vdW  Elec       q    Type
REMARK                         _______ _______ _______ _____ _____    ______ ____
ROOT
ATOM      1  C   UNL     1       1.696   3.771  18.239  0.00  0.00    +0.000 C 
ATOM      2  O   UNL     1       1.111   4.252  17.269  0.00  0.00    +0.000 OA
ATOM      3  N   UNL     1       3.010   3.322  18.122  0.00  0.00    +0.000 N 
ATOM      4  C   UNL     1       3.779   2.615  19.174  0.00  0.00    +0.000 C 
ATOM      5  C   UNL     1       5.055   3.391  19.571  0.00  0.00    +0.000 C 
ATOM      6  C   UNL     1       5.699   3.892  18.333  0.00  0.00    +0.000 A 
ATOM      7  N   UNL     1       6.955   4.387  18.206  0.00  0.00    +0.000 N 
ATOM      8  N   UNL     1       7.238   4.762  16.949  0.00  0.00    +0.000 NA
ATOM      9  C   UNL     1       6.102   4.545  16.273  0.00  0.00    +0.000 A 
ATOM     10  C   UNL     1       5.100   3.977  17.093  0.00  0.00    +0.000 A 
ATOM     11  C   UNL     1       3.705   3.515  16.825  0.00  0.00    +0.000 C 
ATOM     12  H   UNL     1       7.672   4.503  18.914  0.00  0.00    +0.000 HD
ENDROOT
BRANCH   9  13
ATOM     13  C   UNL     1       5.945   4.878  14.790  0.00  0.00    +0.000 C 
ATOM     14  C   UNL     1       7.283   5.047  14.005  0.00  0.00    +0.000 C 
ATOM     15  C   UNL     1       6.656   4.245  12.855  0.00  0.00    +0.000 C 
ATOM     16  C   UNL     1       5.715   3.619  13.898  0.00  0.00    +0.000 C 
ENDBRANCH   9  13
BRANCH   1  17
ATOM     17  C   UNL     1       1.034   3.635  19.613  0.00  0.00    +0.000 C 
BRANCH  17  18
ATOM     18  S   UNL     1       1.982   4.499  20.907  0.00  0.00    +0.000 S 
BRANCH  18  22
ATOM     19  C   UNL     1       2.125   7.871  19.128  0.00  0.00    +0.000 A 
ATOM     20  N   UNL     1       1.502   8.264  20.218  0.00  0.00    +0.000 NA
ATOM     21  N   UNL     1       1.358   7.142  21.008  0.00  0.00    +0.000 NA
ATOM     22  C   UNL     1       1.901   6.138  20.347  0.00  0.00    +0.000 A 
ATOM     23  O   UNL     1       2.413   6.534  19.136  0.00  0.00    +0.000 OA
BRANCH  19  25
ATOM     24  C   UNL     1       1.823  10.003  17.883  0.00  0.00    +0.000 C 
ATOM     25  C   UNL     1       2.519   8.654  17.932  0.00  0.00    +0.000 C 
ENDBRANCH  19  25
ENDBRANCH  18  22
ENDBRANCH  17  18
ENDBRANCH   1  17
TORSDOF 5
ENDMDL
MODEL 3
REMARK VINA RESULT:      -7.4      2.791      8.649
REMARK  Name = 
REMARK  6 active torsions:
REMARK  status: ('A' for Active; 'I' for Inactive)
REMARK    1  A    between atoms: C_1  and  C_2
REMARK    2  A    between atoms: C_2  and  C_3
REMARK    3  A    between atoms: C_6  and  S_7
REMARK    4  A    between atoms: S_7  and  C_8
REMARK    5  A    between atoms: C_8  and  C_9
REMARK    6  A    between atoms: C_17  and  C_18
REMARK                            x       y       z     vdW  Elec       q    Type
REMARK                         _______ _______ _______ _____ _____    ______ ____
ROOT
ATOM      1  C   UNL     1       5.189   5.214  16.423  0.00  0.00    +0.000 C 
ATOM      2  O   UNL     1       5.208   6.371  16.004  0.00  0.00    +0.000 OA
ATOM      3  N   UNL     1       4.804   4.942  17.735  0.00  0.00    +0.000 N 
ATOM      4  C   UNL     1       4.858   3.616  18.394  0.00  0.00    +0.000 C 
ATOM      5  C   UNL     1       3.460   3.153  18.864  0.00  0.00    +0.000 C 
ATOM      6  C   UNL     1       2.773   4.309  19.487  0.00  0.00    +0.000 A 
ATOM      7  N   UNL     1       1.653   4.282  20.253  0.00  0.00    +0.000 N 
ATOM      8  N   UNL     1       1.278   5.504  20.664  0.00  0.00    +0.000 NA
ATOM      9  C   UNL     1       2.161   6.333  20.091  0.00  0.00    +0.000 A 
ATOM     10  C   UNL     1       3.141   5.633  19.351  0.00  0.00    +0.000 A 
ATOM     11  C   UNL     1       4.342   6.072  18.579  0.00  0.00    +0.000 C 
ATOM     12  H   UNL     1       1.093   3.487  20.539  0.00  0.00    +0.000 HD
ENDROOT
BRANCH   9  13
ATOM     13  C   UNL     1       2.090   7.852  20.245  0.00  0.00    +0.000 C 
ATOM     14  C   UNL     1       1.453   8.610  19.039  0.00  0.00    +0.000 C 
ATOM     15  C   UNL     1       0.693   9.484  20.048  0.00  0.00    +0.000 C 
ATOM     16  C   UNL     1       0.844   8.330  21.054  0.00  0.00    +0.000 C 
ENDBRANCH   9  13
BRANCH   1  17
ATOM     17  C   UNL     1       5.581   4.018  15.550  0.00  0.00    +0.000 C 
BRANCH  17  18
ATOM     18  S   UNL     1       6.613   4.523  14.137  0.00  0.00    +0.000 S 
BRANCH  18  22
ATOM     19  C   UNL     1       4.470   2.975  11.386  0.00  0.00    +0.000 A 
ATOM     20  N   UNL     1       5.523   2.197  11.259  0.00  0.00    +0.000 NA
ATOM     21  N   UNL     1       6.434   2.621  12.205  0.00  0.00    +0.000 NA
ATOM     22  C   UNL     1       5.877   3.630  12.845  0.00  0.00    +0.000 A 
ATOM     23  O   UNL     1       4.618   3.910  12.373  0.00  0.00    +0.000 OA
BRANCH  19  25
ATOM     24  C   UNL     1       3.078   4.224   9.747  0.00  0.00    +0.000 C 
ATOM     25  C   UNL     1       3.204   2.984  10.614  0.00  0.00    +0.000 C 
ENDBRANCH  19  25
ENDBRANCH  18  22
ENDBRANCH  17  18
ENDBRANCH   1  17
TORSDOF 5
ENDMDL
MODEL 4
REMARK VINA RESULT:      -7.3      1.354      1.429
REMARK  Name = 
REMARK  6 active torsions:
REMARK  status: ('A' for Active; 'I' for Inactive)
REMARK    1  A    between atoms: C_1  and  C_2
REMARK    2  A    between atoms: C_2  and  C_3
REMARK    3  A    between atoms: C_6  and  S_7
REMARK    4  A    between atoms: S_7  and  C_8
REMARK    5  A    between atoms: C_8  and  C_9
REMARK    6  A    between atoms: C_17  and  C_18
REMARK                            x       y       z     vdW  Elec       q    Type
REMARK                         _______ _______ _______ _____ _____    ______ ____
ROOT
ATOM      1  C   UNL     1       3.869   4.337  18.706  0.00  0.00    +0.000 C 
ATOM      2  O   UNL     1       2.976   3.686  18.163  0.00  0.00    +0.000 OA
ATOM      3  N   UNL     1       5.158   4.349  18.177  0.00  0.00    +0.000 N 
ATOM      4  C   UNL     1       6.342   4.987  18.800  0.00  0.00    +0.000 C 
ATOM      5  C   UNL     1       6.952   6.076  17.889  0.00  0.00    +0.000 C 
ATOM      6  C   UNL     1       6.982   5.557  16.501  0.00  0.00    +0.000 A 
ATOM      7  N   UNL     1       7.665   6.073  15.448  0.00  0.00    +0.000 N 
ATOM      8  N   UNL     1       7.481   5.371  14.318  0.00  0.00    +0.000 NA
ATOM      9  C   UNL     1       6.608   4.413  14.660  0.00  0.00    +0.000 A 
ATOM     10  C   UNL     1       6.273   4.469  16.033  0.00  0.00    +0.000 A 
ATOM     11  C   UNL     1       5.401   3.625  16.904  0.00  0.00    +0.000 C 
ATOM     12  H   UNL     1       8.270   6.886  15.414  0.00  0.00    +0.000 HD
ENDROOT
BRANCH   9  13
ATOM     13  C   UNL     1       6.066   3.393  13.661  0.00  0.00    +0.000 C 
ATOM     14  C   UNL     1       4.691   3.762  13.019  0.00  0.00    +0.000 C 
ATOM     15  C   UNL     1       5.245   3.285  11.668  0.00  0.00    +0.000 C 
ATOM     16  C   UNL     1       6.651   3.568  12.225  0.00  0.00    +0.000 C 
ENDBRANCH   9  13
BRANCH   1  17
ATOM     17  C   UNL     1       3.629   5.161  19.974  0.00  0.00    +0.000 C 
BRANCH  17  18
ATOM     18  S   UNL     1       1.857   5.273  20.381  0.00  0.00    +0.000 S 
BRANCH  18  22
ATOM     19  C   UNL     1       1.040   8.968  20.867  0.00  0.00    +0.000 A 
ATOM     20  N   UNL     1       1.557   9.051  19.660  0.00  0.00    +0.000 NA
ATOM     21  N   UNL     1       1.921   7.767  19.306  0.00  0.00    +0.000 NA
ATOM     22  C   UNL     1       1.603   6.987  20.320  0.00  0.00    +0.000 A 
ATOM     23  O   UNL     1       1.034   7.690  21.354  0.00  0.00    +0.000 OA
BRANCH  19  25
ATOM     24  C   UNL     1      -0.314   9.481  22.889  0.00  0.00    +0.000 C 
ATOM     25  C   UNL     1       0.507  10.041  21.740  0.00  0.00    +0.000 C 
ENDBRANCH  19  25
ENDBRANCH  18  22
ENDBRANCH  17  18
ENDBRANCH   1  17
TORSDOF 5
ENDMDL
MODEL 5
REMARK VINA RESULT:      -7.3      2.169      2.444
REMARK  Name = 
REMARK  6 active torsions:
REMARK  status: ('A' for Active; 'I' for Inactive)
REMARK    1  A    between atoms: C_1  and  C_2
REMARK    2  A    between atoms: C_2  and  C_3
REMARK    3  A    between atoms: C_6  and  S_7
REMARK    4  A    between atoms: S_7  and  C_8
REMARK    5  A    between atoms: C_8  and  C_9
REMARK    6  A    between atoms: C_17  and  C_18
REMARK                            x       y       z     vdW  Elec       q    Type
REMARK                         _______ _______ _______ _____ _____    ______ ____
ROOT
ATOM      1  C   UNL     1       3.675   2.657  18.899  0.00  0.00    +0.000 C 
ATOM      2  O   UNL     1       3.243   1.699  18.259  0.00  0.00    +0.000 OA
ATOM      3  N   UNL     1       4.753   3.401  18.420  0.00  0.00    +0.000 N 
ATOM      4  C   UNL     1       5.441   4.493  19.149  0.00  0.00    +0.000 C 
ATOM      5  C   UNL     1       5.365   5.831  18.381  0.00  0.00    +0.000 C 
ATOM      6  C   UNL     1       5.627   5.560  16.947  0.00  0.00    +0.000 A 
ATOM      7  N   UNL     1       5.910   6.469  15.980  0.00  0.00    +0.000 N 
ATOM      8  N   UNL     1       6.092   5.902  14.776  0.00  0.00    +0.000 NA
ATOM      9  C   UNL     1       5.861   4.599  14.984  0.00  0.00    +0.000 A 
ATOM     10  C   UNL     1       5.582   4.321  16.341  0.00  0.00    +0.000 A 
ATOM     11  C   UNL     1       5.306   3.056  17.087  0.00  0.00    +0.000 C 
ATOM     12  H   UNL     1       5.997   7.477  16.054  0.00  0.00    +0.000 HD
ENDROOT
BRANCH   9  13
ATOM     13  C   UNL     1       5.909   3.562  13.862  0.00  0.00    +0.000 C 
ATOM     14  C   UNL     1       4.820   3.733  12.757  0.00  0.00    +0.000 C 
ATOM     15  C   UNL     1       5.902   3.434  11.709  0.00  0.00    +0.000 C 
ATOM     16  C   UNL     1       6.935   3.915  12.742  0.00  0.00    +0.000 C 
ENDBRANCH   9  13
BRANCH   1  17
ATOM     17  C   UNL     1       3.071   3.090  20.238  0.00  0.00    +0.000 C 
BRANCH  17  18
ATOM     18  S   UNL     1       1.392   3.765  20.035  0.00  0.00    +0.000 S 
BRANCH  18  22
ATOM     19  C   UNL     1       2.255   7.323  18.960  0.00  0.00    +0.000 A 
ATOM     20  N   UNL     1       2.006   7.570  20.228  0.00  0.00    +0.000 NA
ATOM     21  N   UNL     1       1.666   6.359  20.797  0.00  0.00    +0.000 NA
ATOM     22  C   UNL     1       1.730   5.455  19.840  0.00  0.00    +0.000 A 
ATOM     23  O   UNL     1       2.103   6.003  18.637  0.00  0.00    +0.000 OA
BRANCH  19  25
ATOM     24  C   UNL     1       1.751   9.486  17.841  0.00  0.00    +0.000 C 
ATOM     25  C   UNL     1       2.643   8.258  17.876  0.00  0.00    +0.000 C 
ENDBRANCH  19  25
ENDBRANCH  18  22
ENDBRANCH  17  18
ENDBRANCH   1  17
TORSDOF 5
ENDMDL
MODEL 6
REMARK VINA RESULT:      -7.3      1.530      1.675
REMARK  Name = 
REMARK  6 active torsions:
REMARK  status: ('A' for Active; 'I' for Inactive)
REMARK    1  A    between atoms: C_1  and  C_2
REMARK    2  A    between atoms: C_2  and  C_3
REMARK    3  A    between atoms: C_6  and  S_7
REMARK    4  A    between atoms: S_7  and  C_8
REMARK    5  A    between atoms: C_8  and  C_9
REMARK    6  A    between atoms: C_17  and  C_18
REMARK                            x       y       z     vdW  Elec       q    Type
REMARK                         _______ _______ _______ _____ _____    ______ ____
ROOT
ATOM      1  C   UNL     1       3.930   4.666  18.453  0.00  0.00    +0.000 C 
ATOM      2  O   UNL     1       2.966   4.078  17.965  0.00  0.00    +0.000 OA
ATOM      3  N   UNL     1       5.199   4.531  17.893  0.00  0.00    +0.000 N 
ATOM      4  C   UNL     1       6.455   5.084  18.455  0.00  0.00    +0.000 C 
ATOM      5  C   UNL     1       7.137   6.066  17.477  0.00  0.00    +0.000 C 
ATOM      6  C   UNL     1       7.078   5.482  16.115  0.00  0.00    +0.000 A 
ATOM      7  N   UNL     1       7.776   5.881  15.022  0.00  0.00    +0.000 N 
ATOM      8  N   UNL     1       7.494   5.147  13.933  0.00  0.00    +0.000 NA
ATOM      9  C   UNL     1       6.547   4.293  14.344  0.00  0.00    +0.000 A 
ATOM     10  C   UNL     1       6.258   4.445  15.719  0.00  0.00    +0.000 A 
ATOM     11  C   UNL     1       5.337   3.729  16.652  0.00  0.00    +0.000 C 
ATOM     12  H   UNL     1       8.452   6.631  14.933  0.00  0.00    +0.000 HD
ENDROOT
BRANCH   9  13
ATOM     13  C   UNL     1       5.883   3.282  13.409  0.00  0.00    +0.000 C 
ATOM     14  C   UNL     1       4.642   3.819  12.630  0.00  0.00    +0.000 C 
ATOM     15  C   UNL     1       5.175   3.104  11.380  0.00  0.00    +0.000 C 
ATOM     16  C   UNL     1       6.574   3.191  12.013  0.00  0.00    +0.000 C 
ENDBRANCH   9  13
BRANCH   1  17
ATOM     17  C   UNL     1       3.804   5.568  19.685  0.00  0.00    +0.000 C 
BRANCH  17  18
ATOM     18  S   UNL     1       2.080   6.079  19.974  0.00  0.00    +0.000 S 
BRANCH  18  22
ATOM     19  C   UNL     1       1.617   9.596  18.568  0.00  0.00    +0.000 A 
ATOM     20  N   UNL     1       2.246   9.068  17.540  0.00  0.00    +0.000 NA
ATOM     21  N   UNL     1       2.503   7.754  17.877  0.00  0.00    +0.000 NA
ATOM     22  C   UNL     1       2.015   7.568  19.088  0.00  0.00    +0.000 A 
ATOM     23  O   UNL     1       1.432   8.706  19.590  0.00  0.00    +0.000 OA
BRANCH  19  25
ATOM     24  C   UNL     1       0.369  11.134  20.072  0.00  0.00    +0.000 C 
ATOM     25  C   UNL     1       1.124  10.980  18.763  0.00  0.00    +0.000 C 
ENDBRANCH  19  25
ENDBRANCH  18  22
ENDBRANCH  17  18
ENDBRANCH   1  17
TORSDOF 5
ENDMDL
MODEL 7
REMARK VINA RESULT:      -7.3      2.227      8.391
REMARK  Name = 
REMARK  6 active torsions:
REMARK  status: ('A' for Active; 'I' for Inactive)
REMARK    1  A    between atoms: C_1  and  C_2
REMARK    2  A    between atoms: C_2  and  C_3
REMARK    3  A    between atoms: C_6  and  S_7
REMARK    4  A    between atoms: S_7  and  C_8
REMARK    5  A    between atoms: C_8  and  C_9
REMARK    6  A    between atoms: C_17  and  C_18
REMARK                            x       y       z     vdW  Elec       q    Type
REMARK                         _______ _______ _______ _____ _____    ______ ____
ROOT
ATOM      1  C   UNL     1       4.050   4.408  19.518  0.00  0.00    +0.000 C 
ATOM      2  O   UNL     1       3.894   4.089  20.696  0.00  0.00    +0.000 OA
ATOM      3  N   UNL     1       3.180   5.308  18.907  0.00  0.00    +0.000 N 
ATOM      4  C   UNL     1       3.185   5.677  17.471  0.00  0.00    +0.000 C 
ATOM      5  C   UNL     1       3.422   7.190  17.268  0.00  0.00    +0.000 C 
ATOM      6  C   UNL     1       2.604   7.926  18.262  0.00  0.00    +0.000 A 
ATOM      7  N   UNL     1       2.315   9.251  18.265  0.00  0.00    +0.000 N 
ATOM      8  N   UNL     1       1.551   9.611  19.309  0.00  0.00    +0.000 NA
ATOM      9  C   UNL     1       1.400   8.482  20.016  0.00  0.00    +0.000 A 
ATOM     10  C   UNL     1       2.027   7.380  19.392  0.00  0.00    +0.000 A 
ATOM     11  C   UNL     1       2.116   5.929  19.735  0.00  0.00    +0.000 C 
ATOM     12  H   UNL     1       2.593   9.969  17.605  0.00  0.00    +0.000 HD
ENDROOT
BRANCH   9  13
ATOM     13  C   UNL     1       0.629   8.429  21.334  0.00  0.00    +0.000 C 
ATOM     14  C   UNL     1       1.315   9.158  22.531  0.00  0.00    +0.000 C 
ATOM     15  C   UNL     1      -0.060   9.723  22.916  0.00  0.00    +0.000 C 
ATOM     16  C   UNL     1      -0.472   9.528  21.447  0.00  0.00    +0.000 C 
ENDBRANCH   9  13
BRANCH   1  17
ATOM     17  C   UNL     1       5.189   3.848  18.660  0.00  0.00    +0.000 C 
BRANCH  17  18
ATOM     18  S   UNL     1       6.515   5.072  18.417  0.00  0.00    +0.000 S 
BRANCH  18  22
ATOM     19  C   UNL     1       6.488   4.461  14.651  0.00  0.00    +0.000 A 
ATOM     20  N   UNL     1       7.398   5.411  14.677  0.00  0.00    +0.000 NA
ATOM     21  N   UNL     1       7.547   5.768  16.001  0.00  0.00    +0.000 NA
ATOM     22  C   UNL     1       6.717   5.015  16.695  0.00  0.00    +0.000 A 
ATOM     23  O   UNL     1       6.007   4.154  15.894  0.00  0.00    +0.000 OA
BRANCH  19  25
ATOM     24  C   UNL     1       6.812   3.832  12.266  0.00  0.00    +0.000 C 
ATOM     25  C   UNL     1       5.921   3.728  13.493  0.00  0.00    +0.000 C 
ENDBRANCH  19  25
ENDBRANCH  18  22
ENDBRANCH  17  18
ENDBRANCH   1  17
TORSDOF 5
ENDMDL
MODEL 8
REMARK VINA RESULT:      -7.2      1.721      2.240
REMARK  Name = 
REMARK  6 active torsions:
REMARK  status: ('A' for Active; 'I' for Inactive)
REMARK    1  A    between atoms: C_1  and  C_2
REMARK    2  A    between atoms: C_2  and  C_3
REMARK    3  A    between atoms: C_6  and  S_7
REMARK    4  A    between atoms: S_7  and  C_8
REMARK    5  A    between atoms: C_8  and  C_9
REMARK    6  A    between atoms: C_17  and  C_18
REMARK                            x       y       z     vdW  Elec       q    Type
REMARK                         _______ _______ _______ _____ _____    ______ ____
ROOT
ATOM      1  C   UNL     1       1.795   4.125  18.222  0.00  0.00    +0.000 C 
ATOM      2  O   UNL     1       1.216   4.624  17.257  0.00  0.00    +0.000 OA
ATOM      3  N   UNL     1       3.073   3.586  18.080  0.00  0.00    +0.000 N 
ATOM      4  C   UNL     1       3.822   2.852  19.127  0.00  0.00    +0.000 C 
ATOM      5  C   UNL     1       5.157   3.549  19.473  0.00  0.00    +0.000 C 
ATOM      6  C   UNL     1       5.798   3.979  18.207  0.00  0.00    +0.000 A 
ATOM      7  N   UNL     1       7.080   4.386  18.035  0.00  0.00    +0.000 N 
ATOM      8  N   UNL     1       7.352   4.715  16.762  0.00  0.00    +0.000 NA
ATOM      9  C   UNL     1       6.185   4.560  16.122  0.00  0.00    +0.000 A 
ATOM     10  C   UNL     1       5.171   4.078  16.981  0.00  0.00    +0.000 A 
ATOM     11  C   UNL     1       3.742   3.705  16.761  0.00  0.00    +0.000 C 
ATOM     12  H   UNL     1       7.823   4.469  18.721  0.00  0.00    +0.000 HD
ENDROOT
BRANCH   9  13
ATOM     13  C   UNL     1       6.009   4.872  14.636  0.00  0.00    +0.000 C 
ATOM     14  C   UNL     1       7.336   4.990  13.824  0.00  0.00    +0.000 C 
ATOM     15  C   UNL     1       6.666   4.186  12.700  0.00  0.00    +0.000 C 
ATOM     16  C   UNL     1       5.729   3.604  13.771  0.00  0.00    +0.000 C 
ENDBRANCH   9  13
BRANCH   1  17
ATOM     17  C   UNL     1       1.164   4.063  19.616  0.00  0.00    +0.000 C 
BRANCH  17  18
ATOM     18  S   UNL     1       2.180   4.929  20.856  0.00  0.00    +0.000 S 
BRANCH  18  22
ATOM     19  C   UNL     1       1.045   8.562  20.593  0.00  0.00    +0.000 A 
ATOM     20  N   UNL     1       1.786   8.521  19.506  0.00  0.00    +0.000 NA
ATOM     21  N   UNL     1       2.296   7.241  19.434  0.00  0.00    +0.000 NA
ATOM     22  C   UNL     1       1.833   6.586  20.480  0.00  0.00    +0.000 A 
ATOM     23  O   UNL     1       1.024   7.371  21.265  0.00  0.00    +0.000 OA
BRANCH  19  25
ATOM     24  C   UNL     1      -0.291   9.351  22.537  0.00  0.00    +0.000 C 
ATOM     25  C   UNL     1       0.279   9.692  21.171  0.00  0.00    +0.000 C 
ENDBRANCH  19  25
ENDBRANCH  18  22
ENDBRANCH  17  18
ENDBRANCH   1  17
TORSDOF 5
ENDMDL
MODEL 9
REMARK VINA RESULT:      -7.1      2.552      4.092
REMARK  Name = 
REMARK  6 active torsions:
REMARK  status: ('A' for Active; 'I' for Inactive)
REMARK    1  A    between atoms: C_1  and  C_2
REMARK    2  A    between atoms: C_2  and  C_3
REMARK    3  A    between atoms: C_6  and  S_7
REMARK    4  A    between atoms: S_7  and  C_8
REMARK    5  A    between atoms: C_8  and  C_9
REMARK    6  A    between atoms: C_17  and  C_18
REMARK                            x       y       z     vdW  Elec       q    Type
REMARK                         _______ _______ _______ _____ _____    ______ ____
ROOT
ATOM      1  C   UNL     1       2.978   6.649  18.536  0.00  0.00    +0.000 C 
ATOM      2  O   UNL     1       2.354   7.098  17.576  0.00  0.00    +0.000 OA
ATOM      3  N   UNL     1       3.920   5.637  18.357  0.00  0.00    +0.000 N 
ATOM      4  C   UNL     1       4.645   4.929  19.439  0.00  0.00    +0.000 C 
ATOM      5  C   UNL     1       6.174   5.109  19.318  0.00  0.00    +0.000 C 
ATOM      6  C   UNL     1       6.549   4.952  17.892  0.00  0.00    +0.000 A 
ATOM      7  N   UNL     1       7.796   4.776  17.387  0.00  0.00    +0.000 N 
ATOM      8  N   UNL     1       7.802   4.671  16.049  0.00  0.00    +0.000 NA
ATOM      9  C   UNL     1       6.520   4.842  15.696  0.00  0.00    +0.000 A 
ATOM     10  C   UNL     1       5.680   5.005  16.821  0.00  0.00    +0.000 A 
ATOM     11  C   UNL     1       4.204   5.180  16.974  0.00  0.00    +0.000 C 
ATOM     12  H   UNL     1       8.683   4.716  17.877  0.00  0.00    +0.000 HD
ENDROOT
BRANCH   9  13
ATOM     13  C   UNL     1       6.057   4.849  14.240  0.00  0.00    +0.000 C 
ATOM     14  C   UNL     1       7.193   4.670  13.184  0.00  0.00    +0.000 C 
ATOM     15  C   UNL     1       6.267   3.713  12.419  0.00  0.00    +0.000 C 
ATOM     16  C   UNL     1       5.544   3.459  13.752  0.00  0.00    +0.000 C 
ENDBRANCH   9  13
BRANCH   1  17
ATOM     17  C   UNL     1       2.768   7.159  19.965  0.00  0.00    +0.000 C 
BRANCH  17  18
ATOM     18  S   UNL     1       1.223   6.520  20.689  0.00  0.00    +0.000 S 
BRANCH  18  22
ATOM     19  C   UNL     1       1.594   2.828  19.800  0.00  0.00    +0.000 A 
ATOM     20  N   UNL     1       1.968   2.752  21.059  0.00  0.00    +0.000 NA
ATOM     21  N   UNL     1       1.894   4.036  21.561  0.00  0.00    +0.000 NA
ATOM     22  C   UNL     1       1.481   4.808  20.577  0.00  0.00    +0.000 A 
ATOM     23  O   UNL     1       1.268   4.100  19.419  0.00  0.00    +0.000 OA
BRANCH  19  25
ATOM     24  C   UNL     1       2.499   1.972  17.647  0.00  0.00    +0.000 C 
ATOM     25  C   UNL     1       1.506   1.759  18.776  0.00  0.00    +0.000 C 
ENDBRANCH  19  25
ENDBRANCH  18  22
ENDBRANCH  17  18
ENDBRANCH   1  17
TORSDOF 5
ENDMDL
