MODEL 1
REMARK VINA RESULT:      -7.3      0.000      0.000
REMARK  Name = 
REMARK  7 active torsions:
REMARK  status: ('A' for Active; 'I' for Inactive)
REMARK    1  A    between atoms: C_2  and  C_3
REMARK    2  A    between atoms: C_3  and  O_4
REMARK    3  A    between atoms: O_4  and  C_5
REMARK    4  A    between atoms: C_5  and  C_7
REMARK    5  A    between atoms: C_7  and  C_8
REMARK    6  A    between atoms: N_15  and  C_16
REMARK    7  A    between atoms: C_16  and  C_17
REMARK                            x       y       z     vdW  Elec       q    Type
REMARK                         _______ _______ _______ _____ _____    ______ ____
ROOT
ATOM      1  C   UNL     1       7.962   6.429  18.801  0.00  0.00    +0.000 C 
ENDROOT
BRANCH   1   3
ATOM      2  O   UNL     1       7.462   7.872  16.926  0.00  0.00    +0.000 OA
ATOM      3  C   UNL     1       7.976   7.753  18.035  0.00  0.00    +0.000 C 
ATOM      4  N   UNL     1       8.616   8.777  18.687  0.00  0.00    +0.000 N 
ATOM      5  H   UNL     1       9.049   8.596  19.591  0.00  0.00    +0.000 HD
BRANCH   4   6
ATOM      6  C   UNL     1       8.724  10.102  18.124  0.00  0.00    +0.000 C 
BRANCH   6   7
ATOM      7  C   UNL     1       9.700  10.889  18.938  0.00  0.00    +0.000 A 
ATOM      8  C   UNL     1      10.895  11.453  18.532  0.00  0.00    +0.000 A 
ATOM      9  C   UNL     1      11.566  12.130  19.592  0.00  0.00    +0.000 A 
ATOM     10  C   UNL     1      10.860  12.063  20.772  0.00  0.00    +0.000 A 
ATOM     11  S   UNL     1       9.401  11.188  20.600  0.00  0.00    +0.000 S 
ENDBRANCH   6   7
ENDBRANCH   4   6
ENDBRANCH   1   3
BRANCH   1  12
ATOM     12  O   UNL     1       6.828   5.620  18.485  0.00  0.00    +0.000 OA
BRANCH  12  13
ATOM     13  C   UNL     1       7.047   4.672  17.531  0.00  0.00    +0.000 C 
ATOM     14  O   UNL     1       8.140   4.168  17.290  0.00  0.00    +0.000 OA
BRANCH  13  15
ATOM     15  C   UNL     1       5.768   4.307  16.826  0.00  0.00    +0.000 C 
BRANCH  15  16
ATOM     16  C   UNL     1       4.563   4.264  17.730  0.00  0.00    +0.000 A 
ATOM     17  C   UNL     1       3.495   5.154  17.535  0.00  0.00    +0.000 A 
ATOM     18  C   UNL     1       2.354   5.079  18.337  0.00  0.00    +0.000 A 
ATOM     19  C   UNL     1       2.277   4.119  19.344  0.00  0.00    +0.000 A 
ATOM     20 CL   UNL     1       0.858   4.007  20.311  0.00  0.00    +0.000 Cl
ATOM     21  C   UNL     1       3.339   3.247  19.567  0.00  0.00    +0.000 A 
ATOM     22  C   UNL     1       4.482   3.323  18.768  0.00  0.00    +0.000 A 
ENDBRANCH  15  16
ENDBRANCH  13  15
ENDBRANCH  12  13
ENDBRANCH   1  12
TORSDOF 7
ENDMDL
MODEL 2
REMARK VINA RESULT:      -7.1      4.227      5.891
REMARK  Name = 
REMARK  7 active torsions:
REMARK  status: ('A' for Active; 'I' for Inactive)
REMARK    1  A    between atoms: C_2  and  C_3
REMARK    2  A    between atoms: C_3  and  O_4
REMARK    3  A    between atoms: O_4  and  C_5
REMARK    4  A    between atoms: C_5  and  C_7
REMARK    5  A    between atoms: C_7  and  C_8
REMARK    6  A    between atoms: N_15  and  C_16
REMARK    7  A    between atoms: C_16  and  C_17
REMARK                            x       y       z     vdW  Elec       q    Type
REMARK                         _______ _______ _______ _____ _____    ______ ____
ROOT
ATOM      1  C   UNL     1       3.991   2.207  20.756  0.00  0.00    +0.000 C 
ENDROOT
BRANCH   1   3
ATOM      2  O   UNL     1       3.811   1.780  18.383  0.00  0.00    +0.000 OA
ATOM      3  C   UNL     1       4.298   2.463  19.280  0.00  0.00    +0.000 C 
ATOM      4  N   UNL     1       5.164   3.505  19.054  0.00  0.00    +0.000 N 
ATOM      5  H   UNL     1       5.555   4.005  19.851  0.00  0.00    +0.000 HD
BRANCH   4   6
ATOM      6  C   UNL     1       5.565   3.900  17.725  0.00  0.00    +0.000 C 
BRANCH   6   7
ATOM      7  C   UNL     1       6.369   5.157  17.824  0.00  0.00    +0.000 A 
ATOM      8  C   UNL     1       7.430   5.431  18.667  0.00  0.00    +0.000 A 
ATOM      9  C   UNL     1       7.948   6.745  18.480  0.00  0.00    +0.000 A 
ATOM     10  C   UNL     1       7.269   7.431  17.498  0.00  0.00    +0.000 A 
ATOM     11  S   UNL     1       6.014   6.495  16.811  0.00  0.00    +0.000 S 
ENDBRANCH   6   7
ENDBRANCH   4   6
ENDBRANCH   1   3
BRANCH   1  12
ATOM     12  O   UNL     1       3.134   3.198  21.323  0.00  0.00    +0.000 OA
BRANCH  12  13
ATOM     13  C   UNL     1       1.845   2.801  21.515  0.00  0.00    +0.000 C 
ATOM     14  O   UNL     1       1.458   2.133  22.469  0.00  0.00    +0.000 OA
BRANCH  13  15
ATOM     15  C   UNL     1       0.952   3.309  20.414  0.00  0.00    +0.000 C 
BRANCH  15  16
ATOM     16  C   UNL     1       1.442   4.580  19.767  0.00  0.00    +0.000 A 
ATOM     17  C   UNL     1       1.633   5.740  20.533  0.00  0.00    +0.000 A 
ATOM     18  C   UNL     1       2.139   6.902  19.946  0.00  0.00    +0.000 A 
ATOM     19  C   UNL     1       2.450   6.912  18.588  0.00  0.00    +0.000 A 
ATOM     20 CL   UNL     1       3.103   8.335  17.872  0.00  0.00    +0.000 Cl
ATOM     21  C   UNL     1       2.240   5.778  17.809  0.00  0.00    +0.000 A 
ATOM     22  C   UNL     1       1.731   4.616  18.395  0.00  0.00    +0.000 A 
ENDBRANCH  15  16
ENDBRANCH  13  15
ENDBRANCH  12  13
ENDBRANCH   1  12
TORSDOF 7
ENDMDL
MODEL 3
REMARK VINA RESULT:      -7.1      1.469      1.722
REMARK  Name = 
REMARK  7 active torsions:
REMARK  status: ('A' for Active; 'I' for Inactive)
REMARK    1  A    between atoms: C_2  and  C_3
REMARK    2  A    between atoms: C_3  and  O_4
REMARK    3  A    between atoms: O_4  and  C_5
REMARK    4  A    between atoms: C_5  and  C_7
REMARK    5  A    between atoms: C_7  and  C_8
REMARK    6  A    between atoms: N_15  and  C_16
REMARK    7  A    between atoms: C_16  and  C_17
REMARK                            x       y       z     vdW  Elec       q    Type
REMARK                         _______ _______ _______ _____ _____    ______ ____
ROOT
ATOM      1  C   UNL     1       7.076   7.593  17.048  0.00  0.00    +0.000 C 
ENDROOT
BRANCH   1   3
ATOM      2  O   UNL     1       8.537   7.280  18.949  0.00  0.00    +0.000 OA
ATOM      3  C   UNL     1       8.043   8.059  18.137  0.00  0.00    +0.000 C 
ATOM      4  N   UNL     1       8.296   9.408  18.130  0.00  0.00    +0.000 N 
ATOM      5  H   UNL     1       7.824   9.998  17.447  0.00  0.00    +0.000 HD
BRANCH   4   6
ATOM      6  C   UNL     1       9.190  10.030  19.078  0.00  0.00    +0.000 C 
BRANCH   6   7
ATOM      7  C   UNL     1       9.842  11.203  18.420  0.00  0.00    +0.000 A 
ATOM      8  C   UNL     1      11.189  11.418  18.194  0.00  0.00    +0.000 A 
ATOM      9  C   UNL     1      11.440  12.660  17.541  0.00  0.00    +0.000 A 
ATOM     10  C   UNL     1      10.278  13.353  17.289  0.00  0.00    +0.000 A 
ATOM     11  S   UNL     1       8.895  12.509  17.837  0.00  0.00    +0.000 S 
ENDBRANCH   6   7
ENDBRANCH   4   6
ENDBRANCH   1   3
BRANCH   1  12
ATOM     12  O   UNL     1       7.519   6.409  16.384  0.00  0.00    +0.000 OA
BRANCH  12  13
ATOM     13  C   UNL     1       6.759   5.302  16.616  0.00  0.00    +0.000 C 
ATOM     14  O   UNL     1       7.167   4.280  17.160  0.00  0.00    +0.000 OA
BRANCH  13  15
ATOM     15  C   UNL     1       5.346   5.505  16.137  0.00  0.00    +0.000 C 
BRANCH  15  16
ATOM     16  C   UNL     1       4.297   5.121  17.150  0.00  0.00    +0.000 A 
ATOM     17  C   UNL     1       3.908   6.026  18.149  0.00  0.00    +0.000 A 
ATOM     18  C   UNL     1       2.897   5.692  19.053  0.00  0.00    +0.000 A 
ATOM     19  C   UNL     1       2.276   4.447  18.968  0.00  0.00    +0.000 A 
ATOM     20 CL   UNL     1       1.009   4.049  20.063  0.00  0.00    +0.000 Cl
ATOM     21  C   UNL     1       2.670   3.528  18.000  0.00  0.00    +0.000 A 
ATOM     22  C   UNL     1       3.683   3.860  17.097  0.00  0.00    +0.000 A 
ENDBRANCH  15  16
ENDBRANCH  13  15
ENDBRANCH  12  13
ENDBRANCH   1  12
TORSDOF 7
ENDMDL
MODEL 4
REMARK VINA RESULT:      -7.0      4.695      6.485
REMARK  Name = 
REMARK  7 active torsions:
REMARK  status: ('A' for Active; 'I' for Inactive)
REMARK    1  A    between atoms: C_2  and  C_3
REMARK    2  A    between atoms: C_3  and  O_4
REMARK    3  A    between atoms: O_4  and  C_5
REMARK    4  A    between atoms: C_5  and  C_7
REMARK    5  A    between atoms: C_7  and  C_8
REMARK    6  A    between atoms: N_15  and  C_16
REMARK    7  A    between atoms: C_16  and  C_17
REMARK                            x       y       z     vdW  Elec       q    Type
REMARK                         _______ _______ _______ _____ _____    ______ ____
ROOT
ATOM      1  C   UNL     1       1.767   3.104  18.476  0.00  0.00    +0.000 C 
ENDROOT
BRANCH   1   3
ATOM      2  O   UNL     1       3.989   2.163  18.641  0.00  0.00    +0.000 OA
ATOM      3  C   UNL     1       3.226   2.925  18.052  0.00  0.00    +0.000 C 
ATOM      4  N   UNL     1       3.601   3.692  16.977  0.00  0.00    +0.000 N 
ATOM      5  H   UNL     1       2.922   4.327  16.560  0.00  0.00    +0.000 HD
BRANCH   4   6
ATOM      6  C   UNL     1       4.936   3.652  16.430  0.00  0.00    +0.000 C 
BRANCH   6   7
ATOM      7  C   UNL     1       5.666   4.885  16.862  0.00  0.00    +0.000 A 
ATOM      8  C   UNL     1       5.284   6.204  16.705  0.00  0.00    +0.000 A 
ATOM      9  C   UNL     1       6.240   7.115  17.241  0.00  0.00    +0.000 A 
ATOM     10  C   UNL     1       7.320   6.462  17.791  0.00  0.00    +0.000 A 
ATOM     11  S   UNL     1       7.179   4.763  17.659  0.00  0.00    +0.000 S 
ENDBRANCH   6   7
ENDBRANCH   4   6
ENDBRANCH   1   3
BRANCH   1  12
ATOM     12  O   UNL     1       1.455   4.452  18.830  0.00  0.00    +0.000 OA
BRANCH  12  13
ATOM     13  C   UNL     1       2.060   4.901  19.966  0.00  0.00    +0.000 C 
ATOM     14  O   UNL     1       1.880   4.426  21.084  0.00  0.00    +0.000 OA
BRANCH  13  15
ATOM     15  C   UNL     1       2.996   6.041  19.667  0.00  0.00    +0.000 C 
BRANCH  15  16
ATOM     16  C   UNL     1       2.300   7.359  19.435  0.00  0.00    +0.000 A 
ATOM     17  C   UNL     1       2.318   7.960  18.167  0.00  0.00    +0.000 A 
ATOM     18  C   UNL     1       1.627   9.152  17.939  0.00  0.00    +0.000 A 
ATOM     19  C   UNL     1       0.921   9.754  18.978  0.00  0.00    +0.000 A 
ATOM     20 CL   UNL     1       0.045  11.206  18.687  0.00  0.00    +0.000 Cl
ATOM     21  C   UNL     1       0.916   9.184  20.248  0.00  0.00    +0.000 A 
ATOM     22  C   UNL     1       1.610   7.993  20.479  0.00  0.00    +0.000 A 
ENDBRANCH  15  16
ENDBRANCH  13  15
ENDBRANCH  12  13
ENDBRANCH   1  12
TORSDOF 7
ENDMDL
MODEL 5
REMARK VINA RESULT:      -6.9      4.830      7.400
REMARK  Name = 
REMARK  7 active torsions:
REMARK  status: ('A' for Active; 'I' for Inactive)
REMARK    1  A    between atoms: C_2  and  C_3
REMARK    2  A    between atoms: C_3  and  O_4
REMARK    3  A    between atoms: O_4  and  C_5
REMARK    4  A    between atoms: C_5  and  C_7
REMARK    5  A    between atoms: C_7  and  C_8
REMARK    6  A    between atoms: N_15  and  C_16
REMARK    7  A    between atoms: C_16  and  C_17
REMARK                            x       y       z     vdW  Elec       q    Type
REMARK                         _______ _______ _______ _____ _____    ______ ____
ROOT
ATOM      1  C   UNL     1       5.906   4.465  17.428  0.00  0.00    +0.000 C 
ENDROOT
BRANCH   1   3
ATOM      2  O   UNL     1       5.497   3.501  19.607  0.00  0.00    +0.000 OA
ATOM      3  C   UNL     1       5.238   3.498  18.406  0.00  0.00    +0.000 C 
ATOM      4  N   UNL     1       4.344   2.633  17.826  0.00  0.00    +0.000 N 
ATOM      5  H   UNL     1       4.205   2.666  16.817  0.00  0.00    +0.000 HD
BRANCH   4   6
ATOM      6  C   UNL     1       3.611   1.653  18.592  0.00  0.00    +0.000 C 
BRANCH   6   7
ATOM      7  C   UNL     1       2.572   2.361  19.402  0.00  0.00    +0.000 A 
ATOM      8  C   UNL     1       2.521   2.525  20.774  0.00  0.00    +0.000 A 
ATOM      9  C   UNL     1       1.372   3.256  21.192  0.00  0.00    +0.000 A 
ATOM     10  C   UNL     1       0.583   3.629  20.127  0.00  0.00    +0.000 A 
ATOM     11  S   UNL     1       1.227   3.098  18.635  0.00  0.00    +0.000 S 
ENDBRANCH   6   7
ENDBRANCH   4   6
ENDBRANCH   1   3
BRANCH   1  12
ATOM     12  O   UNL     1       6.163   5.746  18.005  0.00  0.00    +0.000 OA
BRANCH  12  13
ATOM     13  C   UNL     1       5.788   6.807  17.236  0.00  0.00    +0.000 C 
ATOM     14  O   UNL     1       6.533   7.726  16.909  0.00  0.00    +0.000 OA
BRANCH  13  15
ATOM     15  C   UNL     1       4.346   6.692  16.821  0.00  0.00    +0.000 C 
BRANCH  15  16
ATOM     16  C   UNL     1       3.368   7.161  17.869  0.00  0.00    +0.000 A 
ATOM     17  C   UNL     1       3.138   6.392  19.020  0.00  0.00    +0.000 A 
ATOM     18  C   UNL     1       2.275   6.853  20.017  0.00  0.00    +0.000 A 
ATOM     19  C   UNL     1       1.632   8.079  19.865  0.00  0.00    +0.000 A 
ATOM     20 CL   UNL     1       0.593   8.659  21.109  0.00  0.00    +0.000 Cl
ATOM     21  C   UNL     1       1.829   8.840  18.716  0.00  0.00    +0.000 A 
ATOM     22  C   UNL     1       2.690   8.379  17.717  0.00  0.00    +0.000 A 
ENDBRANCH  15  16
ENDBRANCH  13  15
ENDBRANCH  12  13
ENDBRANCH   1  12
TORSDOF 7
ENDMDL
MODEL 6
REMARK VINA RESULT:      -6.8      5.402      6.876
REMARK  Name = 
REMARK  7 active torsions:
REMARK  status: ('A' for Active; 'I' for Inactive)
REMARK    1  A    between atoms: C_2  and  C_3
REMARK    2  A    between atoms: C_3  and  O_4
REMARK    3  A    between atoms: O_4  and  C_5
REMARK    4  A    between atoms: C_5  and  C_7
REMARK    5  A    between atoms: C_7  and  C_8
REMARK    6  A    between atoms: N_15  and  C_16
REMARK    7  A    between atoms: C_16  and  C_17
REMARK                            x       y       z     vdW  Elec       q    Type
REMARK                         _______ _______ _______ _____ _____    ______ ____
ROOT
ATOM      1  C   UNL     1       0.839   3.398  19.955  0.00  0.00    +0.000 C 
ENDROOT
BRANCH   1   3
ATOM      2  O   UNL     1       2.369   4.438  21.512  0.00  0.00    +0.000 OA
ATOM      3  C   UNL     1       1.772   4.508  20.440  0.00  0.00    +0.000 C 
ATOM      4  N   UNL     1       1.872   5.578  19.586  0.00  0.00    +0.000 N 
ATOM      5  H   UNL     1       1.321   5.581  18.729  0.00  0.00    +0.000 HD
BRANCH   4   6
ATOM      6  C   UNL     1       2.712   6.717  19.872  0.00  0.00    +0.000 C 
BRANCH   6   7
ATOM      7  C   UNL     1       1.947   7.963  19.559  0.00  0.00    +0.000 A 
ATOM      8  C   UNL     1       1.134   8.702  20.399  0.00  0.00    +0.000 A 
ATOM      9  C   UNL     1       0.563   9.833  19.747  0.00  0.00    +0.000 A 
ATOM     10  C   UNL     1       0.959   9.923  18.432  0.00  0.00    +0.000 A 
ATOM     11  S   UNL     1       2.012   8.651  17.989  0.00  0.00    +0.000 S 
ENDBRANCH   6   7
ENDBRANCH   4   6
ENDBRANCH   1   3
BRANCH   1  12
ATOM     12  O   UNL     1       1.506   2.429  19.145  0.00  0.00    +0.000 OA
BRANCH  12  13
ATOM     13  C   UNL     1       2.002   2.907  17.970  0.00  0.00    +0.000 C 
ATOM     14  O   UNL     1       1.385   3.641  17.202  0.00  0.00    +0.000 OA
BRANCH  13  15
ATOM     15  C   UNL     1       3.415   2.438  17.747  0.00  0.00    +0.000 C 
BRANCH  15  16
ATOM     16  C   UNL     1       4.428   3.553  17.693  0.00  0.00    +0.000 A 
ATOM     17  C   UNL     1       4.736   4.176  16.474  0.00  0.00    +0.000 A 
ATOM     18  C   UNL     1       5.633   5.246  16.433  0.00  0.00    +0.000 A 
ATOM     19  C   UNL     1       6.234   5.692  17.608  0.00  0.00    +0.000 A 
ATOM     20 CL   UNL     1       7.315   7.030  17.560  0.00  0.00    +0.000 Cl
ATOM     21  C   UNL     1       5.960   5.066  18.821  0.00  0.00    +0.000 A 
ATOM     22  C   UNL     1       5.065   3.994  18.863  0.00  0.00    +0.000 A 
ENDBRANCH  15  16
ENDBRANCH  13  15
ENDBRANCH  12  13
ENDBRANCH   1  12
TORSDOF 7
ENDMDL
MODEL 7
REMARK VINA RESULT:      -6.8      1.253      1.446
REMARK  Name = 
REMARK  7 active torsions:
REMARK  status: ('A' for Active; 'I' for Inactive)
REMARK    1  A    between atoms: C_2  and  C_3
REMARK    2  A    between atoms: C_3  and  O_4
REMARK    3  A    between atoms: O_4  and  C_5
REMARK    4  A    between atoms: C_5  and  C_7
REMARK    5  A    between atoms: C_7  and  C_8
REMARK    6  A    between atoms: N_15  and  C_16
REMARK    7  A    between atoms: C_16  and  C_17
REMARK                            x       y       z     vdW  Elec       q    Type
REMARK                         _______ _______ _______ _____ _____    ______ ____
ROOT
ATOM      1  C   UNL     1       7.993   6.356  18.908  0.00  0.00    +0.000 C 
ENDROOT
BRANCH   1   3
ATOM      2  O   UNL     1       7.696   7.657  16.892  0.00  0.00    +0.000 OA
ATOM      3  C   UNL     1       8.048   7.633  18.068  0.00  0.00    +0.000 C 
ATOM      4  N   UNL     1       8.531   8.730  18.738  0.00  0.00    +0.000 N 
ATOM      5  H   UNL     1       8.836   8.626  19.704  0.00  0.00    +0.000 HD
BRANCH   4   6
ATOM      6  C   UNL     1       8.650  10.025  18.111  0.00  0.00    +0.000 C 
BRANCH   6   7
ATOM      7  C   UNL     1       9.600  10.857  18.912  0.00  0.00    +0.000 A 
ATOM      8  C   UNL     1       9.635  11.038  20.282  0.00  0.00    +0.000 A 
ATOM      9  C   UNL     1      10.684  11.911  20.690  0.00  0.00    +0.000 A 
ATOM     10  C   UNL     1      11.419  12.367  19.619  0.00  0.00    +0.000 A 
ATOM     11  S   UNL     1      10.843  11.746  18.134  0.00  0.00    +0.000 S 
ENDBRANCH   6   7
ENDBRANCH   4   6
ENDBRANCH   1   3
BRANCH   1  12
ATOM     12  O   UNL     1       7.740   5.189  18.123  0.00  0.00    +0.000 OA
BRANCH  12  13
ATOM     13  C   UNL     1       6.425   4.940  17.872  0.00  0.00    +0.000 C 
ATOM     14  O   UNL     1       5.976   4.612  16.778  0.00  0.00    +0.000 OA
BRANCH  13  15
ATOM     15  C   UNL     1       5.596   5.098  19.119  0.00  0.00    +0.000 C 
BRANCH  15  16
ATOM     16  C   UNL     1       4.282   4.359  19.077  0.00  0.00    +0.000 A 
ATOM     17  C   UNL     1       3.107   5.019  18.688  0.00  0.00    +0.000 A 
ATOM     18  C   UNL     1       1.900   4.322  18.596  0.00  0.00    +0.000 A 
ATOM     19  C   UNL     1       1.860   2.963  18.900  0.00  0.00    +0.000 A 
ATOM     20 CL   UNL     1       0.379   2.098  18.755  0.00  0.00    +0.000 Cl
ATOM     21  C   UNL     1       3.012   2.300  19.313  0.00  0.00    +0.000 A 
ATOM     22  C   UNL     1       4.219   2.997  19.409  0.00  0.00    +0.000 A 
ENDBRANCH  15  16
ENDBRANCH  13  15
ENDBRANCH  12  13
ENDBRANCH   1  12
TORSDOF 7
ENDMDL
MODEL 8
REMARK VINA RESULT:      -6.8      1.762      2.322
REMARK  Name = 
REMARK  7 active torsions:
REMARK  status: ('A' for Active; 'I' for Inactive)
REMARK    1  A    between atoms: C_2  and  C_3
REMARK    2  A    between atoms: C_3  and  O_4
REMARK    3  A    between atoms: O_4  and  C_5
REMARK    4  A    between atoms: C_5  and  C_7
REMARK    5  A    between atoms: C_7  and  C_8
REMARK    6  A    between atoms: N_15  and  C_16
REMARK    7  A    between atoms: C_16  and  C_17
REMARK                            x       y       z     vdW  Elec       q    Type
REMARK                         _______ _______ _______ _____ _____    ______ ____
ROOT
ATOM      1  C   UNL     1       7.832   6.406  18.644  0.00  0.00    +0.000 C 
ENDROOT
BRANCH   1   3
ATOM      2  O   UNL     1       7.252   7.909  16.841  0.00  0.00    +0.000 OA
ATOM      3  C   UNL     1       7.819   7.752  17.919  0.00  0.00    +0.000 C 
ATOM      4  N   UNL     1       8.500   8.752  18.569  0.00  0.00    +0.000 N 
ATOM      5  H   UNL     1       8.975   8.540  19.445  0.00  0.00    +0.000 HD
BRANCH   4   6
ATOM      6  C   UNL     1       8.590  10.092  18.042  0.00  0.00    +0.000 C 
BRANCH   6   7
ATOM      7  C   UNL     1       9.624  10.842  18.819  0.00  0.00    +0.000 A 
ATOM      8  C   UNL     1      10.835  11.341  18.375  0.00  0.00    +0.000 A 
ATOM      9  C   UNL     1      11.564  11.999  19.407  0.00  0.00    +0.000 A 
ATOM     10  C   UNL     1      10.887  11.984  20.605  0.00  0.00    +0.000 A 
ATOM     11  S   UNL     1       9.383  11.180  20.483  0.00  0.00    +0.000 S 
ENDBRANCH   6   7
ENDBRANCH   4   6
ENDBRANCH   1   3
BRANCH   1  12
ATOM     12  O   UNL     1       7.229   5.361  17.879  0.00  0.00    +0.000 OA
BRANCH  12  13
ATOM     13  C   UNL     1       6.092   4.838  18.419  0.00  0.00    +0.000 C 
ATOM     14  O   UNL     1       6.034   4.276  19.508  0.00  0.00    +0.000 OA
BRANCH  13  15
ATOM     15  C   UNL     1       4.911   5.062  17.512  0.00  0.00    +0.000 C 
BRANCH  15  16
ATOM     16  C   UNL     1       3.915   6.062  18.042  0.00  0.00    +0.000 A 
ATOM     17  C   UNL     1       3.183   5.787  19.208  0.00  0.00    +0.000 A 
ATOM     18  C   UNL     1       2.301   6.737  19.730  0.00  0.00    +0.000 A 
ATOM     19  C   UNL     1       2.139   7.961  19.086  0.00  0.00    +0.000 A 
ATOM     20 CL   UNL     1       1.076   9.141  19.748  0.00  0.00    +0.000 Cl
ATOM     21  C   UNL     1       2.838   8.238  17.914  0.00  0.00    +0.000 A 
ATOM     22  C   UNL     1       3.718   7.288  17.389  0.00  0.00    +0.000 A 
ENDBRANCH  15  16
ENDBRANCH  13  15
ENDBRANCH  12  13
ENDBRANCH   1  12
TORSDOF 7
ENDMDL
MODEL 9
REMARK VINA RESULT:      -6.7      4.691      7.117
REMARK  Name = 
REMARK  7 active torsions:
REMARK  status: ('A' for Active; 'I' for Inactive)
REMARK    1  A    between atoms: C_2  and  C_3
REMARK    2  A    between atoms: C_3  and  O_4
REMARK    3  A    between atoms: O_4  and  C_5
REMARK    4  A    between atoms: C_5  and  C_7
REMARK    5  A    between atoms: C_7  and  C_8
REMARK    6  A    between atoms: N_15  and  C_16
REMARK    7  A    between atoms: C_16  and  C_17
REMARK                            x       y       z     vdW  Elec       q    Type
REMARK                         _______ _______ _______ _____ _____    ______ ____
ROOT
ATOM      1  C   UNL     1       6.202   4.687  16.263  0.00  0.00    +0.000 C 
ENDROOT
BRANCH   1   3
ATOM      2  O   UNL     1       7.094   4.345  18.485  0.00  0.00    +0.000 OA
ATOM      3  C   UNL     1       6.157   4.185  17.707  0.00  0.00    +0.000 C 
ATOM      4  N   UNL     1       4.994   3.537  18.045  0.00  0.00    +0.000 N 
ATOM      5  H   UNL     1       4.273   3.412  17.337  0.00  0.00    +0.000 HD
BRANCH   4   6
ATOM      6  C   UNL     1       4.766   3.001  19.366  0.00  0.00    +0.000 C 
BRANCH   6   7
ATOM      7  C   UNL     1       3.293   2.958  19.616  0.00  0.00    +0.000 A 
ATOM      8  C   UNL     1       2.621   3.152  20.809  0.00  0.00    +0.000 A 
ATOM      9  C   UNL     1       1.208   3.030  20.664  0.00  0.00    +0.000 A 
ATOM     10  C   UNL     1       0.847   2.749  19.365  0.00  0.00    +0.000 A 
ATOM     11  S   UNL     1       2.204   2.634  18.331  0.00  0.00    +0.000 S 
ENDBRANCH   6   7
ENDBRANCH   4   6
ENDBRANCH   1   3
BRANCH   1  12
ATOM     12  O   UNL     1       6.574   6.063  16.168  0.00  0.00    +0.000 OA
BRANCH  12  13
ATOM     13  C   UNL     1       5.840   6.910  16.942  0.00  0.00    +0.000 C 
ATOM     14  O   UNL     1       6.304   7.617  17.832  0.00  0.00    +0.000 OA
BRANCH  13  15
ATOM     15  C   UNL     1       4.387   6.884  16.546  0.00  0.00    +0.000 C 
BRANCH  15  16
ATOM     16  C   UNL     1       3.442   7.238  17.667  0.00  0.00    +0.000 A 
ATOM     17  C   UNL     1       3.294   6.383  18.769  0.00  0.00    +0.000 A 
ATOM     18  C   UNL     1       2.461   6.737  19.833  0.00  0.00    +0.000 A 
ATOM     19  C   UNL     1       1.766   7.944  19.797  0.00  0.00    +0.000 A 
ATOM     20 CL   UNL     1       0.764   8.392  21.122  0.00  0.00    +0.000 Cl
ATOM     21  C   UNL     1       1.881   8.790  18.698  0.00  0.00    +0.000 A 
ATOM     22  C   UNL     1       2.712   8.436  17.631  0.00  0.00    +0.000 A 
ENDBRANCH  15  16
ENDBRANCH  13  15
ENDBRANCH  12  13
ENDBRANCH   1  12
TORSDOF 7
ENDMDL
