MODEL 1
REMARK VINA RESULT:      -8.5      0.000      0.000
REMARK  Name = 
REMARK  6 active torsions:
REMARK  status: ('A' for Active; 'I' for Inactive)
REMARK    1  A    between atoms: C_1  and  C_2
REMARK    2  A    between atoms: C_2  and  C_3
REMARK    3  A    between atoms: C_5  and  N_6
REMARK    4  A    between atoms: N_8  and  C_9
REMARK    5  A    between atoms: N_11  and  C_12
REMARK    6  A    between atoms: C_20  and  C_21
REMARK                            x       y       z     vdW  Elec       q    Type
REMARK                         _______ _______ _______ _____ _____    ______ ____
ROOT
ATOM      1  N   UNL     1       4.170   3.918  16.499  0.00  0.00    +0.000 NA
ATOM      2  C   UNL     1       5.327   4.072  17.044  0.00  0.00    +0.000 C 
ATOM      3  N   UNL     1       5.541   4.196  18.397  0.00  0.00    +0.000 N 
ATOM      4  N   UNL     1       6.478   4.076  16.281  0.00  0.00    +0.000 N 
ATOM      5  H   UNL     1       4.706   4.347  18.943  0.00  0.00    +0.000 HD
ATOM      6  H   UNL     1       7.340   3.813  16.741  0.00  0.00    +0.000 HD
ENDROOT
BRANCH   1  11
ATOM      7  C   UNL     1       3.597   2.927  20.669  0.00  0.00    +0.000 C 
ATOM      8  C   UNL     1       2.499   3.203  19.629  0.00  0.00    +0.000 C 
ATOM      9  C   UNL     1       1.185   2.563  20.085  0.00  0.00    +0.000 C 
ATOM     10  C   UNL     1       2.944   2.661  18.235  0.00  0.00    +0.000 C 
ATOM     11  C   UNL     1       2.917   3.814  17.213  0.00  0.00    +0.000 C 
ATOM     12  C   UNL     1       2.685   5.021  18.074  0.00  0.00    +0.000 A 
ATOM     13  C   UNL     1       2.721   6.349  17.658  0.00  0.00    +0.000 A 
ATOM     14  C   UNL     1       2.333   7.349  18.554  0.00  0.00    +0.000 A 
ATOM     15  C   UNL     1       1.924   7.005  19.854  0.00  0.00    +0.000 A 
ATOM     16  C   UNL     1       1.947   5.671  20.279  0.00  0.00    +0.000 A 
ATOM     17  C   UNL     1       2.348   4.684  19.383  0.00  0.00    +0.000 A 
BRANCH  14  18
ATOM     18  C   UNL     1       2.322   8.721  18.131  0.00  0.00    +0.000 C 
ATOM     19  N   UNL     1       2.307   9.825  17.776  0.00  0.00    +0.000 NA
ENDBRANCH  14  18
ENDBRANCH   1  11
BRANCH   4  20
ATOM     20  C   UNL     1       6.595   4.149  14.876  0.00  0.00    +0.000 A 
ATOM     21  C   UNL     1       5.831   3.370  13.999  0.00  0.00    +0.000 A 
ATOM     22  C   UNL     1       5.982   3.468  12.612  0.00  0.00    +0.000 A 
ATOM     23  C   UNL     1       6.906   4.362  12.077  0.00  0.00    +0.000 A 
ATOM     24  C   UNL     1       7.672   5.153  12.926  0.00  0.00    +0.000 A 
ATOM     25  C   UNL     1       7.516   5.047  14.313  0.00  0.00    +0.000 A 
ENDBRANCH   4  20
BRANCH   3  26
ATOM     26  C   UNL     1       6.685   4.931  18.878  0.00  0.00    +0.000 C 
ATOM     27  N   UNL     1       7.619   5.518  19.233  0.00  0.00    +0.000 NA
ENDBRANCH   3  26
TORSDOF 4
ENDMDL
MODEL 2
REMARK VINA RESULT:      -8.0      2.046      3.734
REMARK  Name = 
REMARK  6 active torsions:
REMARK  status: ('A' for Active; 'I' for Inactive)
REMARK    1  A    between atoms: C_1  and  C_2
REMARK    2  A    between atoms: C_2  and  C_3
REMARK    3  A    between atoms: C_5  and  N_6
REMARK    4  A    between atoms: N_8  and  C_9
REMARK    5  A    between atoms: N_11  and  C_12
REMARK    6  A    between atoms: C_20  and  C_21
REMARK                            x       y       z     vdW  Elec       q    Type
REMARK                         _______ _______ _______ _____ _____    ______ ____
ROOT
ATOM      1  N   UNL     1       4.556   5.398  17.241  0.00  0.00    +0.000 NA
ATOM      2  C   UNL     1       5.239   5.357  16.149  0.00  0.00    +0.000 C 
ATOM      3  N   UNL     1       4.859   4.675  15.016  0.00  0.00    +0.000 N 
ATOM      4  N   UNL     1       6.419   6.061  16.022  0.00  0.00    +0.000 N 
ATOM      5  H   UNL     1       4.085   4.040  15.147  0.00  0.00    +0.000 HD
ATOM      6  H   UNL     1       6.708   6.317  15.087  0.00  0.00    +0.000 HD
ENDROOT
BRANCH   1  11
ATOM      7  C   UNL     1       3.614   2.172  19.962  0.00  0.00    +0.000 C 
ATOM      8  C   UNL     1       2.651   2.859  18.981  0.00  0.00    +0.000 C 
ATOM      9  C   UNL     1       1.472   1.929  18.680  0.00  0.00    +0.000 C 
ATOM     10  C   UNL     1       3.415   3.252  17.679  0.00  0.00    +0.000 C 
ATOM     11  C   UNL     1       3.270   4.768  17.446  0.00  0.00    +0.000 C 
ATOM     12  C   UNL     1       2.633   5.245  18.718  0.00  0.00    +0.000 A 
ATOM     13  C   UNL     1       2.416   6.569  19.086  0.00  0.00    +0.000 A 
ATOM     14  C   UNL     1       1.673   6.839  20.239  0.00  0.00    +0.000 A 
ATOM     15  C   UNL     1       1.166   5.778  21.009  0.00  0.00    +0.000 A 
ATOM     16  C   UNL     1       1.440   4.450  20.661  0.00  0.00    +0.000 A 
ATOM     17  C   UNL     1       2.193   4.193  19.519  0.00  0.00    +0.000 A 
BRANCH  14  18
ATOM     18  C   UNL     1       1.401   8.198  20.611  0.00  0.00    +0.000 C 
ATOM     19  N   UNL     1       1.179   9.300  20.897  0.00  0.00    +0.000 NA
ENDBRANCH  14  18
ENDBRANCH   1  11
BRANCH   4  20
ATOM     20  C   UNL     1       7.166   6.704  17.033  0.00  0.00    +0.000 A 
ATOM     21  C   UNL     1       7.496   8.064  16.999  0.00  0.00    +0.000 A 
ATOM     22  C   UNL     1       8.244   8.662  18.019  0.00  0.00    +0.000 A 
ATOM     23  C   UNL     1       8.673   7.899  19.102  0.00  0.00    +0.000 A 
ATOM     24  C   UNL     1       8.352   6.547  19.164  0.00  0.00    +0.000 A 
ATOM     25  C   UNL     1       7.604   5.957  18.139  0.00  0.00    +0.000 A 
ENDBRANCH   4  20
BRANCH   3  26
ATOM     26  C   UNL     1       5.863   4.180  14.106  0.00  0.00    +0.000 C 
ATOM     27  N   UNL     1       6.672   3.815  13.362  0.00  0.00    +0.000 NA
ENDBRANCH   3  26
TORSDOF 4
ENDMDL
MODEL 3
REMARK VINA RESULT:      -7.8      2.121      6.734
REMARK  Name = 
REMARK  6 active torsions:
REMARK  status: ('A' for Active; 'I' for Inactive)
REMARK    1  A    between atoms: C_1  and  C_2
REMARK    2  A    between atoms: C_2  and  C_3
REMARK    3  A    between atoms: C_5  and  N_6
REMARK    4  A    between atoms: N_8  and  C_9
REMARK    5  A    between atoms: N_11  and  C_12
REMARK    6  A    between atoms: C_20  and  C_21
REMARK                            x       y       z     vdW  Elec       q    Type
REMARK                         _______ _______ _______ _____ _____    ______ ____
ROOT
ATOM      1  N   UNL     1       3.649   6.193  17.736  0.00  0.00    +0.000 NA
ATOM      2  C   UNL     1       2.593   6.768  18.199  0.00  0.00    +0.000 C 
ATOM      3  N   UNL     1       2.388   8.129  18.210  0.00  0.00    +0.000 N 
ATOM      4  N   UNL     1       1.536   6.027  18.688  0.00  0.00    +0.000 N 
ATOM      5  H   UNL     1       3.207   8.679  17.998  0.00  0.00    +0.000 HD
ATOM      6  H   UNL     1       0.621   6.459  18.674  0.00  0.00    +0.000 HD
ENDROOT
BRANCH   1  11
ATOM      7  C   UNL     1       7.832   5.792  18.754  0.00  0.00    +0.000 C 
ATOM      8  C   UNL     1       7.229   6.721  17.689  0.00  0.00    +0.000 C 
ATOM      9  C   UNL     1       8.196   7.875  17.405  0.00  0.00    +0.000 C 
ATOM     10  C   UNL     1       5.840   7.244  18.169  0.00  0.00    +0.000 C 
ATOM     11  C   UNL     1       4.770   6.870  17.125  0.00  0.00    +0.000 C 
ATOM     12  C   UNL     1       5.513   5.956  16.196  0.00  0.00    +0.000 A 
ATOM     13  C   UNL     1       4.963   5.218  15.151  0.00  0.00    +0.000 A 
ATOM     14  C   UNL     1       5.818   4.531  14.284  0.00  0.00    +0.000 A 
ATOM     15  C   UNL     1       7.208   4.587  14.481  0.00  0.00    +0.000 A 
ATOM     16  C   UNL     1       7.746   5.285  15.569  0.00  0.00    +0.000 A 
ATOM     17  C   UNL     1       6.886   5.954  16.435  0.00  0.00    +0.000 A 
BRANCH  14  18
ATOM     18  C   UNL     1       5.272   3.800  13.176  0.00  0.00    +0.000 C 
ATOM     19  N   UNL     1       4.833   3.221  12.272  0.00  0.00    +0.000 NA
ENDBRANCH  14  18
ENDBRANCH   1  11
BRANCH   4  20
ATOM     20  C   UNL     1       1.497   4.646  18.978  0.00  0.00    +0.000 A 
ATOM     21  C   UNL     1       1.635   3.651  18.003  0.00  0.00    +0.000 A 
ATOM     22  C   UNL     1       1.584   2.292  18.332  0.00  0.00    +0.000 A 
ATOM     23  C   UNL     1       1.398   1.906  19.657  0.00  0.00    +0.000 A 
ATOM     24  C   UNL     1       1.266   2.875  20.646  0.00  0.00    +0.000 A 
ATOM     25  C   UNL     1       1.317   4.232  20.308  0.00  0.00    +0.000 A 
ENDBRANCH   4  20
BRANCH   3  26
ATOM     26  C   UNL     1       1.542   8.718  19.218  0.00  0.00    +0.000 C 
ATOM     27  N   UNL     1       0.859   9.159  20.043  0.00  0.00    +0.000 NA
ENDBRANCH   3  26
TORSDOF 4
ENDMDL
MODEL 4
REMARK VINA RESULT:      -7.5      2.976      6.945
REMARK  Name = 
REMARK  6 active torsions:
REMARK  status: ('A' for Active; 'I' for Inactive)
REMARK    1  A    between atoms: C_1  and  C_2
REMARK    2  A    between atoms: C_2  and  C_3
REMARK    3  A    between atoms: C_5  and  N_6
REMARK    4  A    between atoms: N_8  and  C_9
REMARK    5  A    between atoms: N_11  and  C_12
REMARK    6  A    between atoms: C_20  and  C_21
REMARK                            x       y       z     vdW  Elec       q    Type
REMARK                         _______ _______ _______ _____ _____    ______ ____
ROOT
ATOM      1  N   UNL     1       1.532   7.503  20.055  0.00  0.00    +0.000 NA
ATOM      2  C   UNL     1       1.249   8.469  20.860  0.00  0.00    +0.000 C 
ATOM      3  N   UNL     1       1.691   8.555  22.160  0.00  0.00    +0.000 N 
ATOM      4  N   UNL     1       0.495   9.546  20.440  0.00  0.00    +0.000 N 
ATOM      5  H   UNL     1       2.109   7.710  22.519  0.00  0.00    +0.000 HD
ATOM      6  H   UNL     1       0.617  10.419  20.936  0.00  0.00    +0.000 HD
ENDROOT
BRANCH   1  11
ATOM      7  C   UNL     1       0.562   3.304  19.704  0.00  0.00    +0.000 C 
ATOM      8  C   UNL     1       1.875   3.904  20.230  0.00  0.00    +0.000 C 
ATOM      9  C   UNL     1       2.590   2.881  21.117  0.00  0.00    +0.000 C 
ATOM     10  C   UNL     1       1.580   5.225  21.006  0.00  0.00    +0.000 C 
ATOM     11  C   UNL     1       2.382   6.376  20.369  0.00  0.00    +0.000 C 
ATOM     12  C   UNL     1       2.933   5.751  19.121  0.00  0.00    +0.000 A 
ATOM     13  C   UNL     1       3.617   6.409  18.103  0.00  0.00    +0.000 A 
ATOM     14  C   UNL     1       4.198   5.654  17.080  0.00  0.00    +0.000 A 
ATOM     15  C   UNL     1       4.076   4.254  17.087  0.00  0.00    +0.000 A 
ATOM     16  C   UNL     1       3.335   3.608  18.085  0.00  0.00    +0.000 A 
ATOM     17  C   UNL     1       2.750   4.370  19.092  0.00  0.00    +0.000 A 
BRANCH  14  18
ATOM     18  C   UNL     1       4.944   6.310  16.045  0.00  0.00    +0.000 C 
ATOM     19  N   UNL     1       5.539   6.835  15.198  0.00  0.00    +0.000 NA
ENDBRANCH  14  18
ENDBRANCH   1  11
BRANCH   4  20
ATOM     20  C   UNL     1      -0.247   9.681  19.246  0.00  0.00    +0.000 A 
ATOM     21  C   UNL     1       0.221   9.256  17.997  0.00  0.00    +0.000 A 
ATOM     22  C   UNL     1      -0.544   9.414  16.837  0.00  0.00    +0.000 A 
ATOM     23  C   UNL     1      -1.804  10.002  16.911  0.00  0.00    +0.000 A 
ATOM     24  C   UNL     1      -2.295  10.426  18.141  0.00  0.00    +0.000 A 
ATOM     25  C   UNL     1      -1.524  10.265  19.297  0.00  0.00    +0.000 A 
ENDBRANCH   4  20
BRANCH   3  26
ATOM     26  C   UNL     1       0.908   9.272  23.137  0.00  0.00    +0.000 C 
ATOM     27  N   UNL     1       0.250   9.834  23.907  0.00  0.00    +0.000 NA
ENDBRANCH   3  26
TORSDOF 4
ENDMDL
MODEL 5
REMARK VINA RESULT:      -7.2      6.520     10.618
REMARK  Name = 
REMARK  6 active torsions:
REMARK  status: ('A' for Active; 'I' for Inactive)
REMARK    1  A    between atoms: C_1  and  C_2
REMARK    2  A    between atoms: C_2  and  C_3
REMARK    3  A    between atoms: C_5  and  N_6
REMARK    4  A    between atoms: N_8  and  C_9
REMARK    5  A    between atoms: N_11  and  C_12
REMARK    6  A    between atoms: C_20  and  C_21
REMARK                            x       y       z     vdW  Elec       q    Type
REMARK                         _______ _______ _______ _____ _____    ______ ____
ROOT
ATOM      1  N   UNL     1      -0.562  11.633  19.844  0.00  0.00    +0.000 NA
ATOM      2  C   UNL     1      -0.140  10.620  19.170  0.00  0.00    +0.000 C 
ATOM      3  N   UNL     1       1.074  10.003  19.365  0.00  0.00    +0.000 N 
ATOM      4  N   UNL     1      -0.929  10.032  18.201  0.00  0.00    +0.000 N 
ATOM      5  H   UNL     1       1.713  10.512  19.958  0.00  0.00    +0.000 HD
ATOM      6  H   UNL     1      -0.749   9.061  17.982  0.00  0.00    +0.000 HD
ENDROOT
BRANCH   1  11
ATOM      7  C   UNL     1       0.297  15.844  20.327  0.00  0.00    +0.000 C 
ATOM      8  C   UNL     1       0.723  14.704  21.265  0.00  0.00    +0.000 C 
ATOM      9  C   UNL     1       1.935  15.144  22.093  0.00  0.00    +0.000 C 
ATOM     10  C   UNL     1       1.035  13.422  20.433  0.00  0.00    +0.000 C 
ATOM     11  C   UNL     1       0.148  12.266  20.934  0.00  0.00    +0.000 C 
ATOM     12  C   UNL     1      -0.802  12.952  21.871  0.00  0.00    +0.000 A 
ATOM     13  C   UNL     1      -1.911  12.380  22.486  0.00  0.00    +0.000 A 
ATOM     14  C   UNL     1      -2.605  13.116  23.450  0.00  0.00    +0.000 A 
ATOM     15  C   UNL     1      -2.184  14.416  23.776  0.00  0.00    +0.000 A 
ATOM     16  C   UNL     1      -1.102  15.003  23.109  0.00  0.00    +0.000 A 
ATOM     17  C   UNL     1      -0.426  14.267  22.140  0.00  0.00    +0.000 A 
BRANCH  14  18
ATOM     18  C   UNL     1      -3.725  12.526  24.127  0.00  0.00    +0.000 C 
ATOM     19  N   UNL     1      -4.631  12.061  24.684  0.00  0.00    +0.000 NA
ENDBRANCH  14  18
ENDBRANCH   1  11
BRANCH   4  20
ATOM     20  C   UNL     1      -2.131  10.518  17.640  0.00  0.00    +0.000 A 
ATOM     21  C   UNL     1      -3.136  11.136  18.392  0.00  0.00    +0.000 A 
ATOM     22  C   UNL     1      -4.315  11.598  17.798  0.00  0.00    +0.000 A 
ATOM     23  C   UNL     1      -4.505  11.450  16.426  0.00  0.00    +0.000 A 
ATOM     24  C   UNL     1      -3.518  10.845  15.655  0.00  0.00    +0.000 A 
ATOM     25  C   UNL     1      -2.341  10.385  16.257  0.00  0.00    +0.000 A 
ENDBRANCH   4  20
BRANCH   3  26
ATOM     26  C   UNL     1       1.720   9.326  18.268  0.00  0.00    +0.000 C 
ATOM     27  N   UNL     1       2.216   8.754  17.391  0.00  0.00    +0.000 NA
ENDBRANCH   3  26
TORSDOF 4
ENDMDL
MODEL 6
REMARK VINA RESULT:      -7.2      7.218     10.943
REMARK  Name = 
REMARK  6 active torsions:
REMARK  status: ('A' for Active; 'I' for Inactive)
REMARK    1  A    between atoms: C_1  and  C_2
REMARK    2  A    between atoms: C_2  and  C_3
REMARK    3  A    between atoms: C_5  and  N_6
REMARK    4  A    between atoms: N_8  and  C_9
REMARK    5  A    between atoms: N_11  and  C_12
REMARK    6  A    between atoms: C_20  and  C_21
REMARK                            x       y       z     vdW  Elec       q    Type
REMARK                         _______ _______ _______ _____ _____    ______ ____
ROOT
ATOM      1  N   UNL     1      -2.905  11.710  18.528  0.00  0.00    +0.000 NA
ATOM      2  C   UNL     1      -2.473  11.330  17.375  0.00  0.00    +0.000 C 
ATOM      3  N   UNL     1      -3.114  11.576  16.183  0.00  0.00    +0.000 N 
ATOM      4  N   UNL     1      -1.268  10.669  17.250  0.00  0.00    +0.000 N 
ATOM      5  H   UNL     1      -4.059  11.920  16.276  0.00  0.00    +0.000 HD
ATOM      6  H   UNL     1      -0.794  10.734  16.359  0.00  0.00    +0.000 HD
ENDROOT
BRANCH   1  11
ATOM      7  C   UNL     1      -6.791  10.227  19.714  0.00  0.00    +0.000 C 
ATOM      8  C   UNL     1      -6.416  11.686  19.410  0.00  0.00    +0.000 C 
ATOM      9  C   UNL     1      -7.676  12.476  19.045  0.00  0.00    +0.000 C 
ATOM     10  C   UNL     1      -5.360  11.733  18.263  0.00  0.00    +0.000 C 
ATOM     11  C   UNL     1      -4.107  12.480  18.758  0.00  0.00    +0.000 C 
ATOM     12  C   UNL     1      -4.371  12.643  20.226  0.00  0.00    +0.000 A 
ATOM     13  C   UNL     1      -3.478  13.131  21.176  0.00  0.00    +0.000 A 
ATOM     14  C   UNL     1      -3.933  13.362  22.477  0.00  0.00    +0.000 A 
ATOM     15  C   UNL     1      -5.271  13.091  22.810  0.00  0.00    +0.000 A 
ATOM     16  C   UNL     1      -6.145  12.546  21.861  0.00  0.00    +0.000 A 
ATOM     17  C   UNL     1      -5.679  12.307  20.572  0.00  0.00    +0.000 A 
BRANCH  14  18
ATOM     18  C   UNL     1      -3.038  13.905  23.459  0.00  0.00    +0.000 C 
ATOM     19  N   UNL     1      -2.317  14.333  24.261  0.00  0.00    +0.000 NA
ENDBRANCH  14  18
ENDBRANCH   1  11
BRANCH   4  20
ATOM     20  C   UNL     1      -0.465  10.114  18.271  0.00  0.00    +0.000 A 
ATOM     21  C   UNL     1       0.772   9.505  18.030  0.00  0.00    +0.000 A 
ATOM     22  C   UNL     1       1.534   8.962  19.070  0.00  0.00    +0.000 A 
ATOM     23  C   UNL     1       1.067   9.027  20.380  0.00  0.00    +0.000 A 
ATOM     24  C   UNL     1      -0.156   9.633  20.647  0.00  0.00    +0.000 A 
ATOM     25  C   UNL     1      -0.913  10.174  19.601  0.00  0.00    +0.000 A 
ENDBRANCH   4  20
BRANCH   3  26
ATOM     26  C   UNL     1      -2.936  10.672  15.073  0.00  0.00    +0.000 C 
ATOM     27  N   UNL     1      -2.761   9.960  14.176  0.00  0.00    +0.000 NA
ENDBRANCH   3  26
TORSDOF 4
ENDMDL
MODEL 7
REMARK VINA RESULT:      -7.1      3.173      6.617
REMARK  Name = 
REMARK  6 active torsions:
REMARK  status: ('A' for Active; 'I' for Inactive)
REMARK    1  A    between atoms: C_1  and  C_2
REMARK    2  A    between atoms: C_2  and  C_3
REMARK    3  A    between atoms: C_5  and  N_6
REMARK    4  A    between atoms: N_8  and  C_9
REMARK    5  A    between atoms: N_11  and  C_12
REMARK    6  A    between atoms: C_20  and  C_21
REMARK                            x       y       z     vdW  Elec       q    Type
REMARK                         _______ _______ _______ _____ _____    ______ ____
ROOT
ATOM      1  N   UNL     1       2.076   7.619  18.942  0.00  0.00    +0.000 NA
ATOM      2  C   UNL     1       3.064   7.054  18.338  0.00  0.00    +0.000 C 
ATOM      3  N   UNL     1       4.014   7.724  17.602  0.00  0.00    +0.000 N 
ATOM      4  N   UNL     1       3.272   5.693  18.434  0.00  0.00    +0.000 N 
ATOM      5  H   UNL     1       3.788   8.687  17.401  0.00  0.00    +0.000 HD
ATOM      6  H   UNL     1       4.215   5.357  18.293  0.00  0.00    +0.000 HD
ENDROOT
BRANCH   1  11
ATOM      7  C   UNL     1      -1.560   9.662  17.800  0.00  0.00    +0.000 C 
ATOM      8  C   UNL     1      -0.255  10.310  18.289  0.00  0.00    +0.000 C 
ATOM      9  C   UNL     1      -0.194  11.766  17.817  0.00  0.00    +0.000 C 
ATOM     10  C   UNL     1       0.968   9.491  17.773  0.00  0.00    +0.000 C 
ATOM     11  C   UNL     1       1.820   9.042  18.976  0.00  0.00    +0.000 C 
ATOM     12  C   UNL     1       0.962   9.408  20.151  0.00  0.00    +0.000 A 
ATOM     13  C   UNL     1       1.205   9.083  21.482  0.00  0.00    +0.000 A 
ATOM     14  C   UNL     1       0.385   9.632  22.473  0.00  0.00    +0.000 A 
ATOM     15  C   UNL     1      -0.669  10.488  22.115  0.00  0.00    +0.000 A 
ATOM     16  C   UNL     1      -0.940  10.761  20.768  0.00  0.00    +0.000 A 
ATOM     17  C   UNL     1      -0.126  10.200  19.789  0.00  0.00    +0.000 A 
BRANCH  14  18
ATOM     18  C   UNL     1       0.647   9.343  23.855  0.00  0.00    +0.000 C 
ATOM     19  N   UNL     1       0.865   9.123  24.973  0.00  0.00    +0.000 NA
ENDBRANCH  14  18
ENDBRANCH   1  11
BRANCH   4  20
ATOM     20  C   UNL     1       2.401   4.711  18.954  0.00  0.00    +0.000 A 
ATOM     21  C   UNL     1       2.125   4.572  20.319  0.00  0.00    +0.000 A 
ATOM     22  C   UNL     1       1.260   3.580  20.793  0.00  0.00    +0.000 A 
ATOM     23  C   UNL     1       0.647   2.707  19.897  0.00  0.00    +0.000 A 
ATOM     24  C   UNL     1       0.899   2.829  18.535  0.00  0.00    +0.000 A 
ATOM     25  C   UNL     1       1.766   3.823  18.068  0.00  0.00    +0.000 A 
ENDBRANCH   4  20
BRANCH   3  26
ATOM     26  C   UNL     1       4.687   7.052  16.518  0.00  0.00    +0.000 C 
ATOM     27  N   UNL     1       5.252   6.537  15.648  0.00  0.00    +0.000 NA
ENDBRANCH   3  26
TORSDOF 4
ENDMDL
MODEL 8
REMARK VINA RESULT:      -7.1      9.598     12.419
REMARK  Name = 
REMARK  6 active torsions:
REMARK  status: ('A' for Active; 'I' for Inactive)
REMARK    1  A    between atoms: C_1  and  C_2
REMARK    2  A    between atoms: C_2  and  C_3
REMARK    3  A    between atoms: C_5  and  N_6
REMARK    4  A    between atoms: N_8  and  C_9
REMARK    5  A    between atoms: N_11  and  C_12
REMARK    6  A    between atoms: C_20  and  C_21
REMARK                            x       y       z     vdW  Elec       q    Type
REMARK                         _______ _______ _______ _____ _____    ______ ____
ROOT
ATOM      1  N   UNL     1      -3.185  11.941  18.982  0.00  0.00    +0.000 NA
ATOM      2  C   UNL     1      -3.466  11.315  17.891  0.00  0.00    +0.000 C 
ATOM      3  N   UNL     1      -2.586  10.508  17.207  0.00  0.00    +0.000 N 
ATOM      4  N   UNL     1      -4.730  11.378  17.341  0.00  0.00    +0.000 N 
ATOM      5  H   UNL     1      -1.627  10.577  17.513  0.00  0.00    +0.000 HD
ATOM      6  H   UNL     1      -5.016  10.610  16.748  0.00  0.00    +0.000 HD
ENDROOT
BRANCH   1  11
ATOM      7  C   UNL     1      -0.301  15.119  19.516  0.00  0.00    +0.000 C 
ATOM      8  C   UNL     1      -0.171  13.667  20.002  0.00  0.00    +0.000 C 
ATOM      9  C   UNL     1       1.306  13.326  20.217  0.00  0.00    +0.000 C 
ATOM     10  C   UNL     1      -0.836  12.702  18.972  0.00  0.00    +0.000 C 
ATOM     11  C   UNL     1      -1.922  11.872  19.683  0.00  0.00    +0.000 C 
ATOM     12  C   UNL     1      -2.017  12.527  21.030  0.00  0.00    +0.000 A 
ATOM     13  C   UNL     1      -2.959  12.251  22.017  0.00  0.00    +0.000 A 
ATOM     14  C   UNL     1      -2.816  12.843  23.275  0.00  0.00    +0.000 A 
ATOM     15  C   UNL     1      -1.737  13.709  23.522  0.00  0.00    +0.000 A 
ATOM     16  C   UNL     1      -0.828  14.025  22.504  0.00  0.00    +0.000 A 
ATOM     17  C   UNL     1      -0.988  13.441  21.251  0.00  0.00    +0.000 A 
BRANCH  14  18
ATOM     18  C   UNL     1      -3.752  12.537  24.318  0.00  0.00    +0.000 C 
ATOM     19  N   UNL     1      -4.515  12.279  25.153  0.00  0.00    +0.000 NA
ENDBRANCH  14  18
ENDBRANCH   1  11
BRANCH   4  20
ATOM     20  C   UNL     1      -5.792  12.241  17.687  0.00  0.00    +0.000 A 
ATOM     21  C   UNL     1      -6.417  12.228  18.940  0.00  0.00    +0.000 A 
ATOM     22  C   UNL     1      -7.471  13.097  19.240  0.00  0.00    +0.000 A 
ATOM     23  C   UNL     1      -7.917  14.005  18.283  0.00  0.00    +0.000 A 
ATOM     24  C   UNL     1      -7.308  14.043  17.033  0.00  0.00    +0.000 A 
ATOM     25  C   UNL     1      -6.254  13.170  16.740  0.00  0.00    +0.000 A 
ENDBRANCH   4  20
BRANCH   3  26
ATOM     26  C   UNL     1      -2.727  10.341  15.781  0.00  0.00    +0.000 C 
ATOM     27  N   UNL     1      -2.875  10.212  14.640  0.00  0.00    +0.000 NA
ENDBRANCH   3  26
TORSDOF 4
ENDMDL
MODEL 9
REMARK VINA RESULT:      -7.0      8.886     13.265
REMARK  Name = 
REMARK  6 active torsions:
REMARK  status: ('A' for Active; 'I' for Inactive)
REMARK    1  A    between atoms: C_1  and  C_2
REMARK    2  A    between atoms: C_2  and  C_3
REMARK    3  A    between atoms: C_5  and  N_6
REMARK    4  A    between atoms: N_8  and  C_9
REMARK    5  A    between atoms: N_11  and  C_12
REMARK    6  A    between atoms: C_20  and  C_21
REMARK                            x       y       z     vdW  Elec       q    Type
REMARK                         _______ _______ _______ _____ _____    ______ ____
ROOT
ATOM      1  N   UNL     1      -3.613  13.405  20.736  0.00  0.00    +0.000 NA
ATOM      2  C   UNL     1      -4.287  14.502  20.681  0.00  0.00    +0.000 C 
ATOM      3  N   UNL     1      -3.781  15.707  20.252  0.00  0.00    +0.000 N 
ATOM      4  N   UNL     1      -5.625  14.531  21.017  0.00  0.00    +0.000 N 
ATOM      5  H   UNL     1      -2.777  15.730  20.152  0.00  0.00    +0.000 HD
ATOM      6  H   UNL     1      -6.189  15.266  20.609  0.00  0.00    +0.000 HD
ENDROOT
BRANCH   1  11
ATOM      7  C   UNL     1      -0.773  10.459  22.135  0.00  0.00    +0.000 C 
ATOM      8  C   UNL     1      -0.508  11.586  21.124  0.00  0.00    +0.000 C 
ATOM      9  C   UNL     1       0.992  11.892  21.075  0.00  0.00    +0.000 C 
ATOM     10  C   UNL     1      -1.336  12.850  21.512  0.00  0.00    +0.000 C 
ATOM     11  C   UNL     1      -2.235  13.249  20.326  0.00  0.00    +0.000 C 
ATOM     12  C   UNL     1      -2.080  12.093  19.383  0.00  0.00    +0.000 A 
ATOM     13  C   UNL     1      -2.800  11.884  18.210  0.00  0.00    +0.000 A 
ATOM     14  C   UNL     1      -2.427  10.834  17.365  0.00  0.00    +0.000 A 
ATOM     15  C   UNL     1      -1.346  10.006  17.712  0.00  0.00    +0.000 A 
ATOM     16  C   UNL     1      -0.666  10.191  18.922  0.00  0.00    +0.000 A 
ATOM     17  C   UNL     1      -1.054  11.230  19.763  0.00  0.00    +0.000 A 
BRANCH  14  18
ATOM     18  C   UNL     1      -3.130  10.629  16.131  0.00  0.00    +0.000 C 
ATOM     19  N   UNL     1      -3.686  10.457  15.127  0.00  0.00    +0.000 NA
ENDBRANCH  14  18
ENDBRANCH   1  11
BRANCH   4  20
ATOM     20  C   UNL     1      -6.389  13.529  21.654  0.00  0.00    +0.000 A 
ATOM     21  C   UNL     1      -7.028  12.493  20.963  0.00  0.00    +0.000 A 
ATOM     22  C   UNL     1      -7.781  11.523  21.633  0.00  0.00    +0.000 A 
ATOM     23  C   UNL     1      -7.902  11.573  23.019  0.00  0.00    +0.000 A 
ATOM     24  C   UNL     1      -7.271  12.588  23.730  0.00  0.00    +0.000 A 
ATOM     25  C   UNL     1      -6.520  13.556  23.053  0.00  0.00    +0.000 A 
ENDBRANCH   4  20
BRANCH   3  26
ATOM     26  C   UNL     1      -4.339  16.939  20.754  0.00  0.00    +0.000 C 
ATOM     27  N   UNL     1      -4.819  17.917  21.146  0.00  0.00    +0.000 NA
ENDBRANCH   3  26
TORSDOF 4
ENDMDL
