MODEL 1
REMARK VINA RESULT:      -8.4      0.000      0.000
REMARK  Name = 
REMARK  6 active torsions:
REMARK  status: ('A' for Active; 'I' for Inactive)
REMARK    1  A    between atoms: C_2  and  C_11
REMARK    2  A    between atoms: N_3  and  C_4
REMARK    3  A    between atoms: C_14  and  S_15
REMARK    4  A    between atoms: S_15  and  C_16
REMARK    5  A    between atoms: C_16  and  C_17
REMARK    6  A    between atoms: C_17  and  C_19
REMARK                            x       y       z     vdW  Elec       q    Type
REMARK                         _______ _______ _______ _____ _____    ______ ____
ROOT
ATOM      1  C   UNL     1       7.715   7.824  17.827  0.00  0.00    +0.000 A 
ATOM      2  C   UNL     1       8.023   6.710  18.606  0.00  0.00    +0.000 A 
ATOM      3  C   UNL     1       7.534   5.460  18.217  0.00  0.00    +0.000 A 
ATOM      4  C   UNL     1       6.769   5.362  17.056  0.00  0.00    +0.000 A 
ATOM      5  N   UNL     1       6.461   6.432  16.294  0.00  0.00    +0.000 NA
ATOM      6  C   UNL     1       6.922   7.639  16.704  0.00  0.00    +0.000 A 
ENDROOT
BRANCH   1   8
ATOM      7  O   UNL     1       7.743  10.109  17.450  0.00  0.00    +0.000 OA
ATOM      8  C   UNL     1       8.160   9.196  18.152  0.00  0.00    +0.000 C 
ATOM      9  N   UNL     1       9.077   9.293  19.185  0.00  0.00    +0.000 N 
ATOM     10  H   UNL     1       9.465   8.431  19.551  0.00  0.00    +0.000 HD
BRANCH   9  11
ATOM     11  C   UNL     1       9.700  10.485  19.622  0.00  0.00    +0.000 A 
ATOM     12  C   UNL     1       9.376  11.127  20.824  0.00  0.00    +0.000 A 
ATOM     13  C   UNL     1       9.985  12.339  21.169  0.00  0.00    +0.000 A 
ATOM     14  C   UNL     1      10.921  12.903  20.316  0.00  0.00    +0.000 A 
ATOM     15  F   UNL     1      11.482  14.075  20.633  0.00  0.00    +0.000 F 
ATOM     16  C   UNL     1      11.280  12.266  19.134  0.00  0.00    +0.000 A 
ATOM     17  C   UNL     1      10.677  11.052  18.792  0.00  0.00    +0.000 A 
ENDBRANCH   9  11
ENDBRANCH   1   8
BRANCH   4  18
ATOM     18  S   UNL     1       6.107   3.787  16.554  0.00  0.00    +0.000 S 
BRANCH  18  19
ATOM     19  C   UNL     1       4.322   4.098  16.831  0.00  0.00    +0.000 C 
BRANCH  19  20
ATOM     20  C   UNL     1       3.995   4.186  18.315  0.00  0.00    +0.000 C 
ATOM     21  O   UNL     1       4.341   3.306  19.107  0.00  0.00    +0.000 OA
BRANCH  20  22
ATOM     22  C   UNL     1       3.321   5.383  18.793  0.00  0.00    +0.000 A 
ATOM     23  C   UNL     1       2.751   5.618  20.032  0.00  0.00    +0.000 A 
ATOM     24  C   UNL     1       2.170   6.906  19.987  0.00  0.00    +0.000 A 
ATOM     25  C   UNL     1       1.430   7.695  20.885  0.00  0.00    +0.000 A 
ATOM     26  C   UNL     1       0.974   8.948  20.458  0.00  0.00    +0.000 A 
ATOM     27  C   UNL     1       1.264   9.408  19.171  0.00  0.00    +0.000 A 
ATOM     28 BR   UNL     1       0.599  11.098  18.632  0.00  0.00    +0.000 Br
ATOM     29  C   UNL     1       2.020   8.651  18.266  0.00  0.00    +0.000 A 
ATOM     30  C   UNL     1       2.444   7.401  18.718  0.00  0.00    +0.000 A 
ATOM     31  O   UNL     1       3.161   6.486  17.997  0.00  0.00    +0.000 OA
ENDBRANCH  20  22
ENDBRANCH  19  20
ENDBRANCH  18  19
ENDBRANCH   4  18
TORSDOF 6
ENDMDL
MODEL 2
REMARK VINA RESULT:      -8.1      1.692      2.313
REMARK  Name = 
REMARK  6 active torsions:
REMARK  status: ('A' for Active; 'I' for Inactive)
REMARK    1  A    between atoms: C_2  and  C_11
REMARK    2  A    between atoms: N_3  and  C_4
REMARK    3  A    between atoms: C_14  and  S_15
REMARK    4  A    between atoms: S_15  and  C_16
REMARK    5  A    between atoms: C_16  and  C_17
REMARK    6  A    between atoms: C_17  and  C_19
REMARK                            x       y       z     vdW  Elec       q    Type
REMARK                         _______ _______ _______ _____ _____    ______ ____
ROOT
ATOM      1  C   UNL     1       8.336   8.642  18.427  0.00  0.00    +0.000 A 
ATOM      2  C   UNL     1       7.396   8.605  17.399  0.00  0.00    +0.000 A 
ATOM      3  C   UNL     1       6.755   7.396  17.116  0.00  0.00    +0.000 A 
ATOM      4  C   UNL     1       7.061   6.270  17.879  0.00  0.00    +0.000 A 
ATOM      5  N   UNL     1       7.971   6.291  18.876  0.00  0.00    +0.000 NA
ATOM      6  C   UNL     1       8.601   7.467  19.116  0.00  0.00    +0.000 A 
ENDROOT
BRANCH   1   8
ATOM      7  O   UNL     1       9.164  10.135  19.992  0.00  0.00    +0.000 OA
ATOM      8  C   UNL     1       9.089   9.858  18.801  0.00  0.00    +0.000 C 
ATOM      9  N   UNL     1       9.574  10.605  17.742  0.00  0.00    +0.000 N 
ATOM     10  H   UNL     1       9.276  10.343  16.808  0.00  0.00    +0.000 HD
BRANCH   9  11
ATOM     11  C   UNL     1      10.255  11.840  17.849  0.00  0.00    +0.000 A 
ATOM     12  C   UNL     1      11.623  11.943  18.126  0.00  0.00    +0.000 A 
ATOM     13  C   UNL     1      12.225  13.197  18.283  0.00  0.00    +0.000 A 
ATOM     14  C   UNL     1      11.458  14.345  18.155  0.00  0.00    +0.000 A 
ATOM     15  F   UNL     1      12.028  15.543  18.332  0.00  0.00    +0.000 F 
ATOM     16  C   UNL     1      10.105  14.266  17.848  0.00  0.00    +0.000 A 
ATOM     17  C   UNL     1       9.506  13.014  17.685  0.00  0.00    +0.000 A 
ENDBRANCH   9  11
ENDBRANCH   1   8
BRANCH   4  18
ATOM     18  S   UNL     1       6.282   4.709  17.520  0.00  0.00    +0.000 S 
BRANCH  18  19
ATOM     19  C   UNL     1       5.354   4.460  19.082  0.00  0.00    +0.000 C 
BRANCH  19  20
ATOM     20  C   UNL     1       3.851   4.445  18.841  0.00  0.00    +0.000 C 
ATOM     21  O   UNL     1       3.235   3.390  18.664  0.00  0.00    +0.000 OA
BRANCH  20  22
ATOM     22  C   UNL     1       3.141   5.711  18.898  0.00  0.00    +0.000 A 
ATOM     23  C   UNL     1       2.939   6.636  17.889  0.00  0.00    +0.000 A 
ATOM     24  C   UNL     1       2.242   7.728  18.455  0.00  0.00    +0.000 A 
ATOM     25  C   UNL     1       1.781   8.968  17.980  0.00  0.00    +0.000 A 
ATOM     26  C   UNL     1       1.145   9.836  18.876  0.00  0.00    +0.000 A 
ATOM     27  C   UNL     1       0.959   9.466  20.211  0.00  0.00    +0.000 A 
ATOM     28 BR   UNL     1       0.119  10.688  21.389  0.00  0.00    +0.000 Br
ATOM     29  C   UNL     1       1.388   8.227  20.703  0.00  0.00    +0.000 A 
ATOM     30  C   UNL     1       2.033   7.394  19.788  0.00  0.00    +0.000 A 
ATOM     31  O   UNL     1       2.560   6.160  20.055  0.00  0.00    +0.000 OA
ENDBRANCH  20  22
ENDBRANCH  19  20
ENDBRANCH  18  19
ENDBRANCH   4  18
TORSDOF 6
ENDMDL
MODEL 3
REMARK VINA RESULT:      -8.1      1.109      1.710
REMARK  Name = 
REMARK  6 active torsions:
REMARK  status: ('A' for Active; 'I' for Inactive)
REMARK    1  A    between atoms: C_2  and  C_11
REMARK    2  A    between atoms: N_3  and  C_4
REMARK    3  A    between atoms: C_14  and  S_15
REMARK    4  A    between atoms: S_15  and  C_16
REMARK    5  A    between atoms: C_16  and  C_17
REMARK    6  A    between atoms: C_17  and  C_19
REMARK                            x       y       z     vdW  Elec       q    Type
REMARK                         _______ _______ _______ _____ _____    ______ ____
ROOT
ATOM      1  C   UNL     1       8.083   8.500  18.139  0.00  0.00    +0.000 A 
ATOM      2  C   UNL     1       8.457   7.481  19.013  0.00  0.00    +0.000 A 
ATOM      3  C   UNL     1       7.976   6.189  18.788  0.00  0.00    +0.000 A 
ATOM      4  C   UNL     1       7.152   5.953  17.689  0.00  0.00    +0.000 A 
ATOM      5  N   UNL     1       6.779   6.930  16.835  0.00  0.00    +0.000 NA
ATOM      6  C   UNL     1       7.235   8.182  17.087  0.00  0.00    +0.000 A 
ENDROOT
BRANCH   1   8
ATOM      7  O   UNL     1       8.016  10.736  17.540  0.00  0.00    +0.000 OA
ATOM      8  C   UNL     1       8.514   9.905  18.289  0.00  0.00    +0.000 C 
ATOM      9  N   UNL     1       9.509  10.123  19.227  0.00  0.00    +0.000 N 
ATOM     10  H   UNL     1       9.950   9.309  19.642  0.00  0.00    +0.000 HD
BRANCH   9  11
ATOM     11  C   UNL     1      10.132  11.365  19.493  0.00  0.00    +0.000 A 
ATOM     12  C   UNL     1      11.494  11.604  19.277  0.00  0.00    +0.000 A 
ATOM     13  C   UNL     1      12.063  12.835  19.620  0.00  0.00    +0.000 A 
ATOM     14  C   UNL     1      11.267  13.828  20.172  0.00  0.00    +0.000 A 
ATOM     15  F   UNL     1      11.818  14.996  20.525  0.00  0.00    +0.000 F 
ATOM     16  C   UNL     1       9.907  13.622  20.365  0.00  0.00    +0.000 A 
ATOM     17  C   UNL     1       9.337  12.394  20.016  0.00  0.00    +0.000 A 
ENDBRANCH   9  11
ENDBRANCH   1   8
BRANCH   4  18
ATOM     18  S   UNL     1       6.498   4.323  17.395  0.00  0.00    +0.000 S 
BRANCH  18  19
ATOM     19  C   UNL     1       4.718   4.728  17.227  0.00  0.00    +0.000 C 
BRANCH  19  20
ATOM     20  C   UNL     1       4.088   5.045  18.576  0.00  0.00    +0.000 C 
ATOM     21  O   UNL     1       4.297   4.342  19.569  0.00  0.00    +0.000 OA
BRANCH  20  22
ATOM     22  C   UNL     1       3.285   6.252  18.684  0.00  0.00    +0.000 A 
ATOM     23  C   UNL     1       3.075   7.239  17.738  0.00  0.00    +0.000 A 
ATOM     24  C   UNL     1       2.268   8.231  18.340  0.00  0.00    +0.000 A 
ATOM     25  C   UNL     1       1.747   9.472  17.932  0.00  0.00    +0.000 A 
ATOM     26  C   UNL     1       0.997  10.218  18.849  0.00  0.00    +0.000 A 
ATOM     27  C   UNL     1       0.760   9.730  20.137  0.00  0.00    +0.000 A 
ATOM     28 BR   UNL     1      -0.235  10.792  21.349  0.00  0.00    +0.000 Br
ATOM     29  C   UNL     1       1.249   8.487  20.560  0.00  0.00    +0.000 A 
ATOM     30  C   UNL     1       2.006   7.777  19.627  0.00  0.00    +0.000 A 
ATOM     31  O   UNL     1       2.606   6.564  19.832  0.00  0.00    +0.000 OA
ENDBRANCH  20  22
ENDBRANCH  19  20
ENDBRANCH  18  19
ENDBRANCH   4  18
TORSDOF 6
ENDMDL
MODEL 4
REMARK VINA RESULT:      -8.0      1.553      1.688
REMARK  Name = 
REMARK  6 active torsions:
REMARK  status: ('A' for Active; 'I' for Inactive)
REMARK    1  A    between atoms: C_2  and  C_11
REMARK    2  A    between atoms: N_3  and  C_4
REMARK    3  A    between atoms: C_14  and  S_15
REMARK    4  A    between atoms: S_15  and  C_16
REMARK    5  A    between atoms: C_16  and  C_17
REMARK    6  A    between atoms: C_17  and  C_19
REMARK                            x       y       z     vdW  Elec       q    Type
REMARK                         _______ _______ _______ _____ _____    ______ ____
ROOT
ATOM      1  C   UNL     1       8.244   8.313  18.353  0.00  0.00    +0.000 A 
ATOM      2  C   UNL     1       8.426   7.141  19.083  0.00  0.00    +0.000 A 
ATOM      3  C   UNL     1       7.766   5.980  18.670  0.00  0.00    +0.000 A 
ATOM      4  C   UNL     1       6.961   6.025  17.534  0.00  0.00    +0.000 A 
ATOM      5  N   UNL     1       6.773   7.155  16.818  0.00  0.00    +0.000 NA
ATOM      6  C   UNL     1       7.401   8.275  17.251  0.00  0.00    +0.000 A 
ENDROOT
BRANCH   1   8
ATOM      7  O   UNL     1       9.215   9.767  19.872  0.00  0.00    +0.000 OA
ATOM      8  C   UNL     1       8.875   9.602  18.707  0.00  0.00    +0.000 C 
ATOM      9  N   UNL     1       8.945  10.530  17.682  0.00  0.00    +0.000 N 
ATOM     10  H   UNL     1       8.457  10.314  16.819  0.00  0.00    +0.000 HD
BRANCH   9  11
ATOM     11  C   UNL     1       9.434  11.852  17.800  0.00  0.00    +0.000 A 
ATOM     12  C   UNL     1       8.607  12.965  17.991  0.00  0.00    +0.000 A 
ATOM     13  C   UNL     1       9.148  14.254  18.036  0.00  0.00    +0.000 A 
ATOM     14  C   UNL     1      10.516  14.428  17.897  0.00  0.00    +0.000 A 
ATOM     15  F   UNL     1      11.030  15.663  17.913  0.00  0.00    +0.000 F 
ATOM     16  C   UNL     1      11.359  13.334  17.739  0.00  0.00    +0.000 A 
ATOM     17  C   UNL     1      10.819  12.046  17.701  0.00  0.00    +0.000 A 
ENDBRANCH   9  11
ENDBRANCH   1   8
BRANCH   4  18
ATOM     18  S   UNL     1       6.083   4.570  17.002  0.00  0.00    +0.000 S 
BRANCH  18  19
ATOM     19  C   UNL     1       4.984   4.325  18.449  0.00  0.00    +0.000 C 
BRANCH  19  20
ATOM     20  C   UNL     1       3.533   4.630  18.105  0.00  0.00    +0.000 C 
ATOM     21  O   UNL     1       2.849   3.851  17.434  0.00  0.00    +0.000 OA
BRANCH  20  22
ATOM     22  C   UNL     1       2.944   5.840  18.653  0.00  0.00    +0.000 A 
ATOM     23  C   UNL     1       2.438   6.058  19.923  0.00  0.00    +0.000 A 
ATOM     24  C   UNL     1       1.925   7.375  19.949  0.00  0.00    +0.000 A 
ATOM     25  C   UNL     1       1.266   8.167  20.905  0.00  0.00    +0.000 A 
ATOM     26  C   UNL     1       0.860   9.458  20.543  0.00  0.00    +0.000 A 
ATOM     27  C   UNL     1       1.122   9.950  19.262  0.00  0.00    +0.000 A 
ATOM     28 BR   UNL     1       0.526  11.691  18.812  0.00  0.00    +0.000 Br
ATOM     29  C   UNL     1       1.798   9.190  18.299  0.00  0.00    +0.000 A 
ATOM     30  C   UNL     1       2.173   7.903  18.687  0.00  0.00    +0.000 A 
ATOM     31  O   UNL     1       2.810   6.979  17.905  0.00  0.00    +0.000 OA
ENDBRANCH  20  22
ENDBRANCH  19  20
ENDBRANCH  18  19
ENDBRANCH   4  18
TORSDOF 6
ENDMDL
MODEL 5
REMARK VINA RESULT:      -7.9      1.847      2.332
REMARK  Name = 
REMARK  6 active torsions:
REMARK  status: ('A' for Active; 'I' for Inactive)
REMARK    1  A    between atoms: C_2  and  C_11
REMARK    2  A    between atoms: N_3  and  C_4
REMARK    3  A    between atoms: C_14  and  S_15
REMARK    4  A    between atoms: S_15  and  C_16
REMARK    5  A    between atoms: C_16  and  C_17
REMARK    6  A    between atoms: C_17  and  C_19
REMARK                            x       y       z     vdW  Elec       q    Type
REMARK                         _______ _______ _______ _____ _____    ______ ____
ROOT
ATOM      1  C   UNL     1       8.251   8.594  18.343  0.00  0.00    +0.000 A 
ATOM      2  C   UNL     1       7.363   8.430  17.281  0.00  0.00    +0.000 A 
ATOM      3  C   UNL     1       6.829   7.162  17.040  0.00  0.00    +0.000 A 
ATOM      4  C   UNL     1       7.185   6.105  17.875  0.00  0.00    +0.000 A 
ATOM      5  N   UNL     1       8.046   6.248  18.905  0.00  0.00    +0.000 NA
ATOM      6  C   UNL     1       8.574   7.480  19.105  0.00  0.00    +0.000 A 
ENDROOT
BRANCH   1   8
ATOM      7  O   UNL     1       9.343  10.013  19.812  0.00  0.00    +0.000 OA
ATOM      8  C   UNL     1       8.893   9.882  18.680  0.00  0.00    +0.000 C 
ATOM      9  N   UNL     1       8.847  10.845  17.687  0.00  0.00    +0.000 N 
ATOM     10  H   UNL     1       8.281  10.649  16.869  0.00  0.00    +0.000 HD
BRANCH   9  11
ATOM     11  C   UNL     1       9.324  12.172  17.804  0.00  0.00    +0.000 A 
ATOM     12  C   UNL     1       8.509  13.255  18.152  0.00  0.00    +0.000 A 
ATOM     13  C   UNL     1       9.028  14.554  18.188  0.00  0.00    +0.000 A 
ATOM     14  C   UNL     1      10.364  14.765  17.884  0.00  0.00    +0.000 A 
ATOM     15  F   UNL     1      10.854  16.011  17.893  0.00  0.00    +0.000 F 
ATOM     16  C   UNL     1      11.199  13.700  17.568  0.00  0.00    +0.000 A 
ATOM     17  C   UNL     1      10.681  12.402  17.538  0.00  0.00    +0.000 A 
ENDBRANCH   9  11
ENDBRANCH   1   8
BRANCH   4  18
ATOM     18  S   UNL     1       6.544   4.471  17.571  0.00  0.00    +0.000 S 
BRANCH  18  19
ATOM     19  C   UNL     1       4.781   4.881  17.274  0.00  0.00    +0.000 C 
BRANCH  19  20
ATOM     20  C   UNL     1       4.036   5.120  18.580  0.00  0.00    +0.000 C 
ATOM     21  O   UNL     1       4.153   4.355  19.541  0.00  0.00    +0.000 OA
BRANCH  20  22
ATOM     22  C   UNL     1       3.231   6.325  18.692  0.00  0.00    +0.000 A 
ATOM     23  C   UNL     1       3.002   7.304  17.741  0.00  0.00    +0.000 A 
ATOM     24  C   UNL     1       2.203   8.299  18.349  0.00  0.00    +0.000 A 
ATOM     25  C   UNL     1       1.671   9.534  17.940  0.00  0.00    +0.000 A 
ATOM     26  C   UNL     1       0.935  10.287  18.864  0.00  0.00    +0.000 A 
ATOM     27  C   UNL     1       0.724   9.809  20.160  0.00  0.00    +0.000 A 
ATOM     28 BR   UNL     1      -0.253  10.879  21.381  0.00  0.00    +0.000 Br
ATOM     29  C   UNL     1       1.224   8.571  20.584  0.00  0.00    +0.000 A 
ATOM     30  C   UNL     1       1.965   7.855  19.644  0.00  0.00    +0.000 A 
ATOM     31  O   UNL     1       2.572   6.646  19.849  0.00  0.00    +0.000 OA
ENDBRANCH  20  22
ENDBRANCH  19  20
ENDBRANCH  18  19
ENDBRANCH   4  18
TORSDOF 6
ENDMDL
MODEL 6
REMARK VINA RESULT:      -7.7      3.925      7.891
REMARK  Name = 
REMARK  6 active torsions:
REMARK  status: ('A' for Active; 'I' for Inactive)
REMARK    1  A    between atoms: C_2  and  C_11
REMARK    2  A    between atoms: N_3  and  C_4
REMARK    3  A    between atoms: C_14  and  S_15
REMARK    4  A    between atoms: S_15  and  C_16
REMARK    5  A    between atoms: C_16  and  C_17
REMARK    6  A    between atoms: C_17  and  C_19
REMARK                            x       y       z     vdW  Elec       q    Type
REMARK                         _______ _______ _______ _____ _____    ______ ____
ROOT
ATOM      1  C   UNL     1       2.893   6.512  19.332  0.00  0.00    +0.000 A 
ATOM      2  C   UNL     1       3.158   7.023  18.063  0.00  0.00    +0.000 A 
ATOM      3  C   UNL     1       4.182   6.447  17.306  0.00  0.00    +0.000 A 
ATOM      4  C   UNL     1       4.895   5.372  17.833  0.00  0.00    +0.000 A 
ATOM      5  N   UNL     1       4.650   4.869  19.062  0.00  0.00    +0.000 NA
ATOM      6  C   UNL     1       3.672   5.459  19.790  0.00  0.00    +0.000 A 
ENDROOT
BRANCH   1   8
ATOM      7  O   UNL     1       1.084   6.255  20.755  0.00  0.00    +0.000 OA
ATOM      8  C   UNL     1       1.849   7.053  20.228  0.00  0.00    +0.000 C 
ATOM      9  N   UNL     1       1.801   8.434  20.317  0.00  0.00    +0.000 N 
ATOM     10  H   UNL     1       2.384   8.966  19.680  0.00  0.00    +0.000 HD
BRANCH   9  11
ATOM     11  C   UNL     1       0.846   9.179  21.048  0.00  0.00    +0.000 A 
ATOM     12  C   UNL     1      -0.007  10.122  20.461  0.00  0.00    +0.000 A 
ATOM     13  C   UNL     1      -0.886  10.872  21.250  0.00  0.00    +0.000 A 
ATOM     14  C   UNL     1      -0.916  10.673  22.621  0.00  0.00    +0.000 A 
ATOM     15  F   UNL     1      -1.738  11.410  23.378  0.00  0.00    +0.000 F 
ATOM     16  C   UNL     1      -0.101   9.719  23.220  0.00  0.00    +0.000 A 
ATOM     17  C   UNL     1       0.773   8.965  22.431  0.00  0.00    +0.000 A 
ENDBRANCH   9  11
ENDBRANCH   1   8
BRANCH   4  18
ATOM     18  S   UNL     1       6.225   4.639  16.903  0.00  0.00    +0.000 S 
BRANCH  18  19
ATOM     19  C   UNL     1       7.326   6.096  16.738  0.00  0.00    +0.000 C 
BRANCH  19  20
ATOM     20  C   UNL     1       7.776   6.612  18.097  0.00  0.00    +0.000 C 
ATOM     21  O   UNL     1       7.936   5.853  19.057  0.00  0.00    +0.000 OA
BRANCH  20  22
ATOM     22  C   UNL     1       8.085   8.027  18.218  0.00  0.00    +0.000 A 
ATOM     23  C   UNL     1       7.612   9.084  17.460  0.00  0.00    +0.000 A 
ATOM     24  C   UNL     1       8.252  10.255  17.928  0.00  0.00    +0.000 A 
ATOM     25  C   UNL     1       8.234  11.612  17.564  0.00  0.00    +0.000 A 
ATOM     26  C   UNL     1       9.061  12.504  18.257  0.00  0.00    +0.000 A 
ATOM     27  C   UNL     1       9.875  12.053  19.299  0.00  0.00    +0.000 A 
ATOM     28 BR   UNL     1      10.998  13.296  20.185  0.00  0.00    +0.000 Br
ATOM     29  C   UNL     1       9.895  10.710  19.696  0.00  0.00    +0.000 A 
ATOM     30  C   UNL     1       9.071   9.846  18.974  0.00  0.00    +0.000 A 
ATOM     31  O   UNL     1       8.956   8.496  19.166  0.00  0.00    +0.000 OA
ENDBRANCH  20  22
ENDBRANCH  19  20
ENDBRANCH  18  19
ENDBRANCH   4  18
TORSDOF 6
ENDMDL
MODEL 7
REMARK VINA RESULT:      -7.7      1.063      1.674
REMARK  Name = 
REMARK  6 active torsions:
REMARK  status: ('A' for Active; 'I' for Inactive)
REMARK    1  A    between atoms: C_2  and  C_11
REMARK    2  A    between atoms: N_3  and  C_4
REMARK    3  A    between atoms: C_14  and  S_15
REMARK    4  A    between atoms: S_15  and  C_16
REMARK    5  A    between atoms: C_16  and  C_17
REMARK    6  A    between atoms: C_17  and  C_19
REMARK                            x       y       z     vdW  Elec       q    Type
REMARK                         _______ _______ _______ _____ _____    ______ ____
ROOT
ATOM      1  C   UNL     1       7.574   7.583  18.015  0.00  0.00    +0.000 A 
ATOM      2  C   UNL     1       7.950   6.538  18.857  0.00  0.00    +0.000 A 
ATOM      3  C   UNL     1       7.273   5.320  18.763  0.00  0.00    +0.000 A 
ATOM      4  C   UNL     1       6.255   5.180  17.821  0.00  0.00    +0.000 A 
ATOM      5  N   UNL     1       5.878   6.184  17.001  0.00  0.00    +0.000 NA
ATOM      6  C   UNL     1       6.530   7.366  17.127  0.00  0.00    +0.000 A 
ENDROOT
BRANCH   1   8
ATOM      7  O   UNL     1       8.248   9.546  16.988  0.00  0.00    +0.000 OA
ATOM      8  C   UNL     1       8.206   8.919  18.039  0.00  0.00    +0.000 C 
ATOM      9  N   UNL     1       8.758   9.292  19.252  0.00  0.00    +0.000 N 
ATOM     10  H   UNL     1       8.804   8.591  19.983  0.00  0.00    +0.000 HD
BRANCH   9  11
ATOM     11  C   UNL     1       9.478  10.485  19.497  0.00  0.00    +0.000 A 
ATOM     12  C   UNL     1      10.258  11.127  18.527  0.00  0.00    +0.000 A 
ATOM     13  C   UNL     1      10.997  12.269  18.850  0.00  0.00    +0.000 A 
ATOM     14  C   UNL     1      10.949  12.773  20.141  0.00  0.00    +0.000 A 
ATOM     15  F   UNL     1      11.678  13.851  20.457  0.00  0.00    +0.000 F 
ATOM     16  C   UNL     1      10.156  12.171  21.110  0.00  0.00    +0.000 A 
ATOM     17  C   UNL     1       9.413  11.033  20.785  0.00  0.00    +0.000 A 
ENDBRANCH   9  11
ENDBRANCH   1   8
BRANCH   4  18
ATOM     18  S   UNL     1       5.353   3.649  17.701  0.00  0.00    +0.000 S 
BRANCH  18  19
ATOM     19  C   UNL     1       4.625   3.585  19.383  0.00  0.00    +0.000 C 
BRANCH  19  20
ATOM     20  C   UNL     1       3.126   3.846  19.352  0.00  0.00    +0.000 C 
ATOM     21  O   UNL     1       2.307   2.932  19.487  0.00  0.00    +0.000 OA
BRANCH  20  22
ATOM     22  C   UNL     1       2.678   5.223  19.230  0.00  0.00    +0.000 A 
ATOM     23  C   UNL     1       2.739   6.059  18.129  0.00  0.00    +0.000 A 
ATOM     24  C   UNL     1       2.232   7.317  18.529  0.00  0.00    +0.000 A 
ATOM     25  C   UNL     1       2.063   8.565  17.906  0.00  0.00    +0.000 A 
ATOM     26  C   UNL     1       1.547   9.627  18.659  0.00  0.00    +0.000 A 
ATOM     27  C   UNL     1       1.193   9.441  19.998  0.00  0.00    +0.000 A 
ATOM     28 BR   UNL     1       0.527  10.917  20.981  0.00  0.00    +0.000 Br
ATOM     29  C   UNL     1       1.330   8.201  20.635  0.00  0.00    +0.000 A 
ATOM     30  C   UNL     1       1.863   7.170  19.861  0.00  0.00    +0.000 A 
ATOM     31  O   UNL     1       2.114   5.893  20.284  0.00  0.00    +0.000 OA
ENDBRANCH  20  22
ENDBRANCH  19  20
ENDBRANCH  18  19
ENDBRANCH   4  18
TORSDOF 6
ENDMDL
MODEL 8
REMARK VINA RESULT:      -7.6      1.701      2.119
REMARK  Name = 
REMARK  6 active torsions:
REMARK  status: ('A' for Active; 'I' for Inactive)
REMARK    1  A    between atoms: C_2  and  C_11
REMARK    2  A    between atoms: N_3  and  C_4
REMARK    3  A    between atoms: C_14  and  S_15
REMARK    4  A    between atoms: S_15  and  C_16
REMARK    5  A    between atoms: C_16  and  C_17
REMARK    6  A    between atoms: C_17  and  C_19
REMARK                            x       y       z     vdW  Elec       q    Type
REMARK                         _______ _______ _______ _____ _____    ______ ____
ROOT
ATOM      1  C   UNL     1       8.313   8.746  18.377  0.00  0.00    +0.000 A 
ATOM      2  C   UNL     1       7.385   8.630  17.343  0.00  0.00    +0.000 A 
ATOM      3  C   UNL     1       6.803   7.384  17.098  0.00  0.00    +0.000 A 
ATOM      4  C   UNL     1       7.152   6.301  17.902  0.00  0.00    +0.000 A 
ATOM      5  N   UNL     1       8.051   6.398  18.905  0.00  0.00    +0.000 NA
ATOM      6  C   UNL     1       8.625   7.609  19.108  0.00  0.00    +0.000 A 
ENDROOT
BRANCH   1   8
ATOM      7  O   UNL     1       9.393  10.152  19.867  0.00  0.00    +0.000 OA
ATOM      8  C   UNL     1       9.007  10.007  18.714  0.00  0.00    +0.000 C 
ATOM      9  N   UNL     1       9.079  10.936  17.690  0.00  0.00    +0.000 N 
ATOM     10  H   UNL     1       8.554  10.744  16.844  0.00  0.00    +0.000 HD
BRANCH   9  11
ATOM     11  C   UNL     1       9.625  12.237  17.796  0.00  0.00    +0.000 A 
ATOM     12  C   UNL     1      10.987  12.516  17.633  0.00  0.00    +0.000 A 
ATOM     13  C   UNL     1      11.474  13.815  17.814  0.00  0.00    +0.000 A 
ATOM     14  C   UNL     1      10.596  14.834  18.150  0.00  0.00    +0.000 A 
ATOM     15  F   UNL     1      11.065  16.072  18.350  0.00  0.00    +0.000 F 
ATOM     16  C   UNL     1       9.235  14.586  18.285  0.00  0.00    +0.000 A 
ATOM     17  C   UNL     1       8.749  13.288  18.097  0.00  0.00    +0.000 A 
ENDBRANCH   9  11
ENDBRANCH   1   8
BRANCH   4  18
ATOM     18  S   UNL     1       6.449   4.694  17.593  0.00  0.00    +0.000 S 
BRANCH  18  19
ATOM     19  C   UNL     1       4.888   5.193  16.770  0.00  0.00    +0.000 C 
BRANCH  19  20
ATOM     20  C   UNL     1       3.681   4.940  17.663  0.00  0.00    +0.000 C 
ATOM     21  O   UNL     1       3.271   3.797  17.887  0.00  0.00    +0.000 OA
BRANCH  20  22
ATOM     22  C   UNL     1       3.062   6.084  18.310  0.00  0.00    +0.000 A 
ATOM     23  C   UNL     1       2.638   6.212  19.621  0.00  0.00    +0.000 A 
ATOM     24  C   UNL     1       2.050   7.492  19.748  0.00  0.00    +0.000 A 
ATOM     25  C   UNL     1       1.415   8.196  20.785  0.00  0.00    +0.000 A 
ATOM     26  C   UNL     1       0.907   9.473  20.516  0.00  0.00    +0.000 A 
ATOM     27  C   UNL     1       1.044  10.038  19.246  0.00  0.00    +0.000 A 
ATOM     28 BR   UNL     1       0.312  11.756  18.926  0.00  0.00    +0.000 Br
ATOM     29  C   UNL     1       1.692   9.366  18.202  0.00  0.00    +0.000 A 
ATOM     30  C   UNL     1       2.172   8.090  18.499  0.00  0.00    +0.000 A 
ATOM     31  O   UNL     1       2.805   7.245  17.629  0.00  0.00    +0.000 OA
ENDBRANCH  20  22
ENDBRANCH  19  20
ENDBRANCH  18  19
ENDBRANCH   4  18
TORSDOF 6
ENDMDL
MODEL 9
REMARK VINA RESULT:      -7.5      6.577      9.942
REMARK  Name = 
REMARK  6 active torsions:
REMARK  status: ('A' for Active; 'I' for Inactive)
REMARK    1  A    between atoms: C_2  and  C_11
REMARK    2  A    between atoms: N_3  and  C_4
REMARK    3  A    between atoms: C_14  and  S_15
REMARK    4  A    between atoms: S_15  and  C_16
REMARK    5  A    between atoms: C_16  and  C_17
REMARK    6  A    between atoms: C_17  and  C_19
REMARK                            x       y       z     vdW  Elec       q    Type
REMARK                         _______ _______ _______ _____ _____    ______ ____
ROOT
ATOM      1  C   UNL     1       0.425  10.612  20.732  0.00  0.00    +0.000 A 
ATOM      2  C   UNL     1       0.432  11.943  20.321  0.00  0.00    +0.000 A 
ATOM      3  C   UNL     1      -0.093  12.915  21.177  0.00  0.00    +0.000 A 
ATOM      4  C   UNL     1      -0.591  12.528  22.420  0.00  0.00    +0.000 A 
ATOM      5  N   UNL     1      -0.607  11.242  22.830  0.00  0.00    +0.000 NA
ATOM      6  C   UNL     1      -0.118  10.312  21.974  0.00  0.00    +0.000 A 
ENDROOT
BRANCH   1   8
ATOM      7  O   UNL     1       0.790   9.582  18.691  0.00  0.00    +0.000 OA
ATOM      8  C   UNL     1       0.934   9.499  19.904  0.00  0.00    +0.000 C 
ATOM      9  N   UNL     1       1.461   8.429  20.607  0.00  0.00    +0.000 N 
ATOM     10  H   UNL     1       1.346   8.427  21.615  0.00  0.00    +0.000 HD
BRANCH   9  11
ATOM     11  C   UNL     1       1.937   7.225  20.038  0.00  0.00    +0.000 A 
ATOM     12  C   UNL     1       2.641   7.170  18.829  0.00  0.00    +0.000 A 
ATOM     13  C   UNL     1       3.029   5.940  18.287  0.00  0.00    +0.000 A 
ATOM     14  C   UNL     1       2.720   4.767  18.960  0.00  0.00    +0.000 A 
ATOM     15  F   UNL     1       3.068   3.589  18.428  0.00  0.00    +0.000 F 
ATOM     16  C   UNL     1       2.051   4.801  20.178  0.00  0.00    +0.000 A 
ATOM     17  C   UNL     1       1.669   6.031  20.722  0.00  0.00    +0.000 A 
ENDBRANCH   9  11
ENDBRANCH   1   8
BRANCH   4  18
ATOM     18  S   UNL     1      -1.294  13.741  23.518  0.00  0.00    +0.000 S 
BRANCH  18  19
ATOM     19  C   UNL     1      -2.778  14.214  22.549  0.00  0.00    +0.000 C 
BRANCH  19  20
ATOM     20  C   UNL     1      -3.675  13.014  22.283  0.00  0.00    +0.000 C 
ATOM     21  O   UNL     1      -4.206  12.385  23.203  0.00  0.00    +0.000 OA
BRANCH  20  22
ATOM     22  C   UNL     1      -3.953  12.667  20.899  0.00  0.00    +0.000 A 
ATOM     23  C   UNL     1      -5.153  12.738  20.213  0.00  0.00    +0.000 A 
ATOM     24  C   UNL     1      -4.923  12.235  18.912  0.00  0.00    +0.000 A 
ATOM     25  C   UNL     1      -5.720  12.012  17.776  0.00  0.00    +0.000 A 
ATOM     26  C   UNL     1      -5.129  11.442  16.642  0.00  0.00    +0.000 A 
ATOM     27  C   UNL     1      -3.770  11.118  16.639  0.00  0.00    +0.000 A 
ATOM     28 BR   UNL     1      -3.024  10.321  15.090  0.00  0.00    +0.000 Br
ATOM     29  C   UNL     1      -2.949  11.351  17.750  0.00  0.00    +0.000 A 
ATOM     30  C   UNL     1      -3.574  11.904  18.868  0.00  0.00    +0.000 A 
ATOM     31  O   UNL     1      -2.978  12.184  20.067  0.00  0.00    +0.000 OA
ENDBRANCH  20  22
ENDBRANCH  19  20
ENDBRANCH  18  19
ENDBRANCH   4  18
TORSDOF 6
ENDMDL
