MODEL 1
REMARK VINA RESULT:      -8.5      0.000      0.000
REMARK  Name = 
REMARK  11 active torsions:
REMARK  status: ('A' for Active; 'I' for Inactive)
REMARK    1  A    between atoms: C_1  and  C_2
REMARK    2  A    between atoms: C_2  and  C_3
REMARK    3  A    between atoms: C_2  and  C_4
REMARK    4  A    between atoms: C_6  and  C_7
REMARK    5  A    between atoms: C_7  and  C_8
REMARK    6  A    between atoms: C_7  and  C_9
REMARK    7  A    between atoms: C_7  and  C_10
REMARK    8  A    between atoms: C_12  and  C_13
REMARK    9  A    between atoms: C_17  and  C_18
REMARK   10  A    between atoms: C_23  and  C_24
REMARK   11  A    between atoms: C_24  and  O_25
REMARK                            x       y       z     vdW  Elec       q    Type
REMARK                         _______ _______ _______ _____ _____    ______ ____
ROOT
ATOM      1  C   UNL     1       3.740   3.836  18.827  0.00  0.00    +0.000 A 
ATOM      2  C   UNL     1       4.981   4.098  18.202  0.00  0.00    +0.000 A 
ATOM      3  C   UNL     1       5.355   5.362  17.741  0.00  0.00    +0.000 A 
ATOM      4  C   UNL     1       4.407   6.378  17.891  0.00  0.00    +0.000 A 
ATOM      5  C   UNL     1       3.162   6.219  18.566  0.00  0.00    +0.000 A 
ATOM      6  C   UNL     1       2.819   4.909  19.039  0.00  0.00    +0.000 A 
ENDROOT
BRANCH   5   7
ATOM      7  C   UNL     1       2.359   7.475  18.774  0.00  0.00    +0.000 A 
ATOM      8  C   UNL     1       2.079   8.408  17.767  0.00  0.00    +0.000 A 
ATOM      9  C   UNL     1       1.284   9.540  18.001  0.00  0.00    +0.000 A 
ATOM     10  C   UNL     1       0.814   9.820  19.280  0.00  0.00    +0.000 A 
ATOM     11  C   UNL     1       1.125   8.962  20.335  0.00  0.00    +0.000 A 
ATOM     12  C   UNL     1       1.860   7.791  20.062  0.00  0.00    +0.000 A 
BRANCH  11  13
ATOM     13  C   UNL     1       0.713   9.276  21.750  0.00  0.00    +0.000 C 
ATOM     14  F   UNL     1       0.380  10.581  21.950  0.00  0.00    +0.000 F 
ATOM     15  F   UNL     1      -0.364   8.549  22.158  0.00  0.00    +0.000 F 
ATOM     16  F   UNL     1       1.703   9.005  22.649  0.00  0.00    +0.000 F 
ENDBRANCH  11  13
ENDBRANCH   5   7
BRANCH   3  17
ATOM     17  C   UNL     1       6.758   5.601  17.158  0.00  0.00    +0.000 C 
ATOM     18  C   UNL     1       6.753   5.365  15.633  0.00  0.00    +0.000 C 
ATOM     19  C   UNL     1       7.302   7.026  17.404  0.00  0.00    +0.000 C 
ATOM     20  C   UNL     1       7.761   4.622  17.813  0.00  0.00    +0.000 C 
ENDBRANCH   3  17
BRANCH   1  22
ATOM     21  C   UNL     1       3.580   1.388  18.134  0.00  0.00    +0.000 C 
ATOM     22  C   UNL     1       3.511   2.395  19.289  0.00  0.00    +0.000 C 
ATOM     23  C   UNL     1       4.496   2.022  20.406  0.00  0.00    +0.000 C 
ENDBRANCH   1  22
BRANCH   6  24
ATOM     24  C   UNL     1       1.496   4.651  19.740  0.00  0.00    +0.000 C 
BRANCH  24  25
ATOM     25  O   UNL     1       1.639   4.448  21.135  0.00  0.00    +0.000 OA
ATOM     26  H   UNL     1       1.863   3.507  21.258  0.00  0.00    +0.000 HD
ENDBRANCH  24  25
ENDBRANCH   6  24
TORSDOF 6
ENDMDL
MODEL 2
REMARK VINA RESULT:      -8.4      0.041      1.147
REMARK  Name = 
REMARK  11 active torsions:
REMARK  status: ('A' for Active; 'I' for Inactive)
REMARK    1  A    between atoms: C_1  and  C_2
REMARK    2  A    between atoms: C_2  and  C_3
REMARK    3  A    between atoms: C_2  and  C_4
REMARK    4  A    between atoms: C_6  and  C_7
REMARK    5  A    between atoms: C_7  and  C_8
REMARK    6  A    between atoms: C_7  and  C_9
REMARK    7  A    between atoms: C_7  and  C_10
REMARK    8  A    between atoms: C_12  and  C_13
REMARK    9  A    between atoms: C_17  and  C_18
REMARK   10  A    between atoms: C_23  and  C_24
REMARK   11  A    between atoms: C_24  and  O_25
REMARK                            x       y       z     vdW  Elec       q    Type
REMARK                         _______ _______ _______ _____ _____    ______ ____
ROOT
ATOM      1  C   UNL     1       3.741   3.825  18.853  0.00  0.00    +0.000 A 
ATOM      2  C   UNL     1       4.976   4.081  18.213  0.00  0.00    +0.000 A 
ATOM      3  C   UNL     1       5.346   5.340  17.738  0.00  0.00    +0.000 A 
ATOM      4  C   UNL     1       4.400   6.358  17.888  0.00  0.00    +0.000 A 
ATOM      5  C   UNL     1       3.162   6.207  18.577  0.00  0.00    +0.000 A 
ATOM      6  C   UNL     1       2.823   4.901  19.064  0.00  0.00    +0.000 A 
ENDROOT
BRANCH   5   7
ATOM      7  C   UNL     1       2.362   7.465  18.782  0.00  0.00    +0.000 A 
ATOM      8  C   UNL     1       2.084   8.396  17.773  0.00  0.00    +0.000 A 
ATOM      9  C   UNL     1       1.292   9.530  18.004  0.00  0.00    +0.000 A 
ATOM     10  C   UNL     1       0.823   9.814  19.281  0.00  0.00    +0.000 A 
ATOM     11  C   UNL     1       1.132   8.958  20.339  0.00  0.00    +0.000 A 
ATOM     12  C   UNL     1       1.863   7.785  20.069  0.00  0.00    +0.000 A 
BRANCH  11  13
ATOM     13  C   UNL     1       0.719   9.276  21.754  0.00  0.00    +0.000 C 
ATOM     14  F   UNL     1      -0.372   8.580  22.178  0.00  0.00    +0.000 F 
ATOM     15  F   UNL     1       1.703   9.018  22.659  0.00  0.00    +0.000 F 
ATOM     16  F   UNL     1       0.403  10.593  21.916  0.00  0.00    +0.000 F 
ENDBRANCH  11  13
ENDBRANCH   5   7
BRANCH   3  17
ATOM     17  C   UNL     1       6.743   5.573  17.138  0.00  0.00    +0.000 C 
ATOM     18  C   UNL     1       7.770   4.618  17.781  0.00  0.00    +0.000 C 
ATOM     19  C   UNL     1       6.809   5.363  15.608  0.00  0.00    +0.000 C 
ATOM     20  C   UNL     1       7.182   7.033  17.406  0.00  0.00    +0.000 C 
ENDBRANCH   3  17
BRANCH   1  22
ATOM     21  C   UNL     1       3.520   1.377  18.176  0.00  0.00    +0.000 C 
ATOM     22  C   UNL     1       3.516   2.388  19.330  0.00  0.00    +0.000 C 
ATOM     23  C   UNL     1       4.546   2.007  20.403  0.00  0.00    +0.000 C 
ENDBRANCH   1  22
BRANCH   6  24
ATOM     24  C   UNL     1       1.507   4.650  19.781  0.00  0.00    +0.000 C 
BRANCH  24  25
ATOM     25  O   UNL     1       1.667   4.432  21.172  0.00  0.00    +0.000 OA
ATOM     26  H   UNL     1       0.909   3.891  21.458  0.00  0.00    +0.000 HD
ENDBRANCH  24  25
ENDBRANCH   6  24
TORSDOF 6
ENDMDL
MODEL 3
REMARK VINA RESULT:      -8.3      0.766      1.202
REMARK  Name = 
REMARK  11 active torsions:
REMARK  status: ('A' for Active; 'I' for Inactive)
REMARK    1  A    between atoms: C_1  and  C_2
REMARK    2  A    between atoms: C_2  and  C_3
REMARK    3  A    between atoms: C_2  and  C_4
REMARK    4  A    between atoms: C_6  and  C_7
REMARK    5  A    between atoms: C_7  and  C_8
REMARK    6  A    between atoms: C_7  and  C_9
REMARK    7  A    between atoms: C_7  and  C_10
REMARK    8  A    between atoms: C_12  and  C_13
REMARK    9  A    between atoms: C_17  and  C_18
REMARK   10  A    between atoms: C_23  and  C_24
REMARK   11  A    between atoms: C_24  and  O_25
REMARK                            x       y       z     vdW  Elec       q    Type
REMARK                         _______ _______ _______ _____ _____    ______ ____
ROOT
ATOM      1  C   UNL     1       3.904   3.796  19.218  0.00  0.00    +0.000 A 
ATOM      2  C   UNL     1       5.223   4.113  18.819  0.00  0.00    +0.000 A 
ATOM      3  C   UNL     1       5.624   5.396  18.445  0.00  0.00    +0.000 A 
ATOM      4  C   UNL     1       4.627   6.377  18.442  0.00  0.00    +0.000 A 
ATOM      5  C   UNL     1       3.292   6.163  18.890  0.00  0.00    +0.000 A 
ATOM      6  C   UNL     1       2.921   4.834  19.281  0.00  0.00    +0.000 A 
ENDROOT
BRANCH   5   7
ATOM      7  C   UNL     1       2.419   7.387  18.973  0.00  0.00    +0.000 A 
ATOM      8  C   UNL     1       2.164   8.247  17.897  0.00  0.00    +0.000 A 
ATOM      9  C   UNL     1       1.304   9.348  18.012  0.00  0.00    +0.000 A 
ATOM     10  C   UNL     1       0.738   9.676  19.239  0.00  0.00    +0.000 A 
ATOM     11  C   UNL     1       1.018   8.895  20.361  0.00  0.00    +0.000 A 
ATOM     12  C   UNL     1       1.822   7.749  20.205  0.00  0.00    +0.000 A 
BRANCH  11  13
ATOM     13  C   UNL     1       0.498   9.266  21.727  0.00  0.00    +0.000 C 
ATOM     14  F   UNL     1       1.418   9.129  22.722  0.00  0.00    +0.000 F 
ATOM     15  F   UNL     1       0.066  10.556  21.793  0.00  0.00    +0.000 F 
ATOM     16  F   UNL     1      -0.567   8.500  22.100  0.00  0.00    +0.000 F 
ENDBRANCH  11  13
ENDBRANCH   5   7
BRANCH   3  17
ATOM     17  C   UNL     1       7.096   5.694  18.115  0.00  0.00    +0.000 C 
ATOM     18  C   UNL     1       7.218   7.036  17.364  0.00  0.00    +0.000 C 
ATOM     19  C   UNL     1       8.012   5.773  19.358  0.00  0.00    +0.000 C 
ATOM     20  C   UNL     1       7.660   4.566  17.218  0.00  0.00    +0.000 C 
ENDBRANCH   3  17
BRANCH   1  22
ATOM     21  C   UNL     1       3.488   1.417  18.401  0.00  0.00    +0.000 C 
ATOM     22  C   UNL     1       3.652   2.340  19.616  0.00  0.00    +0.000 C 
ATOM     23  C   UNL     1       4.763   1.835  20.548  0.00  0.00    +0.000 C 
ENDBRANCH   1  22
BRANCH   6  24
ATOM     24  C   UNL     1       1.508   4.517  19.741  0.00  0.00    +0.000 C 
BRANCH  24  25
ATOM     25  O   UNL     1       0.787   3.727  18.811  0.00  0.00    +0.000 OA
ATOM     26  H   UNL     1       0.149   3.202  19.328  0.00  0.00    +0.000 HD
ENDBRANCH  24  25
ENDBRANCH   6  24
TORSDOF 6
ENDMDL
MODEL 4
REMARK VINA RESULT:      -8.0      1.655      3.827
REMARK  Name = 
REMARK  11 active torsions:
REMARK  status: ('A' for Active; 'I' for Inactive)
REMARK    1  A    between atoms: C_1  and  C_2
REMARK    2  A    between atoms: C_2  and  C_3
REMARK    3  A    between atoms: C_2  and  C_4
REMARK    4  A    between atoms: C_6  and  C_7
REMARK    5  A    between atoms: C_7  and  C_8
REMARK    6  A    between atoms: C_7  and  C_9
REMARK    7  A    between atoms: C_7  and  C_10
REMARK    8  A    between atoms: C_12  and  C_13
REMARK    9  A    between atoms: C_17  and  C_18
REMARK   10  A    between atoms: C_23  and  C_24
REMARK   11  A    between atoms: C_24  and  O_25
REMARK                            x       y       z     vdW  Elec       q    Type
REMARK                         _______ _______ _______ _____ _____    ______ ____
ROOT
ATOM      1  C   UNL     1       5.009   5.023  17.266  0.00  0.00    +0.000 A 
ATOM      2  C   UNL     1       4.406   3.870  17.820  0.00  0.00    +0.000 A 
ATOM      3  C   UNL     1       3.261   3.912  18.618  0.00  0.00    +0.000 A 
ATOM      4  C   UNL     1       2.745   5.182  18.888  0.00  0.00    +0.000 A 
ATOM      5  C   UNL     1       3.246   6.389  18.320  0.00  0.00    +0.000 A 
ATOM      6  C   UNL     1       4.415   6.304  17.493  0.00  0.00    +0.000 A 
ENDROOT
BRANCH   5   7
ATOM      7  C   UNL     1       2.445   7.632  18.597  0.00  0.00    +0.000 A 
ATOM      8  C   UNL     1       2.229   8.655  17.664  0.00  0.00    +0.000 A 
ATOM      9  C   UNL     1       1.434   9.772  17.955  0.00  0.00    +0.000 A 
ATOM     10  C   UNL     1       0.898   9.945  19.226  0.00  0.00    +0.000 A 
ATOM     11  C   UNL     1       1.143   8.993  20.216  0.00  0.00    +0.000 A 
ATOM     12  C   UNL     1       1.880   7.841  19.879  0.00  0.00    +0.000 A 
BRANCH  11  13
ATOM     13  C   UNL     1       0.658   9.186  21.630  0.00  0.00    +0.000 C 
ATOM     14  F   UNL     1      -0.434   8.435  21.945  0.00  0.00    +0.000 F 
ATOM     15  F   UNL     1       1.605   8.877  22.558  0.00  0.00    +0.000 F 
ATOM     16  F   UNL     1       0.301  10.479  21.882  0.00  0.00    +0.000 F 
ENDBRANCH  11  13
ENDBRANCH   5   7
BRANCH   3  17
ATOM     17  C   UNL     1       2.600   2.613  19.110  0.00  0.00    +0.000 C 
ATOM     18  C   UNL     1       2.619   2.551  20.652  0.00  0.00    +0.000 C 
ATOM     19  C   UNL     1       1.131   2.451  18.658  0.00  0.00    +0.000 C 
ATOM     20  C   UNL     1       3.375   1.397  18.551  0.00  0.00    +0.000 C 
ENDBRANCH   3  17
BRANCH   1  22
ATOM     21  C   UNL     1       7.501   4.488  17.227  0.00  0.00    +0.000 C 
ATOM     22  C   UNL     1       6.245   4.784  16.396  0.00  0.00    +0.000 C 
ATOM     23  C   UNL     1       5.981   3.666  15.377  0.00  0.00    +0.000 C 
ENDBRANCH   1  22
BRANCH   6  24
ATOM     24  C   UNL     1       5.031   7.549  16.876  0.00  0.00    +0.000 C 
BRANCH  24  25
ATOM     25  O   UNL     1       6.392   7.727  17.229  0.00  0.00    +0.000 OA
ATOM     26  H   UNL     1       6.745   6.841  17.430  0.00  0.00    +0.000 HD
ENDBRANCH  24  25
ENDBRANCH   6  24
TORSDOF 6
ENDMDL
MODEL 5
REMARK VINA RESULT:      -8.0      1.644      3.735
REMARK  Name = 
REMARK  11 active torsions:
REMARK  status: ('A' for Active; 'I' for Inactive)
REMARK    1  A    between atoms: C_1  and  C_2
REMARK    2  A    between atoms: C_2  and  C_3
REMARK    3  A    between atoms: C_2  and  C_4
REMARK    4  A    between atoms: C_6  and  C_7
REMARK    5  A    between atoms: C_7  and  C_8
REMARK    6  A    between atoms: C_7  and  C_9
REMARK    7  A    between atoms: C_7  and  C_10
REMARK    8  A    between atoms: C_12  and  C_13
REMARK    9  A    between atoms: C_17  and  C_18
REMARK   10  A    between atoms: C_23  and  C_24
REMARK   11  A    between atoms: C_24  and  O_25
REMARK                            x       y       z     vdW  Elec       q    Type
REMARK                         _______ _______ _______ _____ _____    ______ ____
ROOT
ATOM      1  C   UNL     1       4.983   5.006  17.311  0.00  0.00    +0.000 A 
ATOM      2  C   UNL     1       4.372   3.856  17.861  0.00  0.00    +0.000 A 
ATOM      3  C   UNL     1       3.224   3.903  18.654  0.00  0.00    +0.000 A 
ATOM      4  C   UNL     1       2.712   5.176  18.923  0.00  0.00    +0.000 A 
ATOM      5  C   UNL     1       3.222   6.380  18.358  0.00  0.00    +0.000 A 
ATOM      6  C   UNL     1       4.394   6.290  17.536  0.00  0.00    +0.000 A 
ENDROOT
BRANCH   5   7
ATOM      7  C   UNL     1       2.425   7.627  18.632  0.00  0.00    +0.000 A 
ATOM      8  C   UNL     1       2.206   8.644  17.693  0.00  0.00    +0.000 A 
ATOM      9  C   UNL     1       1.415   9.766  17.982  0.00  0.00    +0.000 A 
ATOM     10  C   UNL     1       0.888   9.948  19.256  0.00  0.00    +0.000 A 
ATOM     11  C   UNL     1       1.137   9.001  20.250  0.00  0.00    +0.000 A 
ATOM     12  C   UNL     1       1.869   7.845  19.916  0.00  0.00    +0.000 A 
BRANCH  11  13
ATOM     13  C   UNL     1       0.660   9.204  21.665  0.00  0.00    +0.000 C 
ATOM     14  F   UNL     1       0.259  10.478  21.934  0.00  0.00    +0.000 F 
ATOM     15  F   UNL     1      -0.395   8.405  21.985  0.00  0.00    +0.000 F 
ATOM     16  F   UNL     1       1.630   8.922  22.582  0.00  0.00    +0.000 F 
ENDBRANCH  11  13
ENDBRANCH   5   7
BRANCH   3  17
ATOM     17  C   UNL     1       2.554   2.607  19.143  0.00  0.00    +0.000 C 
ATOM     18  C   UNL     1       3.341   1.376  18.648  0.00  0.00    +0.000 C 
ATOM     19  C   UNL     1       2.446   2.501  20.681  0.00  0.00    +0.000 C 
ATOM     20  C   UNL     1       1.110   2.534  18.589  0.00  0.00    +0.000 C 
ENDBRANCH   3  17
BRANCH   1  22
ATOM     21  C   UNL     1       7.477   4.477  17.284  0.00  0.00    +0.000 C 
ATOM     22  C   UNL     1       6.222   4.761  16.447  0.00  0.00    +0.000 C 
ATOM     23  C   UNL     1       5.964   3.634  15.438  0.00  0.00    +0.000 C 
ENDBRANCH   1  22
BRANCH   6  24
ATOM     24  C   UNL     1       5.019   7.533  16.923  0.00  0.00    +0.000 C 
BRANCH  24  25
ATOM     25  O   UNL     1       6.340   7.771  17.377  0.00  0.00    +0.000 OA
ATOM     26  H   UNL     1       6.931   7.573  16.628  0.00  0.00    +0.000 HD
ENDBRANCH  24  25
ENDBRANCH   6  24
TORSDOF 6
ENDMDL
MODEL 6
REMARK VINA RESULT:      -7.9      0.832      1.226
REMARK  Name = 
REMARK  11 active torsions:
REMARK  status: ('A' for Active; 'I' for Inactive)
REMARK    1  A    between atoms: C_1  and  C_2
REMARK    2  A    between atoms: C_2  and  C_3
REMARK    3  A    between atoms: C_2  and  C_4
REMARK    4  A    between atoms: C_6  and  C_7
REMARK    5  A    between atoms: C_7  and  C_8
REMARK    6  A    between atoms: C_7  and  C_9
REMARK    7  A    between atoms: C_7  and  C_10
REMARK    8  A    between atoms: C_12  and  C_13
REMARK    9  A    between atoms: C_17  and  C_18
REMARK   10  A    between atoms: C_23  and  C_24
REMARK   11  A    between atoms: C_24  and  O_25
REMARK                            x       y       z     vdW  Elec       q    Type
REMARK                         _______ _______ _______ _____ _____    ______ ____
ROOT
ATOM      1  C   UNL     1       3.353   4.019  19.144  0.00  0.00    +0.000 A 
ATOM      2  C   UNL     1       4.346   4.144  18.146  0.00  0.00    +0.000 A 
ATOM      3  C   UNL     1       4.582   5.327  17.443  0.00  0.00    +0.000 A 
ATOM      4  C   UNL     1       3.742   6.402  17.748  0.00  0.00    +0.000 A 
ATOM      5  C   UNL     1       2.763   6.386  18.781  0.00  0.00    +0.000 A 
ATOM      6  C   UNL     1       2.559   5.157  19.492  0.00  0.00    +0.000 A 
ENDROOT
BRANCH   5   7
ATOM      7  C   UNL     1       2.083   7.698  19.068  0.00  0.00    +0.000 A 
ATOM      8  C   UNL     1       1.937   8.732  18.133  0.00  0.00    +0.000 A 
ATOM      9  C   UNL     1       1.253   9.918  18.435  0.00  0.00    +0.000 A 
ATOM     10  C   UNL     1       0.766  10.144  19.718  0.00  0.00    +0.000 A 
ATOM     11  C   UNL     1       0.949   9.178  20.708  0.00  0.00    +0.000 A 
ATOM     12  C   UNL     1       1.571   7.962  20.362  0.00  0.00    +0.000 A 
BRANCH  11  13
ATOM     13  C   UNL     1       0.518   9.421  22.132  0.00  0.00    +0.000 C 
ATOM     14  F   UNL     1      -0.568   8.690  22.511  0.00  0.00    +0.000 F 
ATOM     15  F   UNL     1       1.495   9.133  23.035  0.00  0.00    +0.000 F 
ATOM     16  F   UNL     1       0.181  10.724  22.355  0.00  0.00    +0.000 F 
ENDBRANCH  11  13
ENDBRANCH   5   7
BRANCH   3  17
ATOM     17  C   UNL     1       5.741   5.424  16.437  0.00  0.00    +0.000 C 
ATOM     18  C   UNL     1       5.371   6.376  15.280  0.00  0.00    +0.000 C 
ATOM     19  C   UNL     1       7.062   5.937  17.054  0.00  0.00    +0.000 C 
ATOM     20  C   UNL     1       6.037   4.021  15.855  0.00  0.00    +0.000 C 
ENDBRANCH   3  17
BRANCH   1  22
ATOM     21  C   UNL     1       2.497   1.623  18.975  0.00  0.00    +0.000 C 
ATOM     22  C   UNL     1       3.252   2.652  19.826  0.00  0.00    +0.000 C 
ATOM     23  C   UNL     1       4.647   2.136  20.210  0.00  0.00    +0.000 C 
ENDBRANCH   1  22
BRANCH   6  24
ATOM     24  C   UNL     1       1.511   5.049  20.587  0.00  0.00    +0.000 C 
BRANCH  24  25
ATOM     25  O   UNL     1       0.456   4.161  20.259  0.00  0.00    +0.000 OA
ATOM     26  H   UNL     1       0.600   3.352  20.783  0.00  0.00    +0.000 HD
ENDBRANCH  24  25
ENDBRANCH   6  24
TORSDOF 6
ENDMDL
MODEL 7
REMARK VINA RESULT:      -7.9      0.860      1.532
REMARK  Name = 
REMARK  11 active torsions:
REMARK  status: ('A' for Active; 'I' for Inactive)
REMARK    1  A    between atoms: C_1  and  C_2
REMARK    2  A    between atoms: C_2  and  C_3
REMARK    3  A    between atoms: C_2  and  C_4
REMARK    4  A    between atoms: C_6  and  C_7
REMARK    5  A    between atoms: C_7  and  C_8
REMARK    6  A    between atoms: C_7  and  C_9
REMARK    7  A    between atoms: C_7  and  C_10
REMARK    8  A    between atoms: C_12  and  C_13
REMARK    9  A    between atoms: C_17  and  C_18
REMARK   10  A    between atoms: C_23  and  C_24
REMARK   11  A    between atoms: C_24  and  O_25
REMARK                            x       y       z     vdW  Elec       q    Type
REMARK                         _______ _______ _______ _____ _____    ______ ____
ROOT
ATOM      1  C   UNL     1       3.337   4.037  19.230  0.00  0.00    +0.000 A 
ATOM      2  C   UNL     1       4.318   4.142  18.216  0.00  0.00    +0.000 A 
ATOM      3  C   UNL     1       4.546   5.312  17.490  0.00  0.00    +0.000 A 
ATOM      4  C   UNL     1       3.714   6.395  17.788  0.00  0.00    +0.000 A 
ATOM      5  C   UNL     1       2.748   6.399  18.835  0.00  0.00    +0.000 A 
ATOM      6  C   UNL     1       2.551   5.183  19.569  0.00  0.00    +0.000 A 
ENDROOT
BRANCH   5   7
ATOM      7  C   UNL     1       2.076   7.718  19.109  0.00  0.00    +0.000 A 
ATOM      8  C   UNL     1       1.950   8.749  18.168  0.00  0.00    +0.000 A 
ATOM      9  C   UNL     1       1.272   9.941  18.457  0.00  0.00    +0.000 A 
ATOM     10  C   UNL     1       0.771  10.176  19.734  0.00  0.00    +0.000 A 
ATOM     11  C   UNL     1       0.933   9.213  20.729  0.00  0.00    +0.000 A 
ATOM     12  C   UNL     1       1.550   7.991  20.395  0.00  0.00    +0.000 A 
BRANCH  11  13
ATOM     13  C   UNL     1       0.486   9.464  22.147  0.00  0.00    +0.000 C 
ATOM     14  F   UNL     1       1.446   9.211  23.080  0.00  0.00    +0.000 F 
ATOM     15  F   UNL     1       0.094  10.751  22.354  0.00  0.00    +0.000 F 
ATOM     16  F   UNL     1      -0.582   8.691  22.496  0.00  0.00    +0.000 F 
ENDBRANCH  11  13
ENDBRANCH   5   7
BRANCH   3  17
ATOM     17  C   UNL     1       5.692   5.390  16.467  0.00  0.00    +0.000 C 
ATOM     18  C   UNL     1       7.000   5.831  17.157  0.00  0.00    +0.000 C 
ATOM     19  C   UNL     1       5.978   4.053  15.746  0.00  0.00    +0.000 C 
ATOM     20  C   UNL     1       5.334   6.420  15.370  0.00  0.00    +0.000 C 
ENDBRANCH   3  17
BRANCH   1  22
ATOM     21  C   UNL     1       2.361   1.682  19.179  0.00  0.00    +0.000 C 
ATOM     22  C   UNL     1       3.244   2.682  19.937  0.00  0.00    +0.000 C 
ATOM     23  C   UNL     1       4.644   2.105  20.187  0.00  0.00    +0.000 C 
ENDBRANCH   1  22
BRANCH   6  24
ATOM     24  C   UNL     1       1.518   5.096  20.680  0.00  0.00    +0.000 C 
BRANCH  24  25
ATOM     25  O   UNL     1       0.414   4.272  20.347  0.00  0.00    +0.000 OA
ATOM     26  H   UNL     1       0.626   3.857  19.491  0.00  0.00    +0.000 HD
ENDBRANCH  24  25
ENDBRANCH   6  24
TORSDOF 6
ENDMDL
MODEL 8
REMARK VINA RESULT:      -7.9      0.854      1.052
REMARK  Name = 
REMARK  11 active torsions:
REMARK  status: ('A' for Active; 'I' for Inactive)
REMARK    1  A    between atoms: C_1  and  C_2
REMARK    2  A    between atoms: C_2  and  C_3
REMARK    3  A    between atoms: C_2  and  C_4
REMARK    4  A    between atoms: C_6  and  C_7
REMARK    5  A    between atoms: C_7  and  C_8
REMARK    6  A    between atoms: C_7  and  C_9
REMARK    7  A    between atoms: C_7  and  C_10
REMARK    8  A    between atoms: C_12  and  C_13
REMARK    9  A    between atoms: C_17  and  C_18
REMARK   10  A    between atoms: C_23  and  C_24
REMARK   11  A    between atoms: C_24  and  O_25
REMARK                            x       y       z     vdW  Elec       q    Type
REMARK                         _______ _______ _______ _____ _____    ______ ____
ROOT
ATOM      1  C   UNL     1       3.346   4.069  19.186  0.00  0.00    +0.000 A 
ATOM      2  C   UNL     1       4.336   4.199  18.185  0.00  0.00    +0.000 A 
ATOM      3  C   UNL     1       4.566   5.384  17.483  0.00  0.00    +0.000 A 
ATOM      4  C   UNL     1       3.723   6.456  17.792  0.00  0.00    +0.000 A 
ATOM      5  C   UNL     1       2.746   6.434  18.828  0.00  0.00    +0.000 A 
ATOM      6  C   UNL     1       2.549   5.203  19.538  0.00  0.00    +0.000 A 
ENDROOT
BRANCH   5   7
ATOM      7  C   UNL     1       2.063   7.743  19.119  0.00  0.00    +0.000 A 
ATOM      8  C   UNL     1       1.922   8.783  18.190  0.00  0.00    +0.000 A 
ATOM      9  C   UNL     1       1.233   9.965  18.495  0.00  0.00    +0.000 A 
ATOM     10  C   UNL     1       0.737  10.182  19.776  0.00  0.00    +0.000 A 
ATOM     11  C   UNL     1       0.914   9.210  20.761  0.00  0.00    +0.000 A 
ATOM     12  C   UNL     1       1.540   7.998  20.411  0.00  0.00    +0.000 A 
BRANCH  11  13
ATOM     13  C   UNL     1       0.472   9.442  22.183  0.00  0.00    +0.000 C 
ATOM     14  F   UNL     1       0.103  10.728  22.442  0.00  0.00    +0.000 F 
ATOM     15  F   UNL     1      -0.593   8.670  22.536  0.00  0.00    +0.000 F 
ATOM     16  F   UNL     1       1.455   9.152  23.084  0.00  0.00    +0.000 F 
ENDBRANCH  11  13
ENDBRANCH   5   7
BRANCH   3  17
ATOM     17  C   UNL     1       5.722   5.487  16.474  0.00  0.00    +0.000 C 
ATOM     18  C   UNL     1       6.126   4.085  15.974  0.00  0.00    +0.000 C 
ATOM     19  C   UNL     1       5.393   6.345  15.232  0.00  0.00    +0.000 C 
ATOM     20  C   UNL     1       6.944   6.145  17.158  0.00  0.00    +0.000 C 
ENDBRANCH   3  17
BRANCH   1  22
ATOM     21  C   UNL     1       2.431   1.693  19.052  0.00  0.00    +0.000 C 
ATOM     22  C   UNL     1       3.253   2.701  19.866  0.00  0.00    +0.000 C 
ATOM     23  C   UNL     1       4.655   2.152  20.172  0.00  0.00    +0.000 C 
ENDBRANCH   1  22
BRANCH   6  24
ATOM     24  C   UNL     1       1.505   5.089  20.636  0.00  0.00    +0.000 C 
BRANCH  24  25
ATOM     25  O   UNL     1       0.441   4.215  20.300  0.00  0.00    +0.000 OA
ATOM     26  H   UNL     1       0.621   3.371  20.753  0.00  0.00    +0.000 HD
ENDBRANCH  24  25
ENDBRANCH   6  24
TORSDOF 6
ENDMDL
MODEL 9
REMARK VINA RESULT:      -7.7      1.688      3.876
REMARK  Name = 
REMARK  11 active torsions:
REMARK  status: ('A' for Active; 'I' for Inactive)
REMARK    1  A    between atoms: C_1  and  C_2
REMARK    2  A    between atoms: C_2  and  C_3
REMARK    3  A    between atoms: C_2  and  C_4
REMARK    4  A    between atoms: C_6  and  C_7
REMARK    5  A    between atoms: C_7  and  C_8
REMARK    6  A    between atoms: C_7  and  C_9
REMARK    7  A    between atoms: C_7  and  C_10
REMARK    8  A    between atoms: C_12  and  C_13
REMARK    9  A    between atoms: C_17  and  C_18
REMARK   10  A    between atoms: C_23  and  C_24
REMARK   11  A    between atoms: C_24  and  O_25
REMARK                            x       y       z     vdW  Elec       q    Type
REMARK                         _______ _______ _______ _____ _____    ______ ____
ROOT
ATOM      1  C   UNL     1       4.674   4.569  17.144  0.00  0.00    +0.000 A 
ATOM      2  C   UNL     1       4.027   3.503  17.810  0.00  0.00    +0.000 A 
ATOM      3  C   UNL     1       2.965   3.686  18.698  0.00  0.00    +0.000 A 
ATOM      4  C   UNL     1       2.584   5.009  18.938  0.00  0.00    +0.000 A 
ATOM      5  C   UNL     1       3.134   6.137  18.264  0.00  0.00    +0.000 A 
ATOM      6  C   UNL     1       4.214   5.908  17.348  0.00  0.00    +0.000 A 
ENDROOT
BRANCH   5   7
ATOM      7  C   UNL     1       2.468   7.459  18.536  0.00  0.00    +0.000 A 
ATOM      8  C   UNL     1       2.403   8.513  17.615  0.00  0.00    +0.000 A 
ATOM      9  C   UNL     1       1.729   9.709  17.899  0.00  0.00    +0.000 A 
ATOM     10  C   UNL     1       1.171   9.923  19.155  0.00  0.00    +0.000 A 
ATOM     11  C   UNL     1       1.271   8.935  20.134  0.00  0.00    +0.000 A 
ATOM     12  C   UNL     1       1.885   7.711  19.801  0.00  0.00    +0.000 A 
BRANCH  11  13
ATOM     13  C   UNL     1       0.760   9.161  21.535  0.00  0.00    +0.000 C 
ATOM     14  F   UNL     1       1.685   8.914  22.504  0.00  0.00    +0.000 F 
ATOM     15  F   UNL     1       0.336  10.438  21.740  0.00  0.00    +0.000 F 
ATOM     16  F   UNL     1      -0.307   8.364  21.830  0.00  0.00    +0.000 F 
ENDBRANCH  11  13
ENDBRANCH   5   7
BRANCH   3  17
ATOM     17  C   UNL     1       2.241   2.478  19.316  0.00  0.00    +0.000 C 
ATOM     18  C   UNL     1       2.998   1.173  18.988  0.00  0.00    +0.000 C 
ATOM     19  C   UNL     1       2.096   2.555  20.852  0.00  0.00    +0.000 C 
ATOM     20  C   UNL     1       0.809   2.384  18.737  0.00  0.00    +0.000 C 
ENDBRANCH   3  17
BRANCH   1  22
ATOM     21  C   UNL     1       5.641   4.801  14.796  0.00  0.00    +0.000 C 
ATOM     22  C   UNL     1       5.804   4.178  16.189  0.00  0.00    +0.000 C 
ATOM     23  C   UNL     1       7.170   4.530  16.795  0.00  0.00    +0.000 C 
ENDBRANCH   1  22
BRANCH   6  24
ATOM     24  C   UNL     1       4.876   7.061  16.612  0.00  0.00    +0.000 C 
BRANCH  24  25
ATOM     25  O   UNL     1       6.025   7.555  17.278  0.00  0.00    +0.000 OA
ATOM     26  H   UNL     1       5.787   8.432  17.630  0.00  0.00    +0.000 HD
ENDBRANCH  24  25
ENDBRANCH   6  24
TORSDOF 6
ENDMDL
