MODEL 1
REMARK VINA RESULT:      -8.0      0.000      0.000
REMARK  Name = 
REMARK  6 active torsions:
REMARK  status: ('A' for Active; 'I' for Inactive)
REMARK    1  A    between atoms: C_1  and  C_2
REMARK    2  A    between atoms: C_5  and  S_6
REMARK    3  A    between atoms: S_6  and  N_9
REMARK    4  A    between atoms: C_15  and  N_16
REMARK    5  A    between atoms: C_19  and  O_20
REMARK    6  A    between atoms: O_20  and  C_21
REMARK                            x       y       z     vdW  Elec       q    Type
REMARK                         _______ _______ _______ _____ _____    ______ ____
ROOT
ATOM      1  N   UNL     1       1.099  10.352  20.628  0.00  0.00    +0.000 N 
ATOM      2  C   UNL     1       0.693  11.597  21.087  0.00  0.00    +0.000 C 
ATOM      3  O   UNL     1       0.091  11.714  22.147  0.00  0.00    +0.000 OA
ATOM      4  N   UNL     1       0.993  12.704  20.286  0.00  0.00    +0.000 N 
ATOM      5  C   UNL     1       0.817  14.000  20.939  0.00  0.00    +0.000 C 
ATOM      6  C   UNL     1       0.763  15.176  19.979  0.00  0.00    +0.000 C 
ATOM      7  C   UNL     1       1.884  15.194  18.926  0.00  0.00    +0.000 C 
ATOM      8  C   UNL     1       1.915  13.825  18.234  0.00  0.00    +0.000 C 
ATOM      9  C   UNL     1       1.942  12.628  19.177  0.00  0.00    +0.000 C 
ATOM     10  H   UNL     1       1.589  10.221  19.757  0.00  0.00    +0.000 HD
ENDROOT
BRANCH   7  11
ATOM     11  N   UNL     1       3.216  15.720  19.311  0.00  0.00    +0.000 NA
ATOM     12  C   UNL     1       4.017  14.685  19.978  0.00  0.00    +0.000 C 
ATOM     13  C   UNL     1       5.332  15.236  20.509  0.00  0.00    +0.000 C 
ATOM     14  C   UNL     1       6.169  15.824  19.374  0.00  0.00    +0.000 C 
ATOM     15  C   UNL     1       5.345  16.940  18.738  0.00  0.00    +0.000 C 
ATOM     16  C   UNL     1       3.970  16.441  18.283  0.00  0.00    +0.000 C 
BRANCH  14  17
ATOM     17  O   UNL     1       6.451  14.852  18.350  0.00  0.00    +0.000 OA
BRANCH  17  18
ATOM     18  C   UNL     1       7.764  14.556  18.112  0.00  0.00    +0.000 A 
ATOM     19  C   UNL     1       8.814  15.470  18.190  0.00  0.00    +0.000 A 
ATOM     20  C   UNL     1      10.126  15.067  17.936  0.00  0.00    +0.000 A 
ATOM     21  C   UNL     1      10.391  13.745  17.595  0.00  0.00    +0.000 A 
ATOM     22 CL   UNL     1      12.002  13.270  17.236  0.00  0.00    +0.000 Cl
ATOM     23  C   UNL     1       9.354  12.817  17.532  0.00  0.00    +0.000 A 
ATOM     24  C   UNL     1       8.043  13.219  17.804  0.00  0.00    +0.000 A 
ENDBRANCH  17  18
ENDBRANCH  14  17
ENDBRANCH   7  11
BRANCH   1  25
ATOM     25  S   UNL     1       0.853   8.918  21.419  0.00  0.00    +0.000 S 
ATOM     26  O   UNL     1      -0.562   8.646  21.544  0.00  0.00    +0.000 OA
ATOM     27  O   UNL     1       1.687   9.008  22.607  0.00  0.00    +0.000 OA
BRANCH  25  32
ATOM     28  C   UNL     1       3.237   4.771  17.683  0.00  0.00    +0.000 C 
ATOM     29  C   UNL     1       2.674   5.796  18.623  0.00  0.00    +0.000 A 
ATOM     30  C   UNL     1       2.171   5.418  19.875  0.00  0.00    +0.000 A 
ATOM     31  C   UNL     1       1.631   6.373  20.737  0.00  0.00    +0.000 A 
ATOM     32  C   UNL     1       1.598   7.716  20.348  0.00  0.00    +0.000 A 
ATOM     33  C   UNL     1       2.085   8.104  19.100  0.00  0.00    +0.000 A 
ATOM     34  C   UNL     1       2.630   7.144  18.244  0.00  0.00    +0.000 A 
ENDBRANCH  25  32
ENDBRANCH   1  25
TORSDOF 5
ENDMDL
MODEL 2
REMARK VINA RESULT:      -7.7      1.553      2.066
REMARK  Name = 
REMARK  6 active torsions:
REMARK  status: ('A' for Active; 'I' for Inactive)
REMARK    1  A    between atoms: C_1  and  C_2
REMARK    2  A    between atoms: C_5  and  S_6
REMARK    3  A    between atoms: S_6  and  N_9
REMARK    4  A    between atoms: C_15  and  N_16
REMARK    5  A    between atoms: C_19  and  O_20
REMARK    6  A    between atoms: O_20  and  C_21
REMARK                            x       y       z     vdW  Elec       q    Type
REMARK                         _______ _______ _______ _____ _____    ______ ____
ROOT
ATOM      1  N   UNL     1       1.210  11.932  19.961  0.00  0.00    +0.000 N 
ATOM      2  C   UNL     1       1.035  13.241  20.389  0.00  0.00    +0.000 C 
ATOM      3  O   UNL     1       0.199  13.521  21.240  0.00  0.00    +0.000 OA
ATOM      4  N   UNL     1       1.845  14.220  19.803  0.00  0.00    +0.000 N 
ATOM      5  C   UNL     1       1.836  15.512  20.486  0.00  0.00    +0.000 C 
ATOM      6  C   UNL     1       2.387  16.657  19.653  0.00  0.00    +0.000 C 
ATOM      7  C   UNL     1       3.732  16.360  18.968  0.00  0.00    +0.000 C 
ATOM      8  C   UNL     1       3.599  15.039  18.201  0.00  0.00    +0.000 C 
ATOM      9  C   UNL     1       3.023  13.881  19.008  0.00  0.00    +0.000 C 
ATOM     10  H   UNL     1       1.882  11.670  19.258  0.00  0.00    +0.000 HD
ENDROOT
BRANCH   7  11
ATOM     11  N   UNL     1       4.980  16.491  19.760  0.00  0.00    +0.000 NA
ATOM     12  C   UNL     1       5.604  15.178  19.976  0.00  0.00    +0.000 C 
ATOM     13  C   UNL     1       6.808  15.266  20.903  0.00  0.00    +0.000 C 
ATOM     14  C   UNL     1       7.866  16.205  20.326  0.00  0.00    +0.000 C 
ATOM     15  C   UNL     1       7.216  17.576  20.172  0.00  0.00    +0.000 C 
ATOM     16  C   UNL     1       5.940  17.507  19.326  0.00  0.00    +0.000 C 
BRANCH  14  17
ATOM     17  O   UNL     1       8.311  15.783  19.024  0.00  0.00    +0.000 OA
BRANCH  17  18
ATOM     18  C   UNL     1       9.207  14.752  18.971  0.00  0.00    +0.000 A 
ATOM     19  C   UNL     1      10.357  14.655  19.753  0.00  0.00    +0.000 A 
ATOM     20  C   UNL     1      11.207  13.554  19.632  0.00  0.00    +0.000 A 
ATOM     21  C   UNL     1      10.911  12.548  18.719  0.00  0.00    +0.000 A 
ATOM     22 CL   UNL     1      11.989  11.223  18.541  0.00  0.00    +0.000 Cl
ATOM     23  C   UNL     1       9.755  12.623  17.945  0.00  0.00    +0.000 A 
ATOM     24  C   UNL     1       8.897  13.718  18.080  0.00  0.00    +0.000 A 
ENDBRANCH  17  18
ENDBRANCH  14  17
ENDBRANCH   7  11
BRANCH   1  25
ATOM     25  S   UNL     1       0.364  10.625  20.526  0.00  0.00    +0.000 S 
ATOM     26  O   UNL     1      -1.011  10.682  20.083  0.00  0.00    +0.000 OA
ATOM     27  O   UNL     1       0.673  10.574  21.946  0.00  0.00    +0.000 OA
BRANCH  25  32
ATOM     28  C   UNL     1       3.304   5.970  17.968  0.00  0.00    +0.000 C 
ATOM     29  C   UNL     1       2.551   7.111  18.587  0.00  0.00    +0.000 A 
ATOM     30  C   UNL     1       2.251   8.258  17.840  0.00  0.00    +0.000 A 
ATOM     31  C   UNL     1       1.568   9.324  18.426  0.00  0.00    +0.000 A 
ATOM     32  C   UNL     1       1.176   9.242  19.766  0.00  0.00    +0.000 A 
ATOM     33  C   UNL     1       1.479   8.111  20.524  0.00  0.00    +0.000 A 
ATOM     34  C   UNL     1       2.157   7.044  19.930  0.00  0.00    +0.000 A 
ENDBRANCH  25  32
ENDBRANCH   1  25
TORSDOF 5
ENDMDL
MODEL 3
REMARK VINA RESULT:      -7.6      4.806      7.317
REMARK  Name = 
REMARK  6 active torsions:
REMARK  status: ('A' for Active; 'I' for Inactive)
REMARK    1  A    between atoms: C_1  and  C_2
REMARK    2  A    between atoms: C_5  and  S_6
REMARK    3  A    between atoms: S_6  and  N_9
REMARK    4  A    between atoms: C_15  and  N_16
REMARK    5  A    between atoms: C_19  and  O_20
REMARK    6  A    between atoms: O_20  and  C_21
REMARK                            x       y       z     vdW  Elec       q    Type
REMARK                         _______ _______ _______ _____ _____    ______ ____
ROOT
ATOM      1  N   UNL     1       3.875   6.190  18.599  0.00  0.00    +0.000 N 
ATOM      2  C   UNL     1       2.965   6.586  19.570  0.00  0.00    +0.000 C 
ATOM      3  O   UNL     1       2.849   5.964  20.618  0.00  0.00    +0.000 OA
ATOM      4  N   UNL     1       2.187   7.716  19.294  0.00  0.00    +0.000 N 
ATOM      5  C   UNL     1       1.471   8.262  20.446  0.00  0.00    +0.000 C 
ATOM      6  C   UNL     1       0.350   9.220  20.081  0.00  0.00    +0.000 C 
ATOM      7  C   UNL     1       0.740  10.302  19.059  0.00  0.00    +0.000 C 
ATOM      8  C   UNL     1       1.388   9.613  17.853  0.00  0.00    +0.000 C 
ATOM      9  C   UNL     1       2.499   8.626  18.195  0.00  0.00    +0.000 C 
ATOM     10  H   UNL     1       3.990   6.675  17.723  0.00  0.00    +0.000 HD
ENDROOT
BRANCH   7  11
ATOM     11  N   UNL     1       1.455  11.510  19.538  0.00  0.00    +0.000 NA
ATOM     12  C   UNL     1       1.909  12.333  18.409  0.00  0.00    +0.000 C 
ATOM     13  C   UNL     1       2.767  13.504  18.867  0.00  0.00    +0.000 C 
ATOM     14  C   UNL     1       1.988  14.403  19.826  0.00  0.00    +0.000 C 
ATOM     15  C   UNL     1       1.584  13.543  21.021  0.00  0.00    +0.000 C 
ATOM     16  C   UNL     1       0.804  12.299  20.586  0.00  0.00    +0.000 C 
BRANCH  14  17
ATOM     17  O   UNL     1       0.782  14.914  19.229  0.00  0.00    +0.000 OA
BRANCH  17  18
ATOM     18  C   UNL     1       0.065  15.828  19.950  0.00  0.00    +0.000 A 
ATOM     19  C   UNL     1       0.576  17.022  20.457  0.00  0.00    +0.000 A 
ATOM     20  C   UNL     1      -0.241  17.896  21.175  0.00  0.00    +0.000 A 
ATOM     21  C   UNL     1      -1.575  17.573  21.396  0.00  0.00    +0.000 A 
ATOM     22 CL   UNL     1      -2.561  18.630  22.323  0.00  0.00    +0.000 Cl
ATOM     23  C   UNL     1      -2.105  16.392  20.878  0.00  0.00    +0.000 A 
ATOM     24  C   UNL     1      -1.288  15.527  20.145  0.00  0.00    +0.000 A 
ENDBRANCH  17  18
ENDBRANCH  14  17
ENDBRANCH   7  11
BRANCH   1  25
ATOM     25  S   UNL     1       4.895   4.891  18.723  0.00  0.00    +0.000 S 
ATOM     26  O   UNL     1       4.152   3.694  19.050  0.00  0.00    +0.000 OA
ATOM     27  O   UNL     1       5.965   5.348  19.595  0.00  0.00    +0.000 OA
BRANCH  25  32
ATOM     28  C   UNL     1       7.189   4.546  13.114  0.00  0.00    +0.000 C 
ATOM     29  C   UNL     1       6.624   4.600  14.503  0.00  0.00    +0.000 A 
ATOM     30  C   UNL     1       5.272   4.316  14.736  0.00  0.00    +0.000 A 
ATOM     31  C   UNL     1       4.747   4.387  16.027  0.00  0.00    +0.000 A 
ATOM     32  C   UNL     1       5.579   4.740  17.094  0.00  0.00    +0.000 A 
ATOM     33  C   UNL     1       6.924   5.036  16.874  0.00  0.00    +0.000 A 
ATOM     34  C   UNL     1       7.446   4.957  15.580  0.00  0.00    +0.000 A 
ENDBRANCH  25  32
ENDBRANCH   1  25
TORSDOF 5
ENDMDL
MODEL 4
REMARK VINA RESULT:      -7.6      1.743      2.168
REMARK  Name = 
REMARK  6 active torsions:
REMARK  status: ('A' for Active; 'I' for Inactive)
REMARK    1  A    between atoms: C_1  and  C_2
REMARK    2  A    between atoms: C_5  and  S_6
REMARK    3  A    between atoms: S_6  and  N_9
REMARK    4  A    between atoms: C_15  and  N_16
REMARK    5  A    between atoms: C_19  and  O_20
REMARK    6  A    between atoms: O_20  and  C_21
REMARK                            x       y       z     vdW  Elec       q    Type
REMARK                         _______ _______ _______ _____ _____    ______ ____
ROOT
ATOM      1  N   UNL     1       1.315  11.779  19.927  0.00  0.00    +0.000 N 
ATOM      2  C   UNL     1       1.085  13.083  20.343  0.00  0.00    +0.000 C 
ATOM      3  O   UNL     1       0.336  13.324  21.282  0.00  0.00    +0.000 OA
ATOM      4  N   UNL     1       1.735  14.103  19.640  0.00  0.00    +0.000 N 
ATOM      5  C   UNL     1       1.702  15.412  20.289  0.00  0.00    +0.000 C 
ATOM      6  C   UNL     1       2.053  16.569  19.369  0.00  0.00    +0.000 C 
ATOM      7  C   UNL     1       3.327  16.357  18.533  0.00  0.00    +0.000 C 
ATOM      8  C   UNL     1       3.212  15.005  17.818  0.00  0.00    +0.000 C 
ATOM      9  C   UNL     1       2.834  13.832  18.716  0.00  0.00    +0.000 C 
ATOM     10  H   UNL     1       1.917  11.547  19.154  0.00  0.00    +0.000 HD
ENDROOT
BRANCH   7  11
ATOM     11  N   UNL     1       4.644  16.612  19.163  0.00  0.00    +0.000 NA
ATOM     12  C   UNL     1       4.690  16.060  20.525  0.00  0.00    +0.000 C 
ATOM     13  C   UNL     1       5.978  16.430  21.246  0.00  0.00    +0.000 C 
ATOM     14  C   UNL     1       7.194  15.907  20.482  0.00  0.00    +0.000 C 
ATOM     15  C   UNL     1       7.162  16.544  19.096  0.00  0.00    +0.000 C 
ATOM     16  C   UNL     1       5.835  16.277  18.379  0.00  0.00    +0.000 C 
BRANCH  14  17
ATOM     17  O   UNL     1       7.151  14.479  20.308  0.00  0.00    +0.000 OA
BRANCH  17  18
ATOM     18  C   UNL     1       8.341  13.837  20.108  0.00  0.00    +0.000 A 
ATOM     19  C   UNL     1       8.801  13.375  18.876  0.00  0.00    +0.000 A 
ATOM     20  C   UNL     1      10.039  12.737  18.774  0.00  0.00    +0.000 A 
ATOM     21  C   UNL     1      10.817  12.551  19.910  0.00  0.00    +0.000 A 
ATOM     22 CL   UNL     1      12.315  11.720  19.783  0.00  0.00    +0.000 Cl
ATOM     23  C   UNL     1      10.379  13.025  21.145  0.00  0.00    +0.000 A 
ATOM     24  C   UNL     1       9.147  13.679  21.241  0.00  0.00    +0.000 A 
ENDBRANCH  17  18
ENDBRANCH  14  17
ENDBRANCH   7  11
BRANCH   1  25
ATOM     25  S   UNL     1       0.653  10.427  20.620  0.00  0.00    +0.000 S 
ATOM     26  O   UNL     1      -0.777  10.398  20.408  0.00  0.00    +0.000 OA
ATOM     27  O   UNL     1       1.192  10.408  21.971  0.00  0.00    +0.000 OA
BRANCH  25  32
ATOM     28  C   UNL     1       3.416   5.921  17.635  0.00  0.00    +0.000 C 
ATOM     29  C   UNL     1       2.706   7.027  18.360  0.00  0.00    +0.000 A 
ATOM     30  C   UNL     1       2.386   8.222  17.703  0.00  0.00    +0.000 A 
ATOM     31  C   UNL     1       1.743   9.255  18.387  0.00  0.00    +0.000 A 
ATOM     32  C   UNL     1       1.413   9.090  19.736  0.00  0.00    +0.000 A 
ATOM     33  C   UNL     1       1.737   7.909  20.405  0.00  0.00    +0.000 A 
ATOM     34  C   UNL     1       2.374   6.877  19.713  0.00  0.00    +0.000 A 
ENDBRANCH  25  32
ENDBRANCH   1  25
TORSDOF 5
ENDMDL
MODEL 5
REMARK VINA RESULT:      -7.6      6.313      8.806
REMARK  Name = 
REMARK  6 active torsions:
REMARK  status: ('A' for Active; 'I' for Inactive)
REMARK    1  A    between atoms: C_1  and  C_2
REMARK    2  A    between atoms: C_5  and  S_6
REMARK    3  A    between atoms: S_6  and  N_9
REMARK    4  A    between atoms: C_15  and  N_16
REMARK    5  A    between atoms: C_19  and  O_20
REMARK    6  A    between atoms: O_20  and  C_21
REMARK                            x       y       z     vdW  Elec       q    Type
REMARK                         _______ _______ _______ _____ _____    ______ ____
ROOT
ATOM      1  N   UNL     1       1.931   6.149  20.470  0.00  0.00    +0.000 N 
ATOM      2  C   UNL     1       1.762   7.193  19.570  0.00  0.00    +0.000 C 
ATOM      3  O   UNL     1       1.782   6.995  18.362  0.00  0.00    +0.000 OA
ATOM      4  N   UNL     1       1.577   8.473  20.103  0.00  0.00    +0.000 N 
ATOM      5  C   UNL     1       1.112   9.475  19.145  0.00  0.00    +0.000 C 
ATOM      6  C   UNL     1       1.285  10.909  19.615  0.00  0.00    +0.000 C 
ATOM      7  C   UNL     1       0.781  11.180  21.044  0.00  0.00    +0.000 C 
ATOM      8  C   UNL     1       1.407  10.138  21.979  0.00  0.00    +0.000 C 
ATOM      9  C   UNL     1       1.271   8.692  21.515  0.00  0.00    +0.000 C 
ATOM     10  H   UNL     1       1.928   6.280  21.469  0.00  0.00    +0.000 HD
ENDROOT
BRANCH   7  11
ATOM     11  N   UNL     1      -0.668  11.408  21.257  0.00  0.00    +0.000 NA
ATOM     12  C   UNL     1      -0.947  11.731  22.663  0.00  0.00    +0.000 C 
ATOM     13  C   UNL     1      -2.440  11.832  22.940  0.00  0.00    +0.000 C 
ATOM     14  C   UNL     1      -3.078  12.915  22.070  0.00  0.00    +0.000 C 
ATOM     15  C   UNL     1      -2.834  12.525  20.615  0.00  0.00    +0.000 C 
ATOM     16  C   UNL     1      -1.344  12.315  20.326  0.00  0.00    +0.000 C 
BRANCH  14  17
ATOM     17  O   UNL     1      -2.476  14.205  22.284  0.00  0.00    +0.000 OA
BRANCH  17  18
ATOM     18  C   UNL     1      -3.177  15.106  23.034  0.00  0.00    +0.000 A 
ATOM     19  C   UNL     1      -4.448  15.587  22.721  0.00  0.00    +0.000 A 
ATOM     20  C   UNL     1      -5.087  16.503  23.559  0.00  0.00    +0.000 A 
ATOM     21  C   UNL     1      -4.450  16.947  24.713  0.00  0.00    +0.000 A 
ATOM     22 CL   UNL     1      -5.224  18.111  25.711  0.00  0.00    +0.000 Cl
ATOM     23  C   UNL     1      -3.189  16.460  25.048  0.00  0.00    +0.000 A 
ATOM     24  C   UNL     1      -2.558  15.530  24.216  0.00  0.00    +0.000 A 
ENDBRANCH  17  18
ENDBRANCH  14  17
ENDBRANCH   7  11
BRANCH   1  25
ATOM     25  S   UNL     1       2.157   4.562  20.055  0.00  0.00    +0.000 S 
ATOM     26  O   UNL     1       1.042   4.081  19.269  0.00  0.00    +0.000 OA
ATOM     27  O   UNL     1       2.509   3.904  21.303  0.00  0.00    +0.000 OA
BRANCH  25  32
ATOM     28  C   UNL     1       7.108   4.837  16.553  0.00  0.00    +0.000 C 
ATOM     29  C   UNL     1       5.890   4.739  17.425  0.00  0.00    +0.000 A 
ATOM     30  C   UNL     1       4.713   4.150  16.945  0.00  0.00    +0.000 A 
ATOM     31  C   UNL     1       3.578   4.079  17.753  0.00  0.00    +0.000 A 
ATOM     32  C   UNL     1       3.620   4.596  19.052  0.00  0.00    +0.000 A 
ATOM     33  C   UNL     1       4.782   5.195  19.538  0.00  0.00    +0.000 A 
ATOM     34  C   UNL     1       5.917   5.257  18.727  0.00  0.00    +0.000 A 
ENDBRANCH  25  32
ENDBRANCH   1  25
TORSDOF 5
ENDMDL
MODEL 6
REMARK VINA RESULT:      -7.6      1.066      1.378
REMARK  Name = 
REMARK  6 active torsions:
REMARK  status: ('A' for Active; 'I' for Inactive)
REMARK    1  A    between atoms: C_1  and  C_2
REMARK    2  A    between atoms: C_5  and  S_6
REMARK    3  A    between atoms: S_6  and  N_9
REMARK    4  A    between atoms: C_15  and  N_16
REMARK    5  A    between atoms: C_19  and  O_20
REMARK    6  A    between atoms: O_20  and  C_21
REMARK                            x       y       z     vdW  Elec       q    Type
REMARK                         _______ _______ _______ _____ _____    ______ ____
ROOT
ATOM      1  N   UNL     1       1.198  10.736  20.590  0.00  0.00    +0.000 N 
ATOM      2  C   UNL     1       0.791  11.999  21.000  0.00  0.00    +0.000 C 
ATOM      3  O   UNL     1       0.093  12.145  21.996  0.00  0.00    +0.000 OA
ATOM      4  N   UNL     1       1.206  13.087  20.226  0.00  0.00    +0.000 N 
ATOM      5  C   UNL     1       1.011  14.394  20.852  0.00  0.00    +0.000 C 
ATOM      6  C   UNL     1       1.091  15.563  19.884  0.00  0.00    +0.000 C 
ATOM      7  C   UNL     1       2.310  15.533  18.945  0.00  0.00    +0.000 C 
ATOM      8  C   UNL     1       2.361  14.159  18.267  0.00  0.00    +0.000 C 
ATOM      9  C   UNL     1       2.254  12.970  19.215  0.00  0.00    +0.000 C 
ATOM     10  H   UNL     1       1.765  10.581  19.771  0.00  0.00    +0.000 HD
ENDROOT
BRANCH   7  11
ATOM     11  N   UNL     1       3.615  16.019  19.455  0.00  0.00    +0.000 NA
ATOM     12  C   UNL     1       4.172  15.085  20.443  0.00  0.00    +0.000 C 
ATOM     13  C   UNL     1       5.441  15.625  21.086  0.00  0.00    +0.000 C 
ATOM     14  C   UNL     1       6.511  15.891  20.029  0.00  0.00    +0.000 C 
ATOM     15  C   UNL     1       5.936  16.913  19.052  0.00  0.00    +0.000 C 
ATOM     16  C   UNL     1       4.603  16.444  18.461  0.00  0.00    +0.000 C 
BRANCH  14  17
ATOM     17  O   UNL     1       6.838  14.706  19.280  0.00  0.00    +0.000 OA
BRANCH  17  18
ATOM     18  C   UNL     1       8.107  14.215  19.407  0.00  0.00    +0.000 A 
ATOM     19  C   UNL     1       8.744  13.957  20.621  0.00  0.00    +0.000 A 
ATOM     20  C   UNL     1      10.042  13.445  20.646  0.00  0.00    +0.000 A 
ATOM     21  C   UNL     1      10.711  13.195  19.453  0.00  0.00    +0.000 A 
ATOM     22 CL   UNL     1      12.326  12.612  19.495  0.00  0.00    +0.000 Cl
ATOM     23  C   UNL     1      10.080  13.429  18.234  0.00  0.00    +0.000 A 
ATOM     24  C   UNL     1       8.773  13.926  18.211  0.00  0.00    +0.000 A 
ENDBRANCH  17  18
ENDBRANCH  14  17
ENDBRANCH   7  11
BRANCH   1  25
ATOM     25  S   UNL     1       0.826   9.319  21.361  0.00  0.00    +0.000 S 
ATOM     26  O   UNL     1      -0.607   9.151  21.449  0.00  0.00    +0.000 OA
ATOM     27  O   UNL     1       1.636   9.337  22.569  0.00  0.00    +0.000 OA
BRANCH  25  32
ATOM     28  C   UNL     1       3.319   5.100  17.779  0.00  0.00    +0.000 C 
ATOM     29  C   UNL     1       2.676   6.139  18.649  0.00  0.00    +0.000 A 
ATOM     30  C   UNL     1       2.532   7.458  18.198  0.00  0.00    +0.000 A 
ATOM     31  C   UNL     1       1.951   8.426  19.018  0.00  0.00    +0.000 A 
ATOM     32  C   UNL     1       1.506   8.073  20.297  0.00  0.00    +0.000 A 
ATOM     33  C   UNL     1       1.654   6.766  20.762  0.00  0.00    +0.000 A 
ATOM     34  C   UNL     1       2.231   5.801  19.933  0.00  0.00    +0.000 A 
ENDBRANCH  25  32
ENDBRANCH   1  25
TORSDOF 5
ENDMDL
MODEL 7
REMARK VINA RESULT:      -7.5      5.117      7.498
REMARK  Name = 
REMARK  6 active torsions:
REMARK  status: ('A' for Active; 'I' for Inactive)
REMARK    1  A    between atoms: C_1  and  C_2
REMARK    2  A    between atoms: C_5  and  S_6
REMARK    3  A    between atoms: S_6  and  N_9
REMARK    4  A    between atoms: C_15  and  N_16
REMARK    5  A    between atoms: C_19  and  O_20
REMARK    6  A    between atoms: O_20  and  C_21
REMARK                            x       y       z     vdW  Elec       q    Type
REMARK                         _______ _______ _______ _____ _____    ______ ____
ROOT
ATOM      1  N   UNL     1       3.695   6.177  18.583  0.00  0.00    +0.000 N 
ATOM      2  C   UNL     1       2.797   6.593  19.556  0.00  0.00    +0.000 C 
ATOM      3  O   UNL     1       2.708   6.004  20.627  0.00  0.00    +0.000 OA
ATOM      4  N   UNL     1       1.999   7.703  19.259  0.00  0.00    +0.000 N 
ATOM      5  C   UNL     1       1.296   8.278  20.404  0.00  0.00    +0.000 C 
ATOM      6  C   UNL     1       0.156   9.209  20.029  0.00  0.00    +0.000 C 
ATOM      7  C   UNL     1       0.513  10.262  18.966  0.00  0.00    +0.000 C 
ATOM      8  C   UNL     1       1.149   9.541  17.771  0.00  0.00    +0.000 C 
ATOM      9  C   UNL     1       2.279   8.581  18.125  0.00  0.00    +0.000 C 
ATOM     10  H   UNL     1       3.787   6.634  17.690  0.00  0.00    +0.000 HD
ENDROOT
BRANCH   7  11
ATOM     11  N   UNL     1       1.221  11.493  19.392  0.00  0.00    +0.000 NA
ATOM     12  C   UNL     1       0.860  12.630  18.533  0.00  0.00    +0.000 C 
ATOM     13  C   UNL     1       1.677  13.872  18.859  0.00  0.00    +0.000 C 
ATOM     14  C   UNL     1       1.466  14.291  20.313  0.00  0.00    +0.000 C 
ATOM     15  C   UNL     1       1.909  13.121  21.188  0.00  0.00    +0.000 C 
ATOM     16  C   UNL     1       1.178  11.827  20.817  0.00  0.00    +0.000 C 
BRANCH  14  17
ATOM     17  O   UNL     1       0.081  14.554  20.605  0.00  0.00    +0.000 OA
BRANCH  17  18
ATOM     18  C   UNL     1      -0.227  14.943  21.879  0.00  0.00    +0.000 A 
ATOM     19  C   UNL     1      -1.005  14.206  22.771  0.00  0.00    +0.000 A 
ATOM     20  C   UNL     1      -1.256  14.686  24.058  0.00  0.00    +0.000 A 
ATOM     21  C   UNL     1      -0.735  15.913  24.453  0.00  0.00    +0.000 A 
ATOM     22 CL   UNL     1      -1.092  16.519  26.020  0.00  0.00    +0.000 Cl
ATOM     23  C   UNL     1       0.059  16.651  23.578  0.00  0.00    +0.000 A 
ATOM     24  C   UNL     1       0.324  16.160  22.296  0.00  0.00    +0.000 A 
ENDBRANCH  17  18
ENDBRANCH  14  17
ENDBRANCH   7  11
BRANCH   1  25
ATOM     25  S   UNL     1       4.734   4.896  18.731  0.00  0.00    +0.000 S 
ATOM     26  O   UNL     1       4.000   3.676  18.983  0.00  0.00    +0.000 OA
ATOM     27  O   UNL     1       5.742   5.350  19.675  0.00  0.00    +0.000 OA
BRANCH  25  32
ATOM     28  C   UNL     1       7.324   4.740  13.243  0.00  0.00    +0.000 C 
ATOM     29  C   UNL     1       6.691   4.749  14.604  0.00  0.00    +0.000 A 
ATOM     30  C   UNL     1       5.400   4.238  14.794  0.00  0.00    +0.000 A 
ATOM     31  C   UNL     1       4.808   4.266  16.058  0.00  0.00    +0.000 A 
ATOM     32  C   UNL     1       5.513   4.803  17.140  0.00  0.00    +0.000 A 
ATOM     33  C   UNL     1       6.793   5.326  16.961  0.00  0.00    +0.000 A 
ATOM     34  C   UNL     1       7.383   5.289  15.696  0.00  0.00    +0.000 A 
ENDBRANCH  25  32
ENDBRANCH   1  25
TORSDOF 5
ENDMDL
MODEL 8
REMARK VINA RESULT:      -7.4      0.830      1.033
REMARK  Name = 
REMARK  6 active torsions:
REMARK  status: ('A' for Active; 'I' for Inactive)
REMARK    1  A    between atoms: C_1  and  C_2
REMARK    2  A    between atoms: C_5  and  S_6
REMARK    3  A    between atoms: S_6  and  N_9
REMARK    4  A    between atoms: C_15  and  N_16
REMARK    5  A    between atoms: C_19  and  O_20
REMARK    6  A    between atoms: O_20  and  C_21
REMARK                            x       y       z     vdW  Elec       q    Type
REMARK                         _______ _______ _______ _____ _____    ______ ____
ROOT
ATOM      1  N   UNL     1       1.211  10.579  20.561  0.00  0.00    +0.000 N 
ATOM      2  C   UNL     1       0.752  11.828  20.956  0.00  0.00    +0.000 C 
ATOM      3  O   UNL     1       0.056  11.958  21.955  0.00  0.00    +0.000 OA
ATOM      4  N   UNL     1       1.113  12.922  20.163  0.00  0.00    +0.000 N 
ATOM      5  C   UNL     1       0.865  14.228  20.772  0.00  0.00    +0.000 C 
ATOM      6  C   UNL     1       0.887  15.385  19.788  0.00  0.00    +0.000 C 
ATOM      7  C   UNL     1       2.098  15.395  18.839  0.00  0.00    +0.000 C 
ATOM      8  C   UNL     1       2.205  14.015  18.181  0.00  0.00    +0.000 C 
ATOM      9  C   UNL     1       2.158  12.836  19.146  0.00  0.00    +0.000 C 
ATOM     10  H   UNL     1       1.778  10.436  19.740  0.00  0.00    +0.000 HD
ENDROOT
BRANCH   7  11
ATOM     11  N   UNL     1       3.385  15.945  19.332  0.00  0.00    +0.000 NA
ATOM     12  C   UNL     1       3.861  15.195  20.502  0.00  0.00    +0.000 C 
ATOM     13  C   UNL     1       5.105  15.824  21.113  0.00  0.00    +0.000 C 
ATOM     14  C   UNL     1       6.240  15.879  20.092  0.00  0.00    +0.000 C 
ATOM     15  C   UNL     1       5.747  16.717  18.916  0.00  0.00    +0.000 C 
ATOM     16  C   UNL     1       4.438  16.169  18.339  0.00  0.00    +0.000 C 
BRANCH  14  17
ATOM     17  O   UNL     1       6.578  14.574  19.587  0.00  0.00    +0.000 OA
BRANCH  17  18
ATOM     18  C   UNL     1       7.894  14.332  19.308  0.00  0.00    +0.000 A 
ATOM     19  C   UNL     1       8.375  13.842  18.094  0.00  0.00    +0.000 A 
ATOM     20  C   UNL     1       9.742  13.637  17.903  0.00  0.00    +0.000 A 
ATOM     21  C   UNL     1      10.634  13.914  18.933  0.00  0.00    +0.000 A 
ATOM     22 CL   UNL     1      12.310  13.611  18.706  0.00  0.00    +0.000 Cl
ATOM     23  C   UNL     1      10.170  14.423  20.144  0.00  0.00    +0.000 A 
ATOM     24  C   UNL     1       8.802  14.644  20.327  0.00  0.00    +0.000 A 
ENDBRANCH  17  18
ENDBRANCH  14  17
ENDBRANCH   7  11
BRANCH   1  25
ATOM     25  S   UNL     1       0.908   9.157  21.355  0.00  0.00    +0.000 S 
ATOM     26  O   UNL     1      -0.517   8.931  21.461  0.00  0.00    +0.000 OA
ATOM     27  O   UNL     1       1.728   9.226  22.554  0.00  0.00    +0.000 OA
BRANCH  25  32
ATOM     28  C   UNL     1       3.207   4.906  17.683  0.00  0.00    +0.000 C 
ATOM     29  C   UNL     1       2.666   5.959  18.605  0.00  0.00    +0.000 A 
ATOM     30  C   UNL     1       2.226   5.622  19.892  0.00  0.00    +0.000 A 
ATOM     31  C   UNL     1       1.705   6.601  20.740  0.00  0.00    +0.000 A 
ATOM     32  C   UNL     1       1.628   7.927  20.300  0.00  0.00    +0.000 A 
ATOM     33  C   UNL     1       2.053   8.273  19.017  0.00  0.00    +0.000 A 
ATOM     34  C   UNL     1       2.579   7.289  18.176  0.00  0.00    +0.000 A 
ENDBRANCH  25  32
ENDBRANCH   1  25
TORSDOF 5
ENDMDL
MODEL 9
REMARK VINA RESULT:      -7.4      4.651      6.986
REMARK  Name = 
REMARK  6 active torsions:
REMARK  status: ('A' for Active; 'I' for Inactive)
REMARK    1  A    between atoms: C_1  and  C_2
REMARK    2  A    between atoms: C_5  and  S_6
REMARK    3  A    between atoms: S_6  and  N_9
REMARK    4  A    between atoms: C_15  and  N_16
REMARK    5  A    between atoms: C_19  and  O_20
REMARK    6  A    between atoms: O_20  and  C_21
REMARK                            x       y       z     vdW  Elec       q    Type
REMARK                         _______ _______ _______ _____ _____    ______ ____
ROOT
ATOM      1  N   UNL     1       3.133   6.268  18.411  0.00  0.00    +0.000 N 
ATOM      2  C   UNL     1       2.422   6.797  19.479  0.00  0.00    +0.000 C 
ATOM      3  O   UNL     1       2.379   6.219  20.558  0.00  0.00    +0.000 OA
ATOM      4  N   UNL     1       1.755   8.008  19.266  0.00  0.00    +0.000 N 
ATOM      5  C   UNL     1       1.279   8.667  20.481  0.00  0.00    +0.000 C 
ATOM      6  C   UNL     1       0.241   9.749  20.233  0.00  0.00    +0.000 C 
ATOM      7  C   UNL     1       0.613  10.750  19.125  0.00  0.00    +0.000 C 
ATOM      8  C   UNL     1       0.998   9.956  17.871  0.00  0.00    +0.000 C 
ATOM      9  C   UNL     1       2.018   8.847  18.099  0.00  0.00    +0.000 C 
ATOM     10  H   UNL     1       3.182   6.713  17.509  0.00  0.00    +0.000 HD
ENDROOT
BRANCH   7  11
ATOM     11  N   UNL     1       1.529  11.869  19.453  0.00  0.00    +0.000 NA
ATOM     12  C   UNL     1       1.684  12.773  18.305  0.00  0.00    +0.000 C 
ATOM     13  C   UNL     1       2.726  13.851  18.566  0.00  0.00    +0.000 C 
ATOM     14  C   UNL     1       2.341  14.691  19.783  0.00  0.00    +0.000 C 
ATOM     15  C   UNL     1       2.251  13.742  20.975  0.00  0.00    +0.000 C 
ATOM     16  C   UNL     1       1.284  12.585  20.706  0.00  0.00    +0.000 C 
BRANCH  14  17
ATOM     17  O   UNL     1       1.054  15.317  19.624  0.00  0.00    +0.000 OA
BRANCH  17  18
ATOM     18  C   UNL     1       0.624  16.130  20.635  0.00  0.00    +0.000 A 
ATOM     19  C   UNL     1       1.374  17.159  21.204  0.00  0.00    +0.000 A 
ATOM     20  C   UNL     1       0.841  17.943  22.229  0.00  0.00    +0.000 A 
ATOM     21  C   UNL     1      -0.445  17.693  22.693  0.00  0.00    +0.000 A 
ATOM     22 CL   UNL     1      -1.074  18.630  23.988  0.00  0.00    +0.000 Cl
ATOM     23  C   UNL     1      -1.213  16.681  22.121  0.00  0.00    +0.000 A 
ATOM     24  C   UNL     1      -0.683  15.909  21.083  0.00  0.00    +0.000 A 
ENDBRANCH  17  18
ENDBRANCH  14  17
ENDBRANCH   7  11
BRANCH   1  25
ATOM     25  S   UNL     1       3.996   4.854  18.449  0.00  0.00    +0.000 S 
ATOM     26  O   UNL     1       3.104   3.719  18.524  0.00  0.00    +0.000 OA
ATOM     27  O   UNL     1       4.999   5.065  19.480  0.00  0.00    +0.000 OA
BRANCH  25  32
ATOM     28  C   UNL     1       7.059   4.836  13.208  0.00  0.00    +0.000 C 
ATOM     29  C   UNL     1       6.275   4.843  14.488  0.00  0.00    +0.000 A 
ATOM     30  C   UNL     1       5.810   6.047  15.033  0.00  0.00    +0.000 A 
ATOM     31  C   UNL     1       5.098   6.050  16.234  0.00  0.00    +0.000 A 
ATOM     32  C   UNL     1       4.845   4.841  16.891  0.00  0.00    +0.000 A 
ATOM     33  C   UNL     1       5.313   3.638  16.364  0.00  0.00    +0.000 A 
ATOM     34  C   UNL     1       6.019   3.640  15.159  0.00  0.00    +0.000 A 
ENDBRANCH  25  32
ENDBRANCH   1  25
TORSDOF 5
ENDMDL
