MODEL 1
REMARK VINA RESULT:      -8.5      0.000      0.000
REMARK  Name = 
REMARK  10 active torsions:
REMARK  status: ('A' for Active; 'I' for Inactive)
REMARK    1  A    between atoms: C_1  and  C_2
REMARK    2  A    between atoms: C_2  and  C_3
REMARK    3  A    between atoms: C_3  and  N_4
REMARK    4  A    between atoms: N_7  and  C_8
REMARK    5  A    between atoms: C_8  and  C_9
REMARK    6  A    between atoms: C_9  and  N_10
REMARK    7  A    between atoms: C_11  and  C_13
REMARK    8  A    between atoms: C_17  and  N_18
REMARK    9  A    between atoms: C_23  and  C_24
REMARK   10  A    between atoms: C_27  and  C_28
REMARK                            x       y       z     vdW  Elec       q    Type
REMARK                         _______ _______ _______ _____ _____    ______ ____
ROOT
ATOM      1  C   UNL     1       0.612   9.684  21.020  0.00  0.00    +0.000 A 
ATOM      2  C   UNL     1       0.667   8.941  22.201  0.00  0.00    +0.000 A 
ATOM      3  C   UNL     1      -0.035   9.376  23.325  0.00  0.00    +0.000 A 
ATOM      4  C   UNL     1      -0.803  10.543  23.266  0.00  0.00    +0.000 A 
ATOM      5  C   UNL     1      -0.854  11.307  22.094  0.00  0.00    +0.000 A 
ATOM      6  C   UNL     1      -0.153  10.851  20.968  0.00  0.00    +0.000 A 
ENDROOT
BRANCH   5   7
ATOM      7  N   UNL     1      -1.709  12.432  22.005  0.00  0.00    +0.000 N 
ATOM      8  C   UNL     1      -2.765  12.560  21.077  0.00  0.00    +0.000 A 
ATOM      9  C   UNL     1      -3.857  13.332  21.407  0.00  0.00    +0.000 A 
ATOM     10  C   UNL     1      -4.878  13.360  20.486  0.00  0.00    +0.000 A 
ATOM     11  N   UNL     1      -4.829  12.733  19.296  0.00  0.00    +0.000 NA
ATOM     12  C   UNL     1      -3.705  12.039  19.040  0.00  0.00    +0.000 A 
ATOM     13  N   UNL     1      -2.681  11.923  19.902  0.00  0.00    +0.000 NA
ATOM     14  H   UNL     1      -1.219  13.315  22.098  0.00  0.00    +0.000 HD
BRANCH  12  15
ATOM     15  C   UNL     1      -3.545  11.399  17.725  0.00  0.00    +0.000 A 
ATOM     16  C   UNL     1      -4.449  11.634  16.674  0.00  0.00    +0.000 A 
ATOM     17  C   UNL     1      -4.263  11.063  15.411  0.00  0.00    +0.000 A 
ATOM     18  C   UNL     1      -3.164  10.237  15.161  0.00  0.00    +0.000 A 
ATOM     19  C   UNL     1      -2.927   9.649  13.804  0.00  0.00    +0.000 C 
ATOM     20  C   UNL     1      -2.264   9.976  16.196  0.00  0.00    +0.000 A 
ATOM     21  C   UNL     1      -2.454  10.546  17.456  0.00  0.00    +0.000 A 
ENDBRANCH  12  15
ENDBRANCH   5   7
BRANCH   1  23
ATOM     22  N   UNL     1       1.880   7.930  19.908  0.00  0.00    +0.000 N 
ATOM     23  C   UNL     1       1.266   9.154  19.799  0.00  0.00    +0.000 C 
ATOM     24  O   UNL     1       1.242   9.806  18.759  0.00  0.00    +0.000 OA
ATOM     25  H   UNL     1       1.643   7.304  20.672  0.00  0.00    +0.000 HD
BRANCH  22  26
ATOM     26  C   UNL     1       2.581   7.365  18.774  0.00  0.00    +0.000 C 
BRANCH  26  27
ATOM     27  C   UNL     1       2.980   5.897  18.995  0.00  0.00    +0.000 C 
BRANCH  27  31
ATOM     28  N   UNL     1       4.922   4.416  16.169  0.00  0.00    +0.000 NA
ATOM     29  C   UNL     1       4.310   3.689  17.302  0.00  0.00    +0.000 C 
ATOM     30  C   UNL     1       4.746   4.219  18.687  0.00  0.00    +0.000 C 
ATOM     31  N   UNL     1       4.438   5.651  18.897  0.00  0.00    +0.000 NA
ATOM     32  C   UNL     1       5.019   6.418  17.765  0.00  0.00    +0.000 C 
ATOM     33  C   UNL     1       4.666   5.867  16.355  0.00  0.00    +0.000 C 
BRANCH  28  34
ATOM     34  C   UNL     1       6.369   4.160  16.049  0.00  0.00    +0.000 C 
BRANCH  34  36
ATOM     35  C   UNL     1       6.238   3.877  13.549  0.00  0.00    +0.000 C 
ATOM     36  C   UNL     1       6.944   4.584  14.692  0.00  0.00    +0.000 C 
ENDBRANCH  34  36
ENDBRANCH  28  34
ENDBRANCH  27  31
ENDBRANCH  26  27
ENDBRANCH  22  26
ENDBRANCH   1  23
TORSDOF 8
ENDMDL
MODEL 2
REMARK VINA RESULT:      -8.4      5.730      9.776
REMARK  Name = 
REMARK  10 active torsions:
REMARK  status: ('A' for Active; 'I' for Inactive)
REMARK    1  A    between atoms: C_1  and  C_2
REMARK    2  A    between atoms: C_2  and  C_3
REMARK    3  A    between atoms: C_3  and  N_4
REMARK    4  A    between atoms: N_7  and  C_8
REMARK    5  A    between atoms: C_8  and  C_9
REMARK    6  A    between atoms: C_9  and  N_10
REMARK    7  A    between atoms: C_11  and  C_13
REMARK    8  A    between atoms: C_17  and  N_18
REMARK    9  A    between atoms: C_23  and  C_24
REMARK   10  A    between atoms: C_27  and  C_28
REMARK                            x       y       z     vdW  Elec       q    Type
REMARK                         _______ _______ _______ _____ _____    ______ ____
ROOT
ATOM      1  C   UNL     1       7.481   6.959  17.480  0.00  0.00    +0.000 A 
ATOM      2  C   UNL     1       7.600   6.548  16.150  0.00  0.00    +0.000 A 
ATOM      3  C   UNL     1       7.200   5.263  15.785  0.00  0.00    +0.000 A 
ATOM      4  C   UNL     1       6.668   4.393  16.743  0.00  0.00    +0.000 A 
ATOM      5  C   UNL     1       6.559   4.785  18.082  0.00  0.00    +0.000 A 
ATOM      6  C   UNL     1       6.954   6.085  18.432  0.00  0.00    +0.000 A 
ENDROOT
BRANCH   5   7
ATOM      7  N   UNL     1       5.931   3.943  19.029  0.00  0.00    +0.000 N 
ATOM      8  C   UNL     1       4.585   4.065  19.438  0.00  0.00    +0.000 A 
ATOM      9  C   UNL     1       3.908   2.943  19.861  0.00  0.00    +0.000 A 
ATOM     10  C   UNL     1       2.583   3.120  20.181  0.00  0.00    +0.000 A 
ATOM     11  N   UNL     1       1.960   4.314  20.153  0.00  0.00    +0.000 NA
ATOM     12  C   UNL     1       2.711   5.363  19.771  0.00  0.00    +0.000 A 
ATOM     13  N   UNL     1       3.999   5.268  19.398  0.00  0.00    +0.000 NA
ATOM     14  H   UNL     1       6.519   3.731  19.829  0.00  0.00    +0.000 HD
BRANCH  12  15
ATOM     15  C   UNL     1       2.123   6.710  19.799  0.00  0.00    +0.000 A 
ATOM     16  C   UNL     1       1.459   7.203  20.937  0.00  0.00    +0.000 A 
ATOM     17  C   UNL     1       0.946   8.504  20.976  0.00  0.00    +0.000 A 
ATOM     18  C   UNL     1       1.082   9.353  19.874  0.00  0.00    +0.000 A 
ATOM     19  C   UNL     1       0.573  10.761  19.912  0.00  0.00    +0.000 C 
ATOM     20  C   UNL     1       1.721   8.878  18.728  0.00  0.00    +0.000 A 
ATOM     21  C   UNL     1       2.230   7.578  18.692  0.00  0.00    +0.000 A 
ENDBRANCH  12  15
ENDBRANCH   5   7
BRANCH   1  23
ATOM     22  N   UNL     1       8.714   8.553  18.843  0.00  0.00    +0.000 N 
ATOM     23  C   UNL     1       7.800   8.362  17.836  0.00  0.00    +0.000 C 
ATOM     24  O   UNL     1       7.255   9.286  17.238  0.00  0.00    +0.000 OA
ATOM     25  H   UNL     1       9.344   7.803  19.113  0.00  0.00    +0.000 HD
BRANCH  22  26
ATOM     26  C   UNL     1       9.045   9.893  19.282  0.00  0.00    +0.000 C 
BRANCH  26  27
ATOM     27  C   UNL     1      10.025  10.603  18.333  0.00  0.00    +0.000 C 
BRANCH  27  31
ATOM     28  N   UNL     1      10.508  14.161  17.307  0.00  0.00    +0.000 NA
ATOM     29  C   UNL     1      11.330  13.001  16.899  0.00  0.00    +0.000 C 
ATOM     30  C   UNL     1      11.885  12.187  18.091  0.00  0.00    +0.000 C 
ATOM     31  N   UNL     1      10.834  11.657  18.988  0.00  0.00    +0.000 NA
ATOM     32  C   UNL     1       9.970  12.792  19.404  0.00  0.00    +0.000 C 
ATOM     33  C   UNL     1       9.455  13.682  18.238  0.00  0.00    +0.000 C 
BRANCH  28  34
ATOM     34  C   UNL     1      11.308  15.226  17.938  0.00  0.00    +0.000 C 
BRANCH  34  36
ATOM     35  C   UNL     1      10.209  17.465  17.573  0.00  0.00    +0.000 C 
ATOM     36  C   UNL     1      11.319  16.529  17.128  0.00  0.00    +0.000 C 
ENDBRANCH  34  36
ENDBRANCH  28  34
ENDBRANCH  27  31
ENDBRANCH  26  27
ENDBRANCH  22  26
ENDBRANCH   1  23
TORSDOF 8
ENDMDL
MODEL 3
REMARK VINA RESULT:      -8.2      6.039      8.582
REMARK  Name = 
REMARK  10 active torsions:
REMARK  status: ('A' for Active; 'I' for Inactive)
REMARK    1  A    between atoms: C_1  and  C_2
REMARK    2  A    between atoms: C_2  and  C_3
REMARK    3  A    between atoms: C_3  and  N_4
REMARK    4  A    between atoms: N_7  and  C_8
REMARK    5  A    between atoms: C_8  and  C_9
REMARK    6  A    between atoms: C_9  and  N_10
REMARK    7  A    between atoms: C_11  and  C_13
REMARK    8  A    between atoms: C_17  and  N_18
REMARK    9  A    between atoms: C_23  and  C_24
REMARK   10  A    between atoms: C_27  and  C_28
REMARK                            x       y       z     vdW  Elec       q    Type
REMARK                         _______ _______ _______ _____ _____    ______ ____
ROOT
ATOM      1  C   UNL     1       8.886  10.187  18.616  0.00  0.00    +0.000 A 
ATOM      2  C   UNL     1       9.462  10.118  19.888  0.00  0.00    +0.000 A 
ATOM      3  C   UNL     1      10.043  11.256  20.446  0.00  0.00    +0.000 A 
ATOM      4  C   UNL     1      10.037  12.465  19.744  0.00  0.00    +0.000 A 
ATOM      5  C   UNL     1       9.480  12.546  18.463  0.00  0.00    +0.000 A 
ATOM      6  C   UNL     1       8.887  11.396  17.918  0.00  0.00    +0.000 A 
ENDROOT
BRANCH   5   7
ATOM      7  N   UNL     1       9.386  13.790  17.796  0.00  0.00    +0.000 N 
ATOM      8  C   UNL     1       8.439  14.792  18.103  0.00  0.00    +0.000 A 
ATOM      9  C   UNL     1       8.756  16.110  17.863  0.00  0.00    +0.000 A 
ATOM     10  C   UNL     1       7.817  17.038  18.246  0.00  0.00    +0.000 A 
ATOM     11  N   UNL     1       6.621  16.716  18.775  0.00  0.00    +0.000 NA
ATOM     12  C   UNL     1       6.380  15.402  18.933  0.00  0.00    +0.000 A 
ATOM     13  N   UNL     1       7.260  14.434  18.627  0.00  0.00    +0.000 NA
ATOM     14  H   UNL     1       9.497  13.715  16.790  0.00  0.00    +0.000 HD
BRANCH  12  15
ATOM     15  C   UNL     1       5.061  14.973  19.424  0.00  0.00    +0.000 A 
ATOM     16  C   UNL     1       4.037  14.577  18.545  0.00  0.00    +0.000 A 
ATOM     17  C   UNL     1       2.803  14.122  19.021  0.00  0.00    +0.000 A 
ATOM     18  C   UNL     1       2.556  14.048  20.394  0.00  0.00    +0.000 A 
ATOM     19  C   UNL     1       1.255  13.526  20.921  0.00  0.00    +0.000 C 
ATOM     20  C   UNL     1       3.552  14.453  21.284  0.00  0.00    +0.000 A 
ATOM     21  C   UNL     1       4.782  14.909  20.806  0.00  0.00    +0.000 A 
ENDBRANCH  12  15
ENDBRANCH   5   7
BRANCH   1  23
ATOM     22  N   UNL     1       8.468   7.790  18.648  0.00  0.00    +0.000 N 
ATOM     23  C   UNL     1       8.170   9.005  18.080  0.00  0.00    +0.000 C 
ATOM     24  O   UNL     1       7.356   9.142  17.171  0.00  0.00    +0.000 OA
ATOM     25  H   UNL     1       8.913   7.746  19.560  0.00  0.00    +0.000 HD
BRANCH  22  26
ATOM     26  C   UNL     1       7.846   6.582  18.149  0.00  0.00    +0.000 C 
BRANCH  26  27
ATOM     27  C   UNL     1       7.113   5.794  19.247  0.00  0.00    +0.000 C 
BRANCH  27  31
ATOM     28  N   UNL     1       3.616   5.490  17.975  0.00  0.00    +0.000 NA
ATOM     29  C   UNL     1       4.067   5.332  19.374  0.00  0.00    +0.000 C 
ATOM     30  C   UNL     1       5.196   4.290  19.547  0.00  0.00    +0.000 C 
ATOM     31  N   UNL     1       6.406   4.591  18.751  0.00  0.00    +0.000 NA
ATOM     32  C   UNL     1       5.992   4.778  17.336  0.00  0.00    +0.000 C 
ATOM     33  C   UNL     1       4.806   5.761  17.129  0.00  0.00    +0.000 C 
BRANCH  28  34
ATOM     34  C   UNL     1       2.890   4.306  17.478  0.00  0.00    +0.000 C 
BRANCH  34  36
ATOM     35  C   UNL     1       1.337   2.598  18.488  0.00  0.00    +0.000 C 
ATOM     36  C   UNL     1       1.557   4.072  18.199  0.00  0.00    +0.000 C 
ENDBRANCH  34  36
ENDBRANCH  28  34
ENDBRANCH  27  31
ENDBRANCH  26  27
ENDBRANCH  22  26
ENDBRANCH   1  23
TORSDOF 8
ENDMDL
MODEL 4
REMARK VINA RESULT:      -8.1      6.216      8.686
REMARK  Name = 
REMARK  10 active torsions:
REMARK  status: ('A' for Active; 'I' for Inactive)
REMARK    1  A    between atoms: C_1  and  C_2
REMARK    2  A    between atoms: C_2  and  C_3
REMARK    3  A    between atoms: C_3  and  N_4
REMARK    4  A    between atoms: N_7  and  C_8
REMARK    5  A    between atoms: C_8  and  C_9
REMARK    6  A    between atoms: C_9  and  N_10
REMARK    7  A    between atoms: C_11  and  C_13
REMARK    8  A    between atoms: C_17  and  N_18
REMARK    9  A    between atoms: C_23  and  C_24
REMARK   10  A    between atoms: C_27  and  C_28
REMARK                            x       y       z     vdW  Elec       q    Type
REMARK                         _______ _______ _______ _____ _____    ______ ____
ROOT
ATOM      1  C   UNL     1       8.879  10.111  18.724  0.00  0.00    +0.000 A 
ATOM      2  C   UNL     1       9.201  10.039  20.082  0.00  0.00    +0.000 A 
ATOM      3  C   UNL     1       9.743  11.151  20.725  0.00  0.00    +0.000 A 
ATOM      4  C   UNL     1       9.949  12.340  20.018  0.00  0.00    +0.000 A 
ATOM      5  C   UNL     1       9.648  12.423  18.653  0.00  0.00    +0.000 A 
ATOM      6  C   UNL     1       9.092  11.299  18.022  0.00  0.00    +0.000 A 
ENDROOT
BRANCH   5   7
ATOM      7  N   UNL     1       9.764  13.652  17.963  0.00  0.00    +0.000 N 
ATOM      8  C   UNL     1       8.867  14.734  18.102  0.00  0.00    +0.000 A 
ATOM      9  C   UNL     1       9.326  16.016  17.898  0.00  0.00    +0.000 A 
ATOM     10  C   UNL     1       8.417  17.025  18.115  0.00  0.00    +0.000 A 
ATOM     11  N   UNL     1       7.131  16.814  18.450  0.00  0.00    +0.000 NA
ATOM     12  C   UNL     1       6.759  15.528  18.585  0.00  0.00    +0.000 A 
ATOM     13  N   UNL     1       7.594  14.485  18.435  0.00  0.00    +0.000 NA
ATOM     14  H   UNL     1      10.026  13.542  16.989  0.00  0.00    +0.000 HD
BRANCH  12  15
ATOM     15  C   UNL     1       5.349  15.217  18.865  0.00  0.00    +0.000 A 
ATOM     16  C   UNL     1       4.417  15.015  17.831  0.00  0.00    +0.000 A 
ATOM     17  C   UNL     1       3.089  14.670  18.103  0.00  0.00    +0.000 A 
ATOM     18  C   UNL     1       2.652  14.518  19.422  0.00  0.00    +0.000 A 
ATOM     19  C   UNL     1       1.244  14.111  19.731  0.00  0.00    +0.000 C 
ATOM     20  C   UNL     1       3.556  14.733  20.464  0.00  0.00    +0.000 A 
ATOM     21  C   UNL     1       4.881  15.078  20.188  0.00  0.00    +0.000 A 
ENDBRANCH  12  15
ENDBRANCH   5   7
BRANCH   1  23
ATOM     22  N   UNL     1       8.409   7.725  18.636  0.00  0.00    +0.000 N 
ATOM     23  C   UNL     1       8.199   8.963  18.078  0.00  0.00    +0.000 C 
ATOM     24  O   UNL     1       7.489   9.146  17.093  0.00  0.00    +0.000 OA
ATOM     25  H   UNL     1       8.753   7.643  19.589  0.00  0.00    +0.000 HD
BRANCH  22  26
ATOM     26  C   UNL     1       7.818   6.547  18.037  0.00  0.00    +0.000 C 
BRANCH  26  27
ATOM     27  C   UNL     1       6.858   5.815  18.989  0.00  0.00    +0.000 C 
BRANCH  27  31
ATOM     28  N   UNL     1       4.450   3.290  17.658  0.00  0.00    +0.000 NA
ATOM     29  C   UNL     1       5.323   4.185  16.868  0.00  0.00    +0.000 C 
ATOM     30  C   UNL     1       5.158   5.681  17.222  0.00  0.00    +0.000 C 
ATOM     31  N   UNL     1       5.427   5.986  18.645  0.00  0.00    +0.000 NA
ATOM     32  C   UNL     1       4.582   5.089  19.476  0.00  0.00    +0.000 C 
ATOM     33  C   UNL     1       4.662   3.584  19.098  0.00  0.00    +0.000 C 
BRANCH  28  34
ATOM     34  C   UNL     1       3.025   3.435  17.307  0.00  0.00    +0.000 C 
BRANCH  34  36
ATOM     35  C   UNL     1       0.973   2.922  18.675  0.00  0.00    +0.000 C 
ATOM     36  C   UNL     1       2.143   2.334  17.908  0.00  0.00    +0.000 C 
ENDBRANCH  34  36
ENDBRANCH  28  34
ENDBRANCH  27  31
ENDBRANCH  26  27
ENDBRANCH  22  26
ENDBRANCH   1  23
TORSDOF 8
ENDMDL
MODEL 5
REMARK VINA RESULT:      -8.0      2.461     10.484
REMARK  Name = 
REMARK  10 active torsions:
REMARK  status: ('A' for Active; 'I' for Inactive)
REMARK    1  A    between atoms: C_1  and  C_2
REMARK    2  A    between atoms: C_2  and  C_3
REMARK    3  A    between atoms: C_3  and  N_4
REMARK    4  A    between atoms: N_7  and  C_8
REMARK    5  A    between atoms: C_8  and  C_9
REMARK    6  A    between atoms: C_9  and  N_10
REMARK    7  A    between atoms: C_11  and  C_13
REMARK    8  A    between atoms: C_17  and  N_18
REMARK    9  A    between atoms: C_23  and  C_24
REMARK   10  A    between atoms: C_27  and  C_28
REMARK                            x       y       z     vdW  Elec       q    Type
REMARK                         _______ _______ _______ _____ _____    ______ ____
ROOT
ATOM      1  C   UNL     1       1.974   6.042  19.846  0.00  0.00    +0.000 A 
ATOM      2  C   UNL     1       1.937   5.053  20.832  0.00  0.00    +0.000 A 
ATOM      3  C   UNL     1       2.379   3.764  20.535  0.00  0.00    +0.000 A 
ATOM      4  C   UNL     1       2.873   3.466  19.261  0.00  0.00    +0.000 A 
ATOM      5  C   UNL     1       2.901   4.443  18.258  0.00  0.00    +0.000 A 
ATOM      6  C   UNL     1       2.464   5.738  18.575  0.00  0.00    +0.000 A 
ENDROOT
BRANCH   5   7
ATOM      7  N   UNL     1       3.492   4.169  17.002  0.00  0.00    +0.000 N 
ATOM      8  C   UNL     1       4.834   4.454  16.671  0.00  0.00    +0.000 A 
ATOM      9  C   UNL     1       5.473   3.676  15.732  0.00  0.00    +0.000 A 
ATOM     10  C   UNL     1       6.798   3.967  15.506  0.00  0.00    +0.000 A 
ATOM     11  N   UNL     1       7.454   4.980  16.102  0.00  0.00    +0.000 NA
ATOM     12  C   UNL     1       6.738   5.715  16.973  0.00  0.00    +0.000 A 
ATOM     13  N   UNL     1       5.454   5.471  17.284  0.00  0.00    +0.000 NA
ATOM     14  H   UNL     1       2.886   4.389  16.218  0.00  0.00    +0.000 HD
BRANCH  12  15
ATOM     15  C   UNL     1       7.363   6.891  17.598  0.00  0.00    +0.000 A 
ATOM     16  C   UNL     1       8.190   6.775  18.730  0.00  0.00    +0.000 A 
ATOM     17  C   UNL     1       8.822   7.890  19.288  0.00  0.00    +0.000 A 
ATOM     18  C   UNL     1       8.646   9.159  18.729  0.00  0.00    +0.000 A 
ATOM     19  C   UNL     1       9.346  10.359  19.290  0.00  0.00    +0.000 C 
ATOM     20  C   UNL     1       7.815   9.300  17.616  0.00  0.00    +0.000 A 
ATOM     21  C   UNL     1       7.184   8.184  17.063  0.00  0.00    +0.000 A 
ENDBRANCH  12  15
ENDBRANCH   5   7
BRANCH   1  23
ATOM     22  N   UNL     1       1.532   8.338  19.172  0.00  0.00    +0.000 N 
ATOM     23  C   UNL     1       1.610   7.434  20.203  0.00  0.00    +0.000 C 
ATOM     24  O   UNL     1       1.397   7.731  21.376  0.00  0.00    +0.000 OA
ATOM     25  H   UNL     1       1.432   8.015  18.214  0.00  0.00    +0.000 HD
BRANCH  22  26
ATOM     26  C   UNL     1       1.228   9.727  19.443  0.00  0.00    +0.000 C 
BRANCH  26  27
ATOM     27  C   UNL     1      -0.277  10.032  19.368  0.00  0.00    +0.000 C 
BRANCH  27  31
ATOM     28  N   UNL     1      -3.703  11.027  18.265  0.00  0.00    +0.000 NA
ATOM     29  C   UNL     1      -3.023   9.742  17.995  0.00  0.00    +0.000 C 
ATOM     30  C   UNL     1      -1.638   9.902  17.328  0.00  0.00    +0.000 C 
ATOM     31  N   UNL     1      -0.690  10.716  18.121  0.00  0.00    +0.000 NA
ATOM     32  C   UNL     1      -1.344  12.013  18.432  0.00  0.00    +0.000 C 
ATOM     33  C   UNL     1      -2.773  11.894  19.033  0.00  0.00    +0.000 C 
BRANCH  28  34
ATOM     34  C   UNL     1      -4.138  11.706  17.030  0.00  0.00    +0.000 C 
BRANCH  34  36
ATOM     35  C   UNL     1      -6.342  11.432  18.222  0.00  0.00    +0.000 C 
ATOM     36  C   UNL     1      -5.635  12.043  17.025  0.00  0.00    +0.000 C 
ENDBRANCH  34  36
ENDBRANCH  28  34
ENDBRANCH  27  31
ENDBRANCH  26  27
ENDBRANCH  22  26
ENDBRANCH   1  23
TORSDOF 8
ENDMDL
MODEL 6
REMARK VINA RESULT:      -7.9      2.789      4.253
REMARK  Name = 
REMARK  10 active torsions:
REMARK  status: ('A' for Active; 'I' for Inactive)
REMARK    1  A    between atoms: C_1  and  C_2
REMARK    2  A    between atoms: C_2  and  C_3
REMARK    3  A    between atoms: C_3  and  N_4
REMARK    4  A    between atoms: N_7  and  C_8
REMARK    5  A    between atoms: C_8  and  C_9
REMARK    6  A    between atoms: C_9  and  N_10
REMARK    7  A    between atoms: C_11  and  C_13
REMARK    8  A    between atoms: C_17  and  N_18
REMARK    9  A    between atoms: C_23  and  C_24
REMARK   10  A    between atoms: C_27  and  C_28
REMARK                            x       y       z     vdW  Elec       q    Type
REMARK                         _______ _______ _______ _____ _____    ______ ____
ROOT
ATOM      1  C   UNL     1       1.748   8.222  19.852  0.00  0.00    +0.000 A 
ATOM      2  C   UNL     1       1.178   8.091  21.121  0.00  0.00    +0.000 A 
ATOM      3  C   UNL     1       0.467   9.156  21.673  0.00  0.00    +0.000 A 
ATOM      4  C   UNL     1       0.311  10.345  20.954  0.00  0.00    +0.000 A 
ATOM      5  C   UNL     1       0.890  10.497  19.689  0.00  0.00    +0.000 A 
ATOM      6  C   UNL     1       1.592   9.413  19.141  0.00  0.00    +0.000 A 
ENDROOT
BRANCH   5   7
ATOM      7  N   UNL     1       0.649  11.661  18.922  0.00  0.00    +0.000 N 
ATOM      8  C   UNL     1      -0.140  12.751  19.351  0.00  0.00    +0.000 A 
ATOM      9  C   UNL     1       0.135  14.010  18.867  0.00  0.00    +0.000 A 
ATOM     10  C   UNL     1      -0.628  15.034  19.376  0.00  0.00    +0.000 A 
ATOM     11  N   UNL     1      -1.633  14.853  20.253  0.00  0.00    +0.000 NA
ATOM     12  C   UNL     1      -1.860  13.583  20.637  0.00  0.00    +0.000 A 
ATOM     13  N   UNL     1      -1.133  12.532  20.223  0.00  0.00    +0.000 NA
ATOM     14  H   UNL     1       0.467  11.465  17.943  0.00  0.00    +0.000 HD
BRANCH  12  15
ATOM     15  C   UNL     1      -2.997  13.299  21.526  0.00  0.00    +0.000 A 
ATOM     16  C   UNL     1      -2.828  13.132  22.912  0.00  0.00    +0.000 A 
ATOM     17  C   UNL     1      -3.919  12.913  23.759  0.00  0.00    +0.000 A 
ATOM     18  C   UNL     1      -5.217  12.853  23.242  0.00  0.00    +0.000 A 
ATOM     19  C   UNL     1      -6.401  12.658  24.139  0.00  0.00    +0.000 C 
ATOM     20  C   UNL     1      -5.405  12.997  21.867  0.00  0.00    +0.000 A 
ATOM     21  C   UNL     1      -4.313  13.214  21.025  0.00  0.00    +0.000 A 
ENDBRANCH  12  15
ENDBRANCH   5   7
BRANCH   1  23
ATOM     22  N   UNL     1       3.058   6.183  20.069  0.00  0.00    +0.000 N 
ATOM     23  C   UNL     1       2.402   7.048  19.227  0.00  0.00    +0.000 C 
ATOM     24  O   UNL     1       2.342   6.887  18.011  0.00  0.00    +0.000 OA
ATOM     25  H   UNL     1       2.853   6.182  21.064  0.00  0.00    +0.000 HD
BRANCH  22  26
ATOM     26  C   UNL     1       3.762   5.037  19.532  0.00  0.00    +0.000 C 
BRANCH  26  27
ATOM     27  C   UNL     1       5.185   5.380  19.063  0.00  0.00    +0.000 C 
BRANCH  27  31
ATOM     28  N   UNL     1       6.358   5.605  15.525  0.00  0.00    +0.000 NA
ATOM     29  C   UNL     1       5.008   5.217  15.989  0.00  0.00    +0.000 C 
ATOM     30  C   UNL     1       5.014   4.052  17.005  0.00  0.00    +0.000 C 
ATOM     31  N   UNL     1       5.808   4.332  18.222  0.00  0.00    +0.000 NA
ATOM     32  C   UNL     1       7.170   4.747  17.798  0.00  0.00    +0.000 C 
ATOM     33  C   UNL     1       7.204   5.864  16.718  0.00  0.00    +0.000 C 
BRANCH  28  34
ATOM     34  C   UNL     1       6.978   4.578  14.668  0.00  0.00    +0.000 C 
BRANCH  34  36
ATOM     35  C   UNL     1       6.577   3.649  12.360  0.00  0.00    +0.000 C 
ATOM     36  C   UNL     1       5.975   3.890  13.733  0.00  0.00    +0.000 C 
ENDBRANCH  34  36
ENDBRANCH  28  34
ENDBRANCH  27  31
ENDBRANCH  26  27
ENDBRANCH  22  26
ENDBRANCH   1  23
TORSDOF 8
ENDMDL
MODEL 7
REMARK VINA RESULT:      -7.9      5.703      9.828
REMARK  Name = 
REMARK  10 active torsions:
REMARK  status: ('A' for Active; 'I' for Inactive)
REMARK    1  A    between atoms: C_1  and  C_2
REMARK    2  A    between atoms: C_2  and  C_3
REMARK    3  A    between atoms: C_3  and  N_4
REMARK    4  A    between atoms: N_7  and  C_8
REMARK    5  A    between atoms: C_8  and  C_9
REMARK    6  A    between atoms: C_9  and  N_10
REMARK    7  A    between atoms: C_11  and  C_13
REMARK    8  A    between atoms: C_17  and  N_18
REMARK    9  A    between atoms: C_23  and  C_24
REMARK   10  A    between atoms: C_27  and  C_28
REMARK                            x       y       z     vdW  Elec       q    Type
REMARK                         _______ _______ _______ _____ _____    ______ ____
ROOT
ATOM      1  C   UNL     1       7.457   6.920  17.497  0.00  0.00    +0.000 A 
ATOM      2  C   UNL     1       7.611   6.480  16.180  0.00  0.00    +0.000 A 
ATOM      3  C   UNL     1       7.226   5.186  15.832  0.00  0.00    +0.000 A 
ATOM      4  C   UNL     1       6.672   4.336  16.794  0.00  0.00    +0.000 A 
ATOM      5  C   UNL     1       6.526   4.756  18.122  0.00  0.00    +0.000 A 
ATOM      6  C   UNL     1       6.907   6.065  18.454  0.00  0.00    +0.000 A 
ENDROOT
BRANCH   5   7
ATOM      7  N   UNL     1       5.876   3.932  19.070  0.00  0.00    +0.000 N 
ATOM      8  C   UNL     1       4.534   4.090  19.480  0.00  0.00    +0.000 A 
ATOM      9  C   UNL     1       3.828   2.987  19.904  0.00  0.00    +0.000 A 
ATOM     10  C   UNL     1       2.508   3.201  20.225  0.00  0.00    +0.000 A 
ATOM     11  N   UNL     1       1.918   4.411  20.196  0.00  0.00    +0.000 NA
ATOM     12  C   UNL     1       2.697   5.438  19.812  0.00  0.00    +0.000 A 
ATOM     13  N   UNL     1       3.981   5.309  19.439  0.00  0.00    +0.000 NA
ATOM     14  H   UNL     1       6.459   3.704  19.870  0.00  0.00    +0.000 HD
BRANCH  12  15
ATOM     15  C   UNL     1       2.145   6.802  19.840  0.00  0.00    +0.000 A 
ATOM     16  C   UNL     1       2.269   7.672  18.743  0.00  0.00    +0.000 A 
ATOM     17  C   UNL     1       1.698   8.949  18.756  0.00  0.00    +0.000 A 
ATOM     18  C   UNL     1       0.983   9.394  19.871  0.00  0.00    +0.000 A 
ATOM     19  C   UNL     1       0.332  10.743  19.888  0.00  0.00    +0.000 C 
ATOM     20  C   UNL     1       0.863   8.553  20.979  0.00  0.00    +0.000 A 
ATOM     21  C   UNL     1       1.437   7.280  20.962  0.00  0.00    +0.000 A 
ENDBRANCH  12  15
ENDBRANCH   5   7
BRANCH   1  23
ATOM     22  N   UNL     1       8.721   8.548  18.790  0.00  0.00    +0.000 N 
ATOM     23  C   UNL     1       7.762   8.332  17.830  0.00  0.00    +0.000 C 
ATOM     24  O   UNL     1       7.165   9.240  17.257  0.00  0.00    +0.000 OA
ATOM     25  H   UNL     1       9.381   7.814  19.030  0.00  0.00    +0.000 HD
BRANCH  22  26
ATOM     26  C   UNL     1       9.043   9.897  19.205  0.00  0.00    +0.000 C 
BRANCH  26  27
ATOM     27  C   UNL     1      10.192  10.512  18.389  0.00  0.00    +0.000 C 
BRANCH  27  31
ATOM     28  N   UNL     1      11.222  13.803  19.819  0.00  0.00    +0.000 NA
ATOM     29  C   UNL     1       9.986  13.052  20.124  0.00  0.00    +0.000 C 
ATOM     30  C   UNL     1       9.158  12.686  18.870  0.00  0.00    +0.000 C 
ATOM     31  N   UNL     1       9.906  11.875  17.884  0.00  0.00    +0.000 NA
ATOM     32  C   UNL     1      11.171  12.586  17.566  0.00  0.00    +0.000 C 
ATOM     33  C   UNL     1      11.993  13.041  18.804  0.00  0.00    +0.000 C 
BRANCH  28  34
ATOM     34  C   UNL     1      10.949  15.170  19.338  0.00  0.00    +0.000 C 
BRANCH  34  36
ATOM     35  C   UNL     1      11.122  16.219  21.623  0.00  0.00    +0.000 C 
ATOM     36  C   UNL     1      11.623  16.253  20.190  0.00  0.00    +0.000 C 
ENDBRANCH  34  36
ENDBRANCH  28  34
ENDBRANCH  27  31
ENDBRANCH  26  27
ENDBRANCH  22  26
ENDBRANCH   1  23
TORSDOF 8
ENDMDL
MODEL 8
REMARK VINA RESULT:      -7.9      2.013      3.180
REMARK  Name = 
REMARK  10 active torsions:
REMARK  status: ('A' for Active; 'I' for Inactive)
REMARK    1  A    between atoms: C_1  and  C_2
REMARK    2  A    between atoms: C_2  and  C_3
REMARK    3  A    between atoms: C_3  and  N_4
REMARK    4  A    between atoms: N_7  and  C_8
REMARK    5  A    between atoms: C_8  and  C_9
REMARK    6  A    between atoms: C_9  and  N_10
REMARK    7  A    between atoms: C_11  and  C_13
REMARK    8  A    between atoms: C_17  and  N_18
REMARK    9  A    between atoms: C_23  and  C_24
REMARK   10  A    between atoms: C_27  and  C_28
REMARK                            x       y       z     vdW  Elec       q    Type
REMARK                         _______ _______ _______ _____ _____    ______ ____
ROOT
ATOM      1  C   UNL     1       1.593   8.250  19.630  0.00  0.00    +0.000 A 
ATOM      2  C   UNL     1       1.501   8.635  18.291  0.00  0.00    +0.000 A 
ATOM      3  C   UNL     1       1.049   9.914  17.968  0.00  0.00    +0.000 A 
ATOM      4  C   UNL     1       0.704  10.814  18.982  0.00  0.00    +0.000 A 
ATOM      5  C   UNL     1       0.775  10.437  20.328  0.00  0.00    +0.000 A 
ATOM      6  C   UNL     1       1.243   9.151  20.638  0.00  0.00    +0.000 A 
ENDROOT
BRANCH   5   7
ATOM      7  N   UNL     1       0.521  11.378  21.353  0.00  0.00    +0.000 N 
ATOM      8  C   UNL     1      -0.760  11.869  21.688  0.00  0.00    +0.000 A 
ATOM      9  C   UNL     1      -1.005  12.276  22.980  0.00  0.00    +0.000 A 
ATOM     10  C   UNL     1      -2.291  12.680  23.253  0.00  0.00    +0.000 A 
ATOM     11  N   UNL     1      -3.267  12.744  22.328  0.00  0.00    +0.000 NA
ATOM     12  C   UNL     1      -2.925  12.369  21.082  0.00  0.00    +0.000 A 
ATOM     13  N   UNL     1      -1.705  11.919  20.741  0.00  0.00    +0.000 NA
ATOM     14  H   UNL     1       1.200  12.132  21.383  0.00  0.00    +0.000 HD
BRANCH  12  15
ATOM     15  C   UNL     1      -3.915  12.495  20.002  0.00  0.00    +0.000 A 
ATOM     16  C   UNL     1      -3.785  11.787  18.793  0.00  0.00    +0.000 A 
ATOM     17  C   UNL     1      -4.756  11.872  17.791  0.00  0.00    +0.000 A 
ATOM     18  C   UNL     1      -5.890  12.670  17.967  0.00  0.00    +0.000 A 
ATOM     19  C   UNL     1      -6.959  12.742  16.920  0.00  0.00    +0.000 C 
ATOM     20  C   UNL     1      -6.030  13.396  19.151  0.00  0.00    +0.000 A 
ATOM     21  C   UNL     1      -5.057  13.310  20.149  0.00  0.00    +0.000 A 
ENDBRANCH  12  15
ENDBRANCH   5   7
BRANCH   1  23
ATOM     22  N   UNL     1       3.380   6.619  19.372  0.00  0.00    +0.000 N 
ATOM     23  C   UNL     1       2.182   6.932  19.966  0.00  0.00    +0.000 C 
ATOM     24  O   UNL     1       1.599   6.179  20.742  0.00  0.00    +0.000 OA
ATOM     25  H   UNL     1       3.963   7.352  18.976  0.00  0.00    +0.000 HD
BRANCH  22  26
ATOM     26  C   UNL     1       3.998   5.332  19.612  0.00  0.00    +0.000 C 
BRANCH  26  27
ATOM     27  C   UNL     1       5.513   5.342  19.348  0.00  0.00    +0.000 C 
BRANCH  27  31
ATOM     28  N   UNL     1       6.048   5.372  15.653  0.00  0.00    +0.000 NA
ATOM     29  C   UNL     1       4.799   5.025  16.365  0.00  0.00    +0.000 C 
ATOM     30  C   UNL     1       4.978   3.913  17.424  0.00  0.00    +0.000 C 
ATOM     31  N   UNL     1       5.975   4.244  18.467  0.00  0.00    +0.000 NA
ATOM     32  C   UNL     1       7.243   4.620  17.791  0.00  0.00    +0.000 C 
ATOM     33  C   UNL     1       7.091   5.680  16.664  0.00  0.00    +0.000 C 
BRANCH  28  34
ATOM     34  C   UNL     1       6.504   4.295  14.755  0.00  0.00    +0.000 C 
BRANCH  34  36
ATOM     35  C   UNL     1       6.351   3.376  12.414  0.00  0.00    +0.000 C 
ATOM     36  C   UNL     1       5.627   4.141  13.507  0.00  0.00    +0.000 C 
ENDBRANCH  34  36
ENDBRANCH  28  34
ENDBRANCH  27  31
ENDBRANCH  26  27
ENDBRANCH  22  26
ENDBRANCH   1  23
TORSDOF 8
ENDMDL
MODEL 9
REMARK VINA RESULT:      -7.8      1.590      2.559
REMARK  Name = 
REMARK  10 active torsions:
REMARK  status: ('A' for Active; 'I' for Inactive)
REMARK    1  A    between atoms: C_1  and  C_2
REMARK    2  A    between atoms: C_2  and  C_3
REMARK    3  A    between atoms: C_3  and  N_4
REMARK    4  A    between atoms: N_7  and  C_8
REMARK    5  A    between atoms: C_8  and  C_9
REMARK    6  A    between atoms: C_9  and  N_10
REMARK    7  A    between atoms: C_11  and  C_13
REMARK    8  A    between atoms: C_17  and  N_18
REMARK    9  A    between atoms: C_23  and  C_24
REMARK   10  A    between atoms: C_27  and  C_28
REMARK                            x       y       z     vdW  Elec       q    Type
REMARK                         _______ _______ _______ _____ _____    ______ ____
ROOT
ATOM      1  C   UNL     1       0.880  10.014  20.590  0.00  0.00    +0.000 A 
ATOM      2  C   UNL     1       1.087   9.157  21.674  0.00  0.00    +0.000 A 
ATOM      3  C   UNL     1       0.408   9.379  22.872  0.00  0.00    +0.000 A 
ATOM      4  C   UNL     1      -0.489  10.446  22.983  0.00  0.00    +0.000 A 
ATOM      5  C   UNL     1      -0.695  11.323  21.911  0.00  0.00    +0.000 A 
ATOM      6  C   UNL     1      -0.013  11.080  20.709  0.00  0.00    +0.000 A 
ENDROOT
BRANCH   5   7
ATOM      7  N   UNL     1      -1.674  12.340  21.992  0.00  0.00    +0.000 N 
ATOM      8  C   UNL     1      -2.823  12.410  21.174  0.00  0.00    +0.000 A 
ATOM      9  C   UNL     1      -3.957  13.020  21.661  0.00  0.00    +0.000 A 
ATOM     10  C   UNL     1      -5.059  12.994  20.838  0.00  0.00    +0.000 A 
ATOM     11  N   UNL     1      -5.055  12.466  19.600  0.00  0.00    +0.000 NA
ATOM     12  C   UNL     1      -3.890  11.931  19.190  0.00  0.00    +0.000 A 
ATOM     13  N   UNL     1      -2.781  11.875  19.947  0.00  0.00    +0.000 NA
ATOM     14  H   UNL     1      -1.280  13.267  22.116  0.00  0.00    +0.000 HD
BRANCH  12  15
ATOM     15  C   UNL     1      -3.786  11.414  17.816  0.00  0.00    +0.000 A 
ATOM     16  C   UNL     1      -4.727  11.752  16.826  0.00  0.00    +0.000 A 
ATOM     17  C   UNL     1      -4.594  11.298  15.510  0.00  0.00    +0.000 A 
ATOM     18  C   UNL     1      -3.515  10.489  15.144  0.00  0.00    +0.000 A 
ATOM     19  C   UNL     1      -3.336  10.027  13.730  0.00  0.00    +0.000 C 
ATOM     20  C   UNL     1      -2.580  10.127  16.115  0.00  0.00    +0.000 A 
ATOM     21  C   UNL     1      -2.716  10.581  17.429  0.00  0.00    +0.000 A 
ENDBRANCH  12  15
ENDBRANCH   5   7
BRANCH   1  23
ATOM     22  N   UNL     1       1.852   8.390  19.061  0.00  0.00    +0.000 N 
ATOM     23  C   UNL     1       1.518   9.703  19.288  0.00  0.00    +0.000 C 
ATOM     24  O   UNL     1       1.723  10.601  18.476  0.00  0.00    +0.000 OA
ATOM     25  H   UNL     1       1.424   7.649  19.608  0.00  0.00    +0.000 HD
BRANCH  22  26
ATOM     26  C   UNL     1       2.520   8.012  17.833  0.00  0.00    +0.000 C 
BRANCH  26  27
ATOM     27  C   UNL     1       3.575   6.914  18.045  0.00  0.00    +0.000 C 
BRANCH  27  31
ATOM     28  N   UNL     1       3.367   3.207  18.444  0.00  0.00    +0.000 NA
ATOM     29  C   UNL     1       2.245   4.136  18.192  0.00  0.00    +0.000 C 
ATOM     30  C   UNL     1       2.155   5.291  19.217  0.00  0.00    +0.000 C 
ATOM     31  N   UNL     1       3.377   6.122  19.281  0.00  0.00    +0.000 NA
ATOM     32  C   UNL     1       4.536   5.221  19.512  0.00  0.00    +0.000 C 
ATOM     33  C   UNL     1       4.616   4.003  18.550  0.00  0.00    +0.000 C 
BRANCH  28  34
ATOM     34  C   UNL     1       3.169   2.397  19.660  0.00  0.00    +0.000 C 
BRANCH  34  36
ATOM     35  C   UNL     1       1.504   2.605  21.540  0.00  0.00    +0.000 C 
ATOM     36  C   UNL     1       1.695   2.279  20.070  0.00  0.00    +0.000 C 
ENDBRANCH  34  36
ENDBRANCH  28  34
ENDBRANCH  27  31
ENDBRANCH  26  27
ENDBRANCH  22  26
ENDBRANCH   1  23
TORSDOF 8
ENDMDL
