MODEL 1
REMARK VINA RESULT:      -8.1      0.000      0.000
REMARK  Name = 
REMARK  12 active torsions:
REMARK  status: ('A' for Active; 'I' for Inactive)
REMARK    1  A    between atoms: C_1  and  O_2
REMARK    2  A    between atoms: O_2  and  C_3
REMARK    3  A    between atoms: C_6  and  N_7
REMARK    4  A    between atoms: N_7  and  C_8
REMARK    5  A    between atoms: C_9  and  C_11
REMARK    6  A    between atoms: C_11  and  C_12
REMARK    7  A    between atoms: C_11  and  N_19
REMARK    8  A    between atoms: C_12  and  C_13
REMARK    9  A    between atoms: C_20  and  C_22
REMARK   10  A    between atoms: C_22  and  N_23
REMARK   11  A    between atoms: C_25  and  C_26
REMARK   12  A    between atoms: C_31  and  N_32
REMARK                            x       y       z     vdW  Elec       q    Type
REMARK                         _______ _______ _______ _____ _____    ______ ____
ROOT
ATOM      1  C   UNL     1       2.303   7.064  19.759  0.00  0.00    +0.000 C 
ENDROOT
BRANCH   1   4
ATOM      2  N   UNL     1       4.085   5.870  18.362  0.00  0.00    +0.000 N 
ATOM      3  C   UNL     1       4.855   5.718  19.599  0.00  0.00    +0.000 C 
ATOM      4  C   UNL     1       2.856   6.578  18.383  0.00  0.00    +0.000 C 
ATOM      5  O   UNL     1       2.152   6.790  17.387  0.00  0.00    +0.000 OA
BRANCH   2   9
ATOM      6  C   UNL     1       5.840   4.298  14.743  0.00  0.00    +0.000 A 
ATOM      7  C   UNL     1       5.711   5.668  14.934  0.00  0.00    +0.000 A 
ATOM      8  C   UNL     1       5.149   6.183  16.114  0.00  0.00    +0.000 A 
ATOM      9  C   UNL     1       4.664   5.348  17.132  0.00  0.00    +0.000 A 
ATOM     10  C   UNL     1       4.781   3.964  16.899  0.00  0.00    +0.000 A 
ATOM     11  C   UNL     1       5.368   3.443  15.730  0.00  0.00    +0.000 A 
BRANCH   6  13
ATOM     12  C   UNL     1       5.483   3.418  12.577  0.00  0.00    +0.000 C 
ATOM     13  O   UNL     1       6.391   3.918  13.552  0.00  0.00    +0.000 OA
ENDBRANCH   6  13
ENDBRANCH   2   9
ENDBRANCH   1   4
BRANCH   1  14
ATOM     14  N   UNL     1       1.744   8.416  19.590  0.00  0.00    +0.000 N 
ATOM     15  C   UNL     1       1.309   9.151  20.674  0.00  0.00    +0.000 C 
ATOM     16  O   UNL     1       1.249   8.679  21.808  0.00  0.00    +0.000 OA
ATOM     17  H   UNL     1       2.039   8.901  18.746  0.00  0.00    +0.000 HD
BRANCH  15  18
ATOM     18  C   UNL     1       0.926  10.585  20.392  0.00  0.00    +0.000 C 
BRANCH  18  19
ATOM     19  N   UNL     1      -0.245  10.654  19.548  0.00  0.00    +0.000 N 
ATOM     20  C   UNL     1      -1.419  11.310  19.784  0.00  0.00    +0.000 A 
ATOM     21  C   UNL     1      -2.151  11.111  18.633  0.00  0.00    +0.000 A 
ATOM     22  N   UNL     1      -1.401  10.367  17.753  0.00  0.00    +0.000 NA
ATOM     23  N   UNL     1      -0.231  10.101  18.322  0.00  0.00    +0.000 NA
BRANCH  21  24
ATOM     24  C   UNL     1      -3.497  11.600  18.356  0.00  0.00    +0.000 A 
ATOM     25  C   UNL     1      -4.303  12.054  19.418  0.00  0.00    +0.000 A 
ATOM     26  C   UNL     1      -5.597  12.525  19.191  0.00  0.00    +0.000 A 
ATOM     27  C   UNL     1      -6.112  12.538  17.899  0.00  0.00    +0.000 A 
ATOM     28  C   UNL     1      -5.324  12.097  16.834  0.00  0.00    +0.000 A 
ATOM     29  C   UNL     1      -4.002  11.670  17.037  0.00  0.00    +0.000 A 
BRANCH  29  30
ATOM     30  N   UNL     1      -3.320  11.108  15.936  0.00  0.00    +0.000 N 
ATOM     31  H   UNL     1      -2.487  11.622  15.667  0.00  0.00    +0.000 HD
ATOM     32  H   UNL     1      -3.127  10.113  16.073  0.00  0.00    +0.000 HD
ENDBRANCH  29  30
ENDBRANCH  21  24
ENDBRANCH  18  19
ENDBRANCH  15  18
ENDBRANCH   1  14
BRANCH   1  33
ATOM     33  C   UNL     1       1.281   6.111  20.411  0.00  0.00    +0.000 C 
BRANCH  33  34
ATOM     34  C   UNL     1       1.566   4.627  20.363  0.00  0.00    +0.000 A 
ATOM     35  C   UNL     1       2.193   3.967  21.428  0.00  0.00    +0.000 A 
ATOM     36  C   UNL     1       2.435   2.593  21.373  0.00  0.00    +0.000 A 
ATOM     37  C   UNL     1       2.026   1.855  20.266  0.00  0.00    +0.000 A 
ATOM     38  C   UNL     1       1.367   2.489  19.218  0.00  0.00    +0.000 A 
ATOM     39  C   UNL     1       1.139   3.865  19.264  0.00  0.00    +0.000 A 
ENDBRANCH  33  34
ENDBRANCH   1  33
TORSDOF 10
ENDMDL
MODEL 2
REMARK VINA RESULT:      -8.0      1.136      1.826
REMARK  Name = 
REMARK  12 active torsions:
REMARK  status: ('A' for Active; 'I' for Inactive)
REMARK    1  A    between atoms: C_1  and  O_2
REMARK    2  A    between atoms: O_2  and  C_3
REMARK    3  A    between atoms: C_6  and  N_7
REMARK    4  A    between atoms: N_7  and  C_8
REMARK    5  A    between atoms: C_9  and  C_11
REMARK    6  A    between atoms: C_11  and  C_12
REMARK    7  A    between atoms: C_11  and  N_19
REMARK    8  A    between atoms: C_12  and  C_13
REMARK    9  A    between atoms: C_20  and  C_22
REMARK   10  A    between atoms: C_22  and  N_23
REMARK   11  A    between atoms: C_25  and  C_26
REMARK   12  A    between atoms: C_31  and  N_32
REMARK                            x       y       z     vdW  Elec       q    Type
REMARK                         _______ _______ _______ _____ _____    ______ ____
ROOT
ATOM      1  C   UNL     1       2.390   6.885  19.900  0.00  0.00    +0.000 C 
ENDROOT
BRANCH   1   4
ATOM      2  N   UNL     1       4.143   5.746  18.422  0.00  0.00    +0.000 N 
ATOM      3  C   UNL     1       4.807   5.320  19.657  0.00  0.00    +0.000 C 
ATOM      4  C   UNL     1       2.989   6.568  18.494  0.00  0.00    +0.000 C 
ATOM      5  O   UNL     1       2.380   7.008  17.510  0.00  0.00    +0.000 OA
BRANCH   2   9
ATOM      6  C   UNL     1       5.922   4.657  14.641  0.00  0.00    +0.000 A 
ATOM      7  C   UNL     1       5.396   3.688  15.485  0.00  0.00    +0.000 A 
ATOM      8  C   UNL     1       4.808   4.039  16.712  0.00  0.00    +0.000 A 
ATOM      9  C   UNL     1       4.755   5.368  17.156  0.00  0.00    +0.000 A 
ATOM     10  C   UNL     1       5.323   6.327  16.294  0.00  0.00    +0.000 A 
ATOM     11  C   UNL     1       5.889   5.983  15.052  0.00  0.00    +0.000 A 
BRANCH   6  13
ATOM     12  C   UNL     1       5.612   3.456  12.628  0.00  0.00    +0.000 C 
ATOM     13  O   UNL     1       6.478   4.192  13.483  0.00  0.00    +0.000 OA
ENDBRANCH   6  13
ENDBRANCH   2   9
ENDBRANCH   1   4
BRANCH   1  14
ATOM     14  N   UNL     1       1.999   8.304  19.936  0.00  0.00    +0.000 N 
ATOM     15  C   UNL     1       1.365   8.844  21.035  0.00  0.00    +0.000 C 
ATOM     16  O   UNL     1       0.985   8.155  21.980  0.00  0.00    +0.000 OA
ATOM     17  H   UNL     1       2.534   8.913  19.321  0.00  0.00    +0.000 HD
BRANCH  15  18
ATOM     18  C   UNL     1       1.178  10.343  21.024  0.00  0.00    +0.000 C 
BRANCH  18  19
ATOM     19  N   UNL     1      -0.000  10.715  20.274  0.00  0.00    +0.000 N 
ATOM     20  C   UNL     1      -0.379  10.290  19.034  0.00  0.00    +0.000 A 
ATOM     21  C   UNL     1      -1.605  10.890  18.835  0.00  0.00    +0.000 A 
ATOM     22  N   UNL     1      -1.922  11.630  19.949  0.00  0.00    +0.000 NA
ATOM     23  N   UNL     1      -0.935  11.507  20.828  0.00  0.00    +0.000 NA
BRANCH  21  24
ATOM     24  C   UNL     1      -2.456  10.773  17.656  0.00  0.00    +0.000 A 
ATOM     25  C   UNL     1      -2.052   9.951  16.587  0.00  0.00    +0.000 A 
ATOM     26  C   UNL     1      -2.838   9.818  15.441  0.00  0.00    +0.000 A 
ATOM     27  C   UNL     1      -4.037  10.517  15.340  0.00  0.00    +0.000 A 
ATOM     28  C   UNL     1      -4.455  11.332  16.393  0.00  0.00    +0.000 A 
ATOM     29  C   UNL     1      -3.703  11.436  17.575  0.00  0.00    +0.000 A 
BRANCH  29  30
ATOM     30  N   UNL     1      -4.118  12.385  18.534  0.00  0.00    +0.000 N 
ATOM     31  H   UNL     1      -4.549  13.210  18.132  0.00  0.00    +0.000 HD
ATOM     32  H   UNL     1      -4.702  11.964  19.260  0.00  0.00    +0.000 HD
ENDBRANCH  29  30
ENDBRANCH  21  24
ENDBRANCH  18  19
ENDBRANCH  15  18
ENDBRANCH   1  14
BRANCH   1  33
ATOM     33  C   UNL     1       1.222   5.970  20.319  0.00  0.00    +0.000 C 
BRANCH  33  34
ATOM     34  C   UNL     1       1.403   4.476  20.170  0.00  0.00    +0.000 A 
ATOM     35  C   UNL     1       1.780   3.673  21.255  0.00  0.00    +0.000 A 
ATOM     36  C   UNL     1       1.929   2.293  21.103  0.00  0.00    +0.000 A 
ATOM     37  C   UNL     1       1.673   1.693  19.873  0.00  0.00    +0.000 A 
ATOM     38  C   UNL     1       1.260   2.472  18.797  0.00  0.00    +0.000 A 
ATOM     39  C   UNL     1       1.127   3.854  18.943  0.00  0.00    +0.000 A 
ENDBRANCH  33  34
ENDBRANCH   1  33
TORSDOF 10
ENDMDL
MODEL 3
REMARK VINA RESULT:      -8.0      0.635      1.303
REMARK  Name = 
REMARK  12 active torsions:
REMARK  status: ('A' for Active; 'I' for Inactive)
REMARK    1  A    between atoms: C_1  and  O_2
REMARK    2  A    between atoms: O_2  and  C_3
REMARK    3  A    between atoms: C_6  and  N_7
REMARK    4  A    between atoms: N_7  and  C_8
REMARK    5  A    between atoms: C_9  and  C_11
REMARK    6  A    between atoms: C_11  and  C_12
REMARK    7  A    between atoms: C_11  and  N_19
REMARK    8  A    between atoms: C_12  and  C_13
REMARK    9  A    between atoms: C_20  and  C_22
REMARK   10  A    between atoms: C_22  and  N_23
REMARK   11  A    between atoms: C_25  and  C_26
REMARK   12  A    between atoms: C_31  and  N_32
REMARK                            x       y       z     vdW  Elec       q    Type
REMARK                         _______ _______ _______ _____ _____    ______ ____
ROOT
ATOM      1  C   UNL     1       2.216   7.004  19.943  0.00  0.00    +0.000 C 
ENDROOT
BRANCH   1   4
ATOM      2  N   UNL     1       3.991   5.872  18.485  0.00  0.00    +0.000 N 
ATOM      3  C   UNL     1       4.595   5.377  19.726  0.00  0.00    +0.000 C 
ATOM      4  C   UNL     1       2.859   6.725  18.549  0.00  0.00    +0.000 C 
ATOM      5  O   UNL     1       2.301   7.223  17.562  0.00  0.00    +0.000 OA
BRANCH   2   9
ATOM      6  C   UNL     1       5.874   4.872  14.730  0.00  0.00    +0.000 A 
ATOM      7  C   UNL     1       5.500   3.879  15.625  0.00  0.00    +0.000 A 
ATOM      8  C   UNL     1       4.879   4.200  16.844  0.00  0.00    +0.000 A 
ATOM      9  C   UNL     1       4.639   5.527  17.228  0.00  0.00    +0.000 A 
ATOM     10  C   UNL     1       5.055   6.516  16.315  0.00  0.00    +0.000 A 
ATOM     11  C   UNL     1       5.654   6.197  15.081  0.00  0.00    +0.000 A 
BRANCH   6  13
ATOM     12  C   UNL     1       5.754   3.483  12.820  0.00  0.00    +0.000 C 
ATOM     13  O   UNL     1       6.479   4.438  13.586  0.00  0.00    +0.000 OA
ENDBRANCH   6  13
ENDBRANCH   2   9
ENDBRANCH   1   4
BRANCH   1  14
ATOM     14  N   UNL     1       1.771   8.408  19.984  0.00  0.00    +0.000 N 
ATOM     15  C   UNL     1       1.356   8.993  21.162  0.00  0.00    +0.000 C 
ATOM     16  O   UNL     1       1.218   8.351  22.202  0.00  0.00    +0.000 OA
ATOM     17  H   UNL     1       2.134   8.996  19.237  0.00  0.00    +0.000 HD
BRANCH  15  18
ATOM     18  C   UNL     1       1.096  10.479  21.109  0.00  0.00    +0.000 C 
BRANCH  18  19
ATOM     19  N   UNL     1       0.187  10.810  20.035  0.00  0.00    +0.000 N 
ATOM     20  C   UNL     1      -1.177  10.839  20.063  0.00  0.00    +0.000 A 
ATOM     21  C   UNL     1      -1.528  11.288  18.806  0.00  0.00    +0.000 A 
ATOM     22  N   UNL     1      -0.382  11.523  18.084  0.00  0.00    +0.000 NA
ATOM     23  N   UNL     1       0.663  11.236  18.851  0.00  0.00    +0.000 NA
BRANCH  21  24
ATOM     24  C   UNL     1      -2.878  11.498  18.297  0.00  0.00    +0.000 A 
ATOM     25  C   UNL     1      -3.877  11.991  19.161  0.00  0.00    +0.000 A 
ATOM     26  C   UNL     1      -5.181  12.201  18.710  0.00  0.00    +0.000 A 
ATOM     27  C   UNL     1      -5.512  11.909  17.390  0.00  0.00    +0.000 A 
ATOM     28  C   UNL     1      -4.533  11.426  16.520  0.00  0.00    +0.000 A 
ATOM     29  C   UNL     1      -3.204  11.259  16.942  0.00  0.00    +0.000 A 
BRANCH  29  30
ATOM     30  N   UNL     1      -2.307  10.637  16.049  0.00  0.00    +0.000 N 
ATOM     31  H   UNL     1      -2.607   9.716  15.744  0.00  0.00    +0.000 HD
ATOM     32  H   UNL     1      -2.071  11.243  15.259  0.00  0.00    +0.000 HD
ENDBRANCH  29  30
ENDBRANCH  21  24
ENDBRANCH  18  19
ENDBRANCH  15  18
ENDBRANCH   1  14
BRANCH   1  33
ATOM     33  C   UNL     1       1.075   6.041  20.327  0.00  0.00    +0.000 C 
BRANCH  33  34
ATOM     34  C   UNL     1       1.324   4.556  20.186  0.00  0.00    +0.000 A 
ATOM     35  C   UNL     1       1.146   3.897  18.963  0.00  0.00    +0.000 A 
ATOM     36  C   UNL     1       1.394   2.528  18.848  0.00  0.00    +0.000 A 
ATOM     37  C   UNL     1       1.852   1.805  19.946  0.00  0.00    +0.000 A 
ATOM     38  C   UNL     1       2.071   2.453  21.158  0.00  0.00    +0.000 A 
ATOM     39  C   UNL     1       1.808   3.819  21.278  0.00  0.00    +0.000 A 
ENDBRANCH  33  34
ENDBRANCH   1  33
TORSDOF 10
ENDMDL
MODEL 4
REMARK VINA RESULT:      -8.0      1.240      1.870
REMARK  Name = 
REMARK  12 active torsions:
REMARK  status: ('A' for Active; 'I' for Inactive)
REMARK    1  A    between atoms: C_1  and  O_2
REMARK    2  A    between atoms: O_2  and  C_3
REMARK    3  A    between atoms: C_6  and  N_7
REMARK    4  A    between atoms: N_7  and  C_8
REMARK    5  A    between atoms: C_9  and  C_11
REMARK    6  A    between atoms: C_11  and  C_12
REMARK    7  A    between atoms: C_11  and  N_19
REMARK    8  A    between atoms: C_12  and  C_13
REMARK    9  A    between atoms: C_20  and  C_22
REMARK   10  A    between atoms: C_22  and  N_23
REMARK   11  A    between atoms: C_25  and  C_26
REMARK   12  A    between atoms: C_31  and  N_32
REMARK                            x       y       z     vdW  Elec       q    Type
REMARK                         _______ _______ _______ _____ _____    ______ ____
ROOT
ATOM      1  C   UNL     1       2.415   6.755  20.092  0.00  0.00    +0.000 C 
ENDROOT
BRANCH   1   4
ATOM      2  N   UNL     1       4.200   5.682  18.603  0.00  0.00    +0.000 N 
ATOM      3  C   UNL     1       4.744   5.067  19.818  0.00  0.00    +0.000 C 
ATOM      4  C   UNL     1       3.095   6.567  18.700  0.00  0.00    +0.000 C 
ATOM      5  O   UNL     1       2.589   7.162  17.741  0.00  0.00    +0.000 OA
BRANCH   2   9
ATOM      6  C   UNL     1       6.228   4.845  14.885  0.00  0.00    +0.000 A 
ATOM      7  C   UNL     1       6.588   5.940  15.660  0.00  0.00    +0.000 A 
ATOM      8  C   UNL     1       5.936   6.209  16.875  0.00  0.00    +0.000 A 
ATOM      9  C   UNL     1       4.879   5.416  17.343  0.00  0.00    +0.000 A 
ATOM     10  C   UNL     1       4.515   4.330  16.522  0.00  0.00    +0.000 A 
ATOM     11  C   UNL     1       5.183   4.040  15.317  0.00  0.00    +0.000 A 
BRANCH   6  13
ATOM     12  C   UNL     1       6.413   3.730  12.807  0.00  0.00    +0.000 C 
ATOM     13  O   UNL     1       6.925   4.693  13.720  0.00  0.00    +0.000 OA
ENDBRANCH   6  13
ENDBRANCH   2   9
ENDBRANCH   1   4
BRANCH   1  14
ATOM     14  N   UNL     1       2.083   8.180  20.265  0.00  0.00    +0.000 N 
ATOM     15  C   UNL     1       1.087   8.583  21.130  0.00  0.00    +0.000 C 
ATOM     16  O   UNL     1       0.349   7.782  21.702  0.00  0.00    +0.000 OA
ATOM     17  H   UNL     1       2.833   8.827  20.034  0.00  0.00    +0.000 HD
BRANCH  15  18
ATOM     18  C   UNL     1       0.964  10.072  21.353  0.00  0.00    +0.000 C 
BRANCH  18  19
ATOM     19  N   UNL     1       0.018  10.659  20.431  0.00  0.00    +0.000 N 
ATOM     20  C   UNL     1      -0.640  10.055  19.399  0.00  0.00    +0.000 A 
ATOM     21  C   UNL     1      -1.466  11.043  18.905  0.00  0.00    +0.000 A 
ATOM     22  N   UNL     1      -1.290  12.183  19.654  0.00  0.00    +0.000 NA
ATOM     23  N   UNL     1      -0.384  11.932  20.592  0.00  0.00    +0.000 NA
BRANCH  21  24
ATOM     24  C   UNL     1      -2.391  10.931  17.784  0.00  0.00    +0.000 A 
ATOM     25  C   UNL     1      -2.014  10.195  16.643  0.00  0.00    +0.000 A 
ATOM     26  C   UNL     1      -2.872  10.070  15.550  0.00  0.00    +0.000 A 
ATOM     27  C   UNL     1      -4.118  10.690  15.572  0.00  0.00    +0.000 A 
ATOM     28  C   UNL     1      -4.509  11.419  16.697  0.00  0.00    +0.000 A 
ATOM     29  C   UNL     1      -3.680  11.511  17.828  0.00  0.00    +0.000 A 
BRANCH  29  30
ATOM     30  N   UNL     1      -4.084  12.377  18.866  0.00  0.00    +0.000 N 
ATOM     31  H   UNL     1      -4.497  13.244  18.537  0.00  0.00    +0.000 HD
ATOM     32  H   UNL     1      -4.681  11.904  19.549  0.00  0.00    +0.000 HD
ENDBRANCH  29  30
ENDBRANCH  21  24
ENDBRANCH  18  19
ENDBRANCH  15  18
ENDBRANCH   1  14
BRANCH   1  33
ATOM     33  C   UNL     1       1.183   5.859  20.329  0.00  0.00    +0.000 C 
BRANCH  33  34
ATOM     34  C   UNL     1       1.332   4.373  20.094  0.00  0.00    +0.000 A 
ATOM     35  C   UNL     1       1.213   3.819  18.812  0.00  0.00    +0.000 A 
ATOM     36  C   UNL     1       1.368   2.446  18.611  0.00  0.00    +0.000 A 
ATOM     37  C   UNL     1       1.673   1.612  19.683  0.00  0.00    +0.000 A 
ATOM     38  C   UNL     1       1.833   2.152  20.955  0.00  0.00    +0.000 A 
ATOM     39  C   UNL     1       1.662   3.523  21.161  0.00  0.00    +0.000 A 
ENDBRANCH  33  34
ENDBRANCH   1  33
TORSDOF 10
ENDMDL
MODEL 5
REMARK VINA RESULT:      -7.9      2.941      3.960
REMARK  Name = 
REMARK  12 active torsions:
REMARK  status: ('A' for Active; 'I' for Inactive)
REMARK    1  A    between atoms: C_1  and  O_2
REMARK    2  A    between atoms: O_2  and  C_3
REMARK    3  A    between atoms: C_6  and  N_7
REMARK    4  A    between atoms: N_7  and  C_8
REMARK    5  A    between atoms: C_9  and  C_11
REMARK    6  A    between atoms: C_11  and  C_12
REMARK    7  A    between atoms: C_11  and  N_19
REMARK    8  A    between atoms: C_12  and  C_13
REMARK    9  A    between atoms: C_20  and  C_22
REMARK   10  A    between atoms: C_22  and  N_23
REMARK   11  A    between atoms: C_25  and  C_26
REMARK   12  A    between atoms: C_31  and  N_32
REMARK                            x       y       z     vdW  Elec       q    Type
REMARK                         _______ _______ _______ _____ _____    ______ ____
ROOT
ATOM      1  C   UNL     1       2.584   6.704  19.792  0.00  0.00    +0.000 C 
ENDROOT
BRANCH   1   4
ATOM      2  N   UNL     1       4.405   5.776  18.249  0.00  0.00    +0.000 N 
ATOM      3  C   UNL     1       5.299   5.790  19.410  0.00  0.00    +0.000 C 
ATOM      4  C   UNL     1       3.082   6.274  18.377  0.00  0.00    +0.000 C 
ATOM      5  O   UNL     1       2.266   6.338  17.449  0.00  0.00    +0.000 OA
BRANCH   2   9
ATOM      6  C   UNL     1       6.056   4.401  14.504  0.00  0.00    +0.000 A 
ATOM      7  C   UNL     1       5.836   5.753  14.730  0.00  0.00    +0.000 A 
ATOM      8  C   UNL     1       5.308   6.205  15.951  0.00  0.00    +0.000 A 
ATOM      9  C   UNL     1       4.948   5.320  16.978  0.00  0.00    +0.000 A 
ATOM     10  C   UNL     1       5.153   3.952  16.710  0.00  0.00    +0.000 A 
ATOM     11  C   UNL     1       5.707   3.497  15.498  0.00  0.00    +0.000 A 
BRANCH   6  13
ATOM     12  C   UNL     1       5.702   3.338  12.421  0.00  0.00    +0.000 C 
ATOM     13  O   UNL     1       6.561   4.083  13.276  0.00  0.00    +0.000 OA
ENDBRANCH   6  13
ENDBRANCH   2   9
ENDBRANCH   1   4
BRANCH   1  14
ATOM     14  N   UNL     1       1.523   7.713  19.631  0.00  0.00    +0.000 N 
ATOM     15  C   UNL     1       1.225   8.605  20.640  0.00  0.00    +0.000 C 
ATOM     16  O   UNL     1       1.733   8.528  21.758  0.00  0.00    +0.000 OA
ATOM     17  H   UNL     1       1.309   7.961  18.668  0.00  0.00    +0.000 HD
BRANCH  15  18
ATOM     18  C   UNL     1       0.245   9.700  20.290  0.00  0.00    +0.000 C 
BRANCH  18  19
ATOM     19  N   UNL     1       0.893  10.992  20.277  0.00  0.00    +0.000 N 
ATOM     20  C   UNL     1       1.228  11.757  19.197  0.00  0.00    +0.000 A 
ATOM     21  C   UNL     1       1.745  12.910  19.751  0.00  0.00    +0.000 A 
ATOM     22  N   UNL     1       1.689  12.806  21.121  0.00  0.00    +0.000 NA
ATOM     23  N   UNL     1       1.158  11.630  21.431  0.00  0.00    +0.000 NA
BRANCH  21  24
ATOM     24  C   UNL     1       2.263  14.069  19.035  0.00  0.00    +0.000 A 
ATOM     25  C   UNL     1       3.514  13.986  18.393  0.00  0.00    +0.000 A 
ATOM     26  C   UNL     1       4.044  15.077  17.701  0.00  0.00    +0.000 A 
ATOM     27  C   UNL     1       3.337  16.274  17.651  0.00  0.00    +0.000 A 
ATOM     28  C   UNL     1       2.093  16.372  18.278  0.00  0.00    +0.000 A 
ATOM     29  C   UNL     1       1.521  15.268  18.933  0.00  0.00    +0.000 A 
BRANCH  29  30
ATOM     30  N   UNL     1       0.330  15.484  19.659  0.00  0.00    +0.000 N 
ATOM     31  H   UNL     1       0.362  15.132  20.610  0.00  0.00    +0.000 HD
ATOM     32  H   UNL     1       0.032  16.462  19.623  0.00  0.00    +0.000 HD
ENDBRANCH  29  30
ENDBRANCH  21  24
ENDBRANCH  18  19
ENDBRANCH  15  18
ENDBRANCH   1  14
BRANCH   1  33
ATOM     33  C   UNL     1       2.121   5.539  20.689  0.00  0.00    +0.000 C 
BRANCH  33  34
ATOM     34  C   UNL     1       2.029   4.162  20.072  0.00  0.00    +0.000 A 
ATOM     35  C   UNL     1       3.097   3.257  20.140  0.00  0.00    +0.000 A 
ATOM     36  C   UNL     1       2.990   1.984  19.577  0.00  0.00    +0.000 A 
ATOM     37  C   UNL     1       1.804   1.587  18.964  0.00  0.00    +0.000 A 
ATOM     38  C   UNL     1       0.722   2.460  18.924  0.00  0.00    +0.000 A 
ATOM     39  C   UNL     1       0.833   3.740  19.472  0.00  0.00    +0.000 A 
ENDBRANCH  33  34
ENDBRANCH   1  33
TORSDOF 10
ENDMDL
MODEL 6
REMARK VINA RESULT:      -7.9      2.793      3.775
REMARK  Name = 
REMARK  12 active torsions:
REMARK  status: ('A' for Active; 'I' for Inactive)
REMARK    1  A    between atoms: C_1  and  O_2
REMARK    2  A    between atoms: O_2  and  C_3
REMARK    3  A    between atoms: C_6  and  N_7
REMARK    4  A    between atoms: N_7  and  C_8
REMARK    5  A    between atoms: C_9  and  C_11
REMARK    6  A    between atoms: C_11  and  C_12
REMARK    7  A    between atoms: C_11  and  N_19
REMARK    8  A    between atoms: C_12  and  C_13
REMARK    9  A    between atoms: C_20  and  C_22
REMARK   10  A    between atoms: C_22  and  N_23
REMARK   11  A    between atoms: C_25  and  C_26
REMARK   12  A    between atoms: C_31  and  N_32
REMARK                            x       y       z     vdW  Elec       q    Type
REMARK                         _______ _______ _______ _____ _____    ______ ____
ROOT
ATOM      1  C   UNL     1       2.577   6.634  19.865  0.00  0.00    +0.000 C 
ENDROOT
BRANCH   1   4
ATOM      2  N   UNL     1       4.393   5.749  18.292  0.00  0.00    +0.000 N 
ATOM      3  C   UNL     1       5.303   5.776  19.439  0.00  0.00    +0.000 C 
ATOM      4  C   UNL     1       3.063   6.220  18.441  0.00  0.00    +0.000 C 
ATOM      5  O   UNL     1       2.231   6.271  17.525  0.00  0.00    +0.000 OA
BRANCH   2   9
ATOM      6  C   UNL     1       5.931   4.464  14.467  0.00  0.00    +0.000 A 
ATOM      7  C   UNL     1       5.708   3.549  15.488  0.00  0.00    +0.000 A 
ATOM      8  C   UNL     1       5.198   3.962  16.730  0.00  0.00    +0.000 A 
ATOM      9  C   UNL     1       4.926   5.309  17.010  0.00  0.00    +0.000 A 
ATOM     10  C   UNL     1       5.191   6.219  15.968  0.00  0.00    +0.000 A 
ATOM     11  C   UNL     1       5.675   5.806  14.712  0.00  0.00    +0.000 A 
BRANCH   6  13
ATOM     12  C   UNL     1       5.491   3.392  12.405  0.00  0.00    +0.000 C 
ATOM     13  O   UNL     1       6.439   3.945  13.310  0.00  0.00    +0.000 OA
ENDBRANCH   6  13
ENDBRANCH   2   9
ENDBRANCH   1   4
BRANCH   1  14
ATOM     14  N   UNL     1       1.481   7.608  19.724  0.00  0.00    +0.000 N 
ATOM     15  C   UNL     1       1.230   8.549  20.700  0.00  0.00    +0.000 C 
ATOM     16  O   UNL     1       1.817   8.548  21.781  0.00  0.00    +0.000 OA
ATOM     17  H   UNL     1       1.193   7.795  18.766  0.00  0.00    +0.000 HD
BRANCH  15  18
ATOM     18  C   UNL     1       0.200   9.600  20.359  0.00  0.00    +0.000 C 
BRANCH  18  19
ATOM     19  N   UNL     1       0.790  10.680  19.602  0.00  0.00    +0.000 N 
ATOM     20  C   UNL     1       0.681  12.023  19.822  0.00  0.00    +0.000 A 
ATOM     21  C   UNL     1       1.496  12.586  18.862  0.00  0.00    +0.000 A 
ATOM     22  N   UNL     1       2.069  11.580  18.121  0.00  0.00    +0.000 NA
ATOM     23  N   UNL     1       1.636  10.416  18.590  0.00  0.00    +0.000 NA
BRANCH  21  24
ATOM     24  C   UNL     1       1.740  14.008  18.646  0.00  0.00    +0.000 A 
ATOM     25  C   UNL     1       0.705  14.934  18.881  0.00  0.00    +0.000 A 
ATOM     26  C   UNL     1       0.901  16.301  18.681  0.00  0.00    +0.000 A 
ATOM     27  C   UNL     1       2.132  16.765  18.230  0.00  0.00    +0.000 A 
ATOM     28  C   UNL     1       3.171  15.861  17.998  0.00  0.00    +0.000 A 
ATOM     29  C   UNL     1       3.008  14.488  18.244  0.00  0.00    +0.000 A 
BRANCH  29  30
ATOM     30  N   UNL     1       4.053  13.625  17.854  0.00  0.00    +0.000 N 
ATOM     31  H   UNL     1       3.861  12.644  18.029  0.00  0.00    +0.000 HD
ATOM     32  H   UNL     1       4.345  13.790  16.887  0.00  0.00    +0.000 HD
ENDBRANCH  29  30
ENDBRANCH  21  24
ENDBRANCH  18  19
ENDBRANCH  15  18
ENDBRANCH   1  14
BRANCH   1  33
ATOM     33  C   UNL     1       2.168   5.454  20.770  0.00  0.00    +0.000 C 
BRANCH  33  34
ATOM     34  C   UNL     1       2.018   4.091  20.134  0.00  0.00    +0.000 A 
ATOM     35  C   UNL     1       0.832   3.710  19.491  0.00  0.00    +0.000 A 
ATOM     36  C   UNL     1       0.715   2.453  18.896  0.00  0.00    +0.000 A 
ATOM     37  C   UNL     1       1.792   1.570  18.909  0.00  0.00    +0.000 A 
ATOM     38  C   UNL     1       2.989   1.949  19.508  0.00  0.00    +0.000 A 
ATOM     39  C   UNL     1       3.102   3.200  20.119  0.00  0.00    +0.000 A 
ENDBRANCH  33  34
ENDBRANCH   1  33
TORSDOF 10
ENDMDL
MODEL 7
REMARK VINA RESULT:      -7.8      4.263      9.516
REMARK  Name = 
REMARK  12 active torsions:
REMARK  status: ('A' for Active; 'I' for Inactive)
REMARK    1  A    between atoms: C_1  and  O_2
REMARK    2  A    between atoms: O_2  and  C_3
REMARK    3  A    between atoms: C_6  and  N_7
REMARK    4  A    between atoms: N_7  and  C_8
REMARK    5  A    between atoms: C_9  and  C_11
REMARK    6  A    between atoms: C_11  and  C_12
REMARK    7  A    between atoms: C_11  and  N_19
REMARK    8  A    between atoms: C_12  and  C_13
REMARK    9  A    between atoms: C_20  and  C_22
REMARK   10  A    between atoms: C_22  and  N_23
REMARK   11  A    between atoms: C_25  and  C_26
REMARK   12  A    between atoms: C_31  and  N_32
REMARK                            x       y       z     vdW  Elec       q    Type
REMARK                         _______ _______ _______ _____ _____    ______ ____
ROOT
ATOM      1  C   UNL     1       3.241   6.531  18.191  0.00  0.00    +0.000 C 
ENDROOT
BRANCH   1   4
ATOM      2  N   UNL     1       1.775   8.414  19.118  0.00  0.00    +0.000 N 
ATOM      3  C   UNL     1       1.692   8.931  17.748  0.00  0.00    +0.000 C 
ATOM      4  C   UNL     1       2.575   7.275  19.390  0.00  0.00    +0.000 C 
ATOM      5  O   UNL     1       2.738   6.786  20.515  0.00  0.00    +0.000 OA
BRANCH   2   9
ATOM      6  C   UNL     1      -0.302  10.571  22.229  0.00  0.00    +0.000 A 
ATOM      7  C   UNL     1      -0.041  11.168  21.002  0.00  0.00    +0.000 A 
ATOM      8  C   UNL     1       0.626  10.466  19.984  0.00  0.00    +0.000 A 
ATOM      9  C   UNL     1       1.088   9.154  20.166  0.00  0.00    +0.000 A 
ATOM     10  C   UNL     1       0.836   8.584  21.430  0.00  0.00    +0.000 A 
ATOM     11  C   UNL     1       0.144   9.274  22.443  0.00  0.00    +0.000 A 
BRANCH   6  13
ATOM     12  C   UNL     1      -1.006  12.745  22.838  0.00  0.00    +0.000 C 
ATOM     13  O   UNL     1      -0.946  11.357  23.142  0.00  0.00    +0.000 OA
ENDBRANCH   6  13
ENDBRANCH   2   9
ENDBRANCH   1   4
BRANCH   1  14
ATOM     14  N   UNL     1       4.684   6.402  18.458  0.00  0.00    +0.000 N 
ATOM     15  C   UNL     1       5.607   6.431  17.434  0.00  0.00    +0.000 C 
ATOM     16  O   UNL     1       5.275   6.439  16.249  0.00  0.00    +0.000 OA
ATOM     17  H   UNL     1       4.972   6.671  19.396  0.00  0.00    +0.000 HD
BRANCH  15  18
ATOM     18  C   UNL     1       7.058   6.470  17.850  0.00  0.00    +0.000 C 
BRANCH  18  19
ATOM     19  N   UNL     1       7.529   7.831  17.968  0.00  0.00    +0.000 N 
ATOM     20  C   UNL     1       8.648   8.284  18.604  0.00  0.00    +0.000 A 
ATOM     21  C   UNL     1       8.655   9.639  18.344  0.00  0.00    +0.000 A 
ATOM     22  N   UNL     1       7.567   9.945  17.563  0.00  0.00    +0.000 NA
ATOM     23  N   UNL     1       6.889   8.828  17.331  0.00  0.00    +0.000 NA
BRANCH  21  24
ATOM     24  C   UNL     1       9.642  10.612  18.798  0.00  0.00    +0.000 A 
ATOM     25  C   UNL     1      10.504  11.215  17.861  0.00  0.00    +0.000 A 
ATOM     26  C   UNL     1      11.463  12.148  18.259  0.00  0.00    +0.000 A 
ATOM     27  C   UNL     1      11.585  12.485  19.603  0.00  0.00    +0.000 A 
ATOM     28  C   UNL     1      10.734  11.901  20.544  0.00  0.00    +0.000 A 
ATOM     29  C   UNL     1       9.728  11.001  20.154  0.00  0.00    +0.000 A 
BRANCH  29  30
ATOM     30  N   UNL     1       9.003  10.349  21.174  0.00  0.00    +0.000 N 
ATOM     31  H   UNL     1       9.580  10.025  21.943  0.00  0.00    +0.000 HD
ATOM     32  H   UNL     1       8.213  10.911  21.501  0.00  0.00    +0.000 HD
ENDBRANCH  29  30
ENDBRANCH  21  24
ENDBRANCH  18  19
ENDBRANCH  15  18
ENDBRANCH   1  14
BRANCH   1  33
ATOM     33  C   UNL     1       2.608   5.166  17.853  0.00  0.00    +0.000 C 
BRANCH  33  34
ATOM     34  C   UNL     1       2.360   4.199  18.988  0.00  0.00    +0.000 A 
ATOM     35  C   UNL     1       1.066   3.946  19.464  0.00  0.00    +0.000 A 
ATOM     36  C   UNL     1       0.854   3.039  20.504  0.00  0.00    +0.000 A 
ATOM     37  C   UNL     1       1.927   2.350  21.062  0.00  0.00    +0.000 A 
ATOM     38  C   UNL     1       3.213   2.561  20.573  0.00  0.00    +0.000 A 
ATOM     39  C   UNL     1       3.429   3.481  19.545  0.00  0.00    +0.000 A 
ENDBRANCH  33  34
ENDBRANCH   1  33
TORSDOF 10
ENDMDL
MODEL 8
REMARK VINA RESULT:      -7.8      2.780      3.717
REMARK  Name = 
REMARK  12 active torsions:
REMARK  status: ('A' for Active; 'I' for Inactive)
REMARK    1  A    between atoms: C_1  and  O_2
REMARK    2  A    between atoms: O_2  and  C_3
REMARK    3  A    between atoms: C_6  and  N_7
REMARK    4  A    between atoms: N_7  and  C_8
REMARK    5  A    between atoms: C_9  and  C_11
REMARK    6  A    between atoms: C_11  and  C_12
REMARK    7  A    between atoms: C_11  and  N_19
REMARK    8  A    between atoms: C_12  and  C_13
REMARK    9  A    between atoms: C_20  and  C_22
REMARK   10  A    between atoms: C_22  and  N_23
REMARK   11  A    between atoms: C_25  and  C_26
REMARK   12  A    between atoms: C_31  and  N_32
REMARK                            x       y       z     vdW  Elec       q    Type
REMARK                         _______ _______ _______ _____ _____    ______ ____
ROOT
ATOM      1  C   UNL     1       2.573   6.776  19.773  0.00  0.00    +0.000 C 
ENDROOT
BRANCH   1   4
ATOM      2  N   UNL     1       4.379   5.805  18.238  0.00  0.00    +0.000 N 
ATOM      3  C   UNL     1       5.298   5.898  19.376  0.00  0.00    +0.000 C 
ATOM      4  C   UNL     1       3.049   6.283  18.371  0.00  0.00    +0.000 C 
ATOM      5  O   UNL     1       2.211   6.282  17.460  0.00  0.00    +0.000 OA
BRANCH   2   9
ATOM      6  C   UNL     1       5.975   4.270  14.532  0.00  0.00    +0.000 A 
ATOM      7  C   UNL     1       5.728   5.627  14.692  0.00  0.00    +0.000 A 
ATOM      8  C   UNL     1       5.218   6.131  15.900  0.00  0.00    +0.000 A 
ATOM      9  C   UNL     1       4.903   5.295  16.980  0.00  0.00    +0.000 A 
ATOM     10  C   UNL     1       5.135   3.919  16.780  0.00  0.00    +0.000 A 
ATOM     11  C   UNL     1       5.672   3.413  15.581  0.00  0.00    +0.000 A 
BRANCH   6  13
ATOM     12  C   UNL     1       5.491   3.490  12.353  0.00  0.00    +0.000 C 
ATOM     13  O   UNL     1       6.460   3.899  13.310  0.00  0.00    +0.000 OA
ENDBRANCH   6  13
ENDBRANCH   2   9
ENDBRANCH   1   4
BRANCH   1  14
ATOM     14  N   UNL     1       1.497   7.764  19.584  0.00  0.00    +0.000 N 
ATOM     15  C   UNL     1       1.205   8.698  20.556  0.00  0.00    +0.000 C 
ATOM     16  O   UNL     1       1.734   8.680  21.666  0.00  0.00    +0.000 OA
ATOM     17  H   UNL     1       1.262   7.964  18.615  0.00  0.00    +0.000 HD
BRANCH  15  18
ATOM     18  C   UNL     1       0.206   9.764  20.173  0.00  0.00    +0.000 C 
BRANCH  18  19
ATOM     19  N   UNL     1       0.848  10.847  19.462  0.00  0.00    +0.000 N 
ATOM     20  C   UNL     1       0.726  12.189  19.680  0.00  0.00    +0.000 A 
ATOM     21  C   UNL     1       1.605  12.755  18.781  0.00  0.00    +0.000 A 
ATOM     22  N   UNL     1       2.225  11.751  18.076  0.00  0.00    +0.000 NA
ATOM     23  N   UNL     1       1.760  10.586  18.509  0.00  0.00    +0.000 NA
BRANCH  21  24
ATOM     24  C   UNL     1       1.865  14.177  18.589  0.00  0.00    +0.000 A 
ATOM     25  C   UNL     1       0.835  15.109  18.822  0.00  0.00    +0.000 A 
ATOM     26  C   UNL     1       1.047  16.478  18.645  0.00  0.00    +0.000 A 
ATOM     27  C   UNL     1       2.289  16.936  18.218  0.00  0.00    +0.000 A 
ATOM     28  C   UNL     1       3.323  16.026  17.989  0.00  0.00    +0.000 A 
ATOM     29  C   UNL     1       3.143  14.651  18.213  0.00  0.00    +0.000 A 
BRANCH  29  30
ATOM     30  N   UNL     1       4.187  13.783  17.826  0.00  0.00    +0.000 N 
ATOM     31  H   UNL     1       4.930  13.706  18.512  0.00  0.00    +0.000 HD
ATOM     32  H   UNL     1       3.835  12.867  17.539  0.00  0.00    +0.000 HD
ENDBRANCH  29  30
ENDBRANCH  21  24
ENDBRANCH  18  19
ENDBRANCH  15  18
ENDBRANCH   1  14
BRANCH   1  33
ATOM     33  C   UNL     1       2.142   5.651  20.735  0.00  0.00    +0.000 C 
BRANCH  33  34
ATOM     34  C   UNL     1       2.015   4.251  20.177  0.00  0.00    +0.000 A 
ATOM     35  C   UNL     1       3.074   3.337  20.249  0.00  0.00    +0.000 A 
ATOM     36  C   UNL     1       2.935   2.043  19.742  0.00  0.00    +0.000 A 
ATOM     37  C   UNL     1       1.726   1.636  19.184  0.00  0.00    +0.000 A 
ATOM     38  C   UNL     1       0.653   2.521  19.142  0.00  0.00    +0.000 A 
ATOM     39  C   UNL     1       0.796   3.820  19.633  0.00  0.00    +0.000 A 
ENDBRANCH  33  34
ENDBRANCH   1  33
TORSDOF 10
ENDMDL
MODEL 9
REMARK VINA RESULT:      -7.7      2.941      4.126
REMARK  Name = 
REMARK  12 active torsions:
REMARK  status: ('A' for Active; 'I' for Inactive)
REMARK    1  A    between atoms: C_1  and  O_2
REMARK    2  A    between atoms: O_2  and  C_3
REMARK    3  A    between atoms: C_6  and  N_7
REMARK    4  A    between atoms: N_7  and  C_8
REMARK    5  A    between atoms: C_9  and  C_11
REMARK    6  A    between atoms: C_11  and  C_12
REMARK    7  A    between atoms: C_11  and  N_19
REMARK    8  A    between atoms: C_12  and  C_13
REMARK    9  A    between atoms: C_20  and  C_22
REMARK   10  A    between atoms: C_22  and  N_23
REMARK   11  A    between atoms: C_25  and  C_26
REMARK   12  A    between atoms: C_31  and  N_32
REMARK                            x       y       z     vdW  Elec       q    Type
REMARK                         _______ _______ _______ _____ _____    ______ ____
ROOT
ATOM      1  C   UNL     1       2.507   6.704  19.837  0.00  0.00    +0.000 C 
ENDROOT
BRANCH   1   4
ATOM      2  N   UNL     1       4.331   5.775  18.299  0.00  0.00    +0.000 N 
ATOM      3  C   UNL     1       5.234   5.830  19.451  0.00  0.00    +0.000 C 
ATOM      4  C   UNL     1       3.001   6.252  18.428  0.00  0.00    +0.000 C 
ATOM      5  O   UNL     1       2.175   6.282  17.506  0.00  0.00    +0.000 OA
BRANCH   2   9
ATOM      6  C   UNL     1       5.892   4.391  14.518  0.00  0.00    +0.000 A 
ATOM      7  C   UNL     1       5.612   3.496  15.543  0.00  0.00    +0.000 A 
ATOM      8  C   UNL     1       5.095   3.942  16.771  0.00  0.00    +0.000 A 
ATOM      9  C   UNL     1       4.871   5.301  17.033  0.00  0.00    +0.000 A 
ATOM     10  C   UNL     1       5.192   6.189  15.987  0.00  0.00    +0.000 A 
ATOM     11  C   UNL     1       5.685   5.745  14.746  0.00  0.00    +0.000 A 
BRANCH   6  13
ATOM     12  C   UNL     1       7.337   4.639  12.663  0.00  0.00    +0.000 C 
ATOM     13  O   UNL     1       6.401   3.840  13.377  0.00  0.00    +0.000 OA
ENDBRANCH   6  13
ENDBRANCH   2   9
ENDBRANCH   1   4
BRANCH   1  14
ATOM     14  N   UNL     1       1.458   7.724  19.664  0.00  0.00    +0.000 N 
ATOM     15  C   UNL     1       1.179   8.639  20.658  0.00  0.00    +0.000 C 
ATOM     16  O   UNL     1       1.696   8.578  21.772  0.00  0.00    +0.000 OA
ATOM     17  H   UNL     1       1.239   7.955  18.698  0.00  0.00    +0.000 HD
BRANCH  15  18
ATOM     18  C   UNL     1       0.212   9.740  20.293  0.00  0.00    +0.000 C 
BRANCH  18  19
ATOM     19  N   UNL     1       0.869  11.028  20.285  0.00  0.00    +0.000 N 
ATOM     20  C   UNL     1       1.230  11.784  19.208  0.00  0.00    +0.000 A 
ATOM     21  C   UNL     1       1.742  12.937  19.766  0.00  0.00    +0.000 A 
ATOM     22  N   UNL     1       1.660  12.841  21.135  0.00  0.00    +0.000 NA
ATOM     23  N   UNL     1       1.114  11.671  21.441  0.00  0.00    +0.000 NA
BRANCH  21  24
ATOM     24  C   UNL     1       2.282  14.089  19.053  0.00  0.00    +0.000 A 
ATOM     25  C   UNL     1       3.519  13.977  18.387  0.00  0.00    +0.000 A 
ATOM     26  C   UNL     1       4.068  15.059  17.698  0.00  0.00    +0.000 A 
ATOM     27  C   UNL     1       3.397  16.278  17.675  0.00  0.00    +0.000 A 
ATOM     28  C   UNL     1       2.168  16.404  18.325  0.00  0.00    +0.000 A 
ATOM     29  C   UNL     1       1.575  15.311  18.978  0.00  0.00    +0.000 A 
BRANCH  29  30
ATOM     30  N   UNL     1       0.405  15.553  19.728  0.00  0.00    +0.000 N 
ATOM     31  H   UNL     1       0.192  14.824  20.401  0.00  0.00    +0.000 HD
ATOM     32  H   UNL     1       0.413  16.481  20.160  0.00  0.00    +0.000 HD
ENDBRANCH  29  30
ENDBRANCH  21  24
ENDBRANCH  18  19
ENDBRANCH  15  18
ENDBRANCH   1  14
BRANCH   1  33
ATOM     33  C   UNL     1       2.029   5.555  20.747  0.00  0.00    +0.000 C 
BRANCH  33  34
ATOM     34  C   UNL     1       1.942   4.168  20.151  0.00  0.00    +0.000 A 
ATOM     35  C   UNL     1       0.813   3.750  19.432  0.00  0.00    +0.000 A 
ATOM     36  C   UNL     1       0.755   2.471  18.876  0.00  0.00    +0.000 A 
ATOM     37  C   UNL     1       1.836   1.603  19.004  0.00  0.00    +0.000 A 
ATOM     38  C   UNL     1       2.979   2.017  19.681  0.00  0.00    +0.000 A 
ATOM     39  C   UNL     1       3.032   3.290  20.252  0.00  0.00    +0.000 A 
ENDBRANCH  33  34
ENDBRANCH   1  33
TORSDOF 10
ENDMDL
