MODEL 1
REMARK VINA RESULT:      -8.2      0.000      0.000
REMARK  Name = 
REMARK  13 active torsions:
REMARK  status: ('A' for Active; 'I' for Inactive)
REMARK    1  A    between atoms: C_1  and  C_2
REMARK    2  A    between atoms: C_2  and  O_3
REMARK    3  A    between atoms: O_3  and  C_4
REMARK    4  A    between atoms: C_9  and  C_10
REMARK    5  A    between atoms: C_10  and  N_11
REMARK    6  A    between atoms: N_11  and  C_12
REMARK    7  A    between atoms: C_12  and  C_13
REMARK    8  A    between atoms: C_14  and  C_15
REMARK    9  A    between atoms: C_15  and  O_17
REMARK   10  A    between atoms: C_18  and  C_19
REMARK   11  A    between atoms: N_20  and  C_21
REMARK   12  A    between atoms: C_21  and  C_22
REMARK   13  A    between atoms: C_29  and  C_30
REMARK                            x       y       z     vdW  Elec       q    Type
REMARK                         _______ _______ _______ _____ _____    ______ ____
ROOT
ATOM      1  C   UNL     1       2.550   5.416  19.827  0.00  0.00    +0.000 A 
ATOM      2  C   UNL     1       2.724   4.073  20.323  0.00  0.00    +0.000 A 
ATOM      3  C   UNL     1       3.867   3.550  19.719  0.00  0.00    +0.000 A 
ATOM      4  C   UNL     1       4.441   2.168  19.727  0.00  0.00    +0.000 C 
ATOM      5  N   UNL     1       4.467   4.579  19.012  0.00  0.00    +0.000 N 
ATOM      6  C   UNL     1       3.627   5.671  18.984  0.00  0.00    +0.000 A 
ATOM      7  C   UNL     1       3.885   6.896  18.165  0.00  0.00    +0.000 C 
ENDROOT
BRANCH   2   8
ATOM      8  C   UNL     1       1.827   3.378  21.247  0.00  0.00    +0.000 C 
ATOM      9  O   UNL     1       2.134   3.065  22.391  0.00  0.00    +0.000 OA
BRANCH   8  10
ATOM     10  O   UNL     1       0.626   3.036  20.713  0.00  0.00    +0.000 OA
ATOM     11  H   UNL     1       0.247   3.786  20.221  0.00  0.00    +0.000 HD
ENDBRANCH   8  10
ENDBRANCH   2   8
BRANCH   1  12
ATOM     12  C   UNL     1       1.397   6.355  20.128  0.00  0.00    +0.000 C 
BRANCH  12  13
ATOM     13  N   UNL     1       1.893   7.544  20.822  0.00  0.00    +0.000 NA
ATOM     14  H   UNL     1       1.487   7.547  21.758  0.00  0.00    +0.000 HD
BRANCH  13  15
ATOM     15  C   UNL     1       1.428   8.786  20.163  0.00  0.00    +0.000 C 
BRANCH  15  21
ATOM     16  C   UNL     1      -0.065  10.809  20.721  0.00  0.00    +0.000 A 
ATOM     17  C   UNL     1      -0.963  11.433  21.601  0.00  0.00    +0.000 A 
ATOM     18  C   UNL     1      -1.109  10.975  22.908  0.00  0.00    +0.000 A 
ATOM     19  C   UNL     1      -0.374   9.881  23.341  0.00  0.00    +0.000 A 
ATOM     20  C   UNL     1       0.442   9.195  22.444  0.00  0.00    +0.000 A 
ATOM     21  C   UNL     1       0.578   9.618  21.105  0.00  0.00    +0.000 A 
BRANCH  16  22
ATOM     22  O   UNL     1       0.232  11.335  19.484  0.00  0.00    +0.000 OA
BRANCH  22  24
ATOM     23  C   UNL     1      -1.260  10.264  17.924  0.00  0.00    +0.000 C 
ATOM     24  C   UNL     1      -0.908  11.553  18.640  0.00  0.00    +0.000 C 
ENDBRANCH  22  24
ENDBRANCH  16  22
ENDBRANCH  15  21
ENDBRANCH  13  15
ENDBRANCH  12  13
ENDBRANCH   1  12
BRANCH   5  25
ATOM     25  C   UNL     1       5.841   4.533  18.487  0.00  0.00    +0.000 C 
BRANCH  25  26
ATOM     26  C   UNL     1       5.967   4.534  16.978  0.00  0.00    +0.000 A 
ATOM     27  C   UNL     1       7.087   5.044  16.306  0.00  0.00    +0.000 A 
ATOM     28  C   UNL     1       7.250   4.849  14.931  0.00  0.00    +0.000 A 
ATOM     29  C   UNL     1       6.282   4.156  14.209  0.00  0.00    +0.000 A 
ATOM     30 CL   UNL     1       6.521   3.850  12.535  0.00  0.00    +0.000 Cl
ATOM     31  C   UNL     1       5.136   3.688  14.845  0.00  0.00    +0.000 A 
ATOM     32  C   UNL     1       4.980   3.874  16.221  0.00  0.00    +0.000 A 
ENDBRANCH  25  26
ENDBRANCH   5  25
TORSDOF 10
ENDMDL
MODEL 2
REMARK VINA RESULT:      -8.0      2.087      3.035
REMARK  Name = 
REMARK  13 active torsions:
REMARK  status: ('A' for Active; 'I' for Inactive)
REMARK    1  A    between atoms: C_1  and  C_2
REMARK    2  A    between atoms: C_2  and  O_3
REMARK    3  A    between atoms: O_3  and  C_4
REMARK    4  A    between atoms: C_9  and  C_10
REMARK    5  A    between atoms: C_10  and  N_11
REMARK    6  A    between atoms: N_11  and  C_12
REMARK    7  A    between atoms: C_12  and  C_13
REMARK    8  A    between atoms: C_14  and  C_15
REMARK    9  A    between atoms: C_15  and  O_17
REMARK   10  A    between atoms: C_18  and  C_19
REMARK   11  A    between atoms: N_20  and  C_21
REMARK   12  A    between atoms: C_21  and  C_22
REMARK   13  A    between atoms: C_29  and  C_30
REMARK                            x       y       z     vdW  Elec       q    Type
REMARK                         _______ _______ _______ _____ _____    ______ ____
ROOT
ATOM      1  C   UNL     1       2.121   5.047  19.822  0.00  0.00    +0.000 A 
ATOM      2  C   UNL     1       2.463   3.675  20.103  0.00  0.00    +0.000 A 
ATOM      3  C   UNL     1       3.243   3.214  19.042  0.00  0.00    +0.000 A 
ATOM      4  C   UNL     1       3.745   1.842  18.712  0.00  0.00    +0.000 C 
ATOM      5  N   UNL     1       3.512   4.299  18.226  0.00  0.00    +0.000 N 
ATOM      6  C   UNL     1       2.755   5.378  18.627  0.00  0.00    +0.000 A 
ATOM      7  C   UNL     1       2.669   6.662  17.866  0.00  0.00    +0.000 C 
ENDROOT
BRANCH   2   8
ATOM      8  C   UNL     1       2.020   2.901  21.264  0.00  0.00    +0.000 C 
ATOM      9  O   UNL     1       2.779   2.439  22.106  0.00  0.00    +0.000 OA
BRANCH   8  10
ATOM     10  O   UNL     1       0.682   2.668  21.305  0.00  0.00    +0.000 OA
ATOM     11  H   UNL     1       0.352   2.428  20.421  0.00  0.00    +0.000 HD
ENDBRANCH   8  10
ENDBRANCH   2   8
BRANCH   1  12
ATOM     12  C   UNL     1       1.213   5.944  20.641  0.00  0.00    +0.000 C 
BRANCH  12  13
ATOM     13  N   UNL     1       1.887   7.215  20.915  0.00  0.00    +0.000 NA
ATOM     14  H   UNL     1       2.615   7.034  21.606  0.00  0.00    +0.000 HD
BRANCH  13  15
ATOM     15  C   UNL     1       0.961   8.193  21.531  0.00  0.00    +0.000 C 
BRANCH  15  21
ATOM     16  C   UNL     1       0.703  10.746  21.304  0.00  0.00    +0.000 A 
ATOM     17  C   UNL     1       0.836  11.902  20.520  0.00  0.00    +0.000 A 
ATOM     18  C   UNL     1       1.021  11.807  19.143  0.00  0.00    +0.000 A 
ATOM     19  C   UNL     1       1.093  10.558  18.542  0.00  0.00    +0.000 A 
ATOM     20  C   UNL     1       1.064   9.408  19.327  0.00  0.00    +0.000 A 
ATOM     21  C   UNL     1       0.915   9.480  20.728  0.00  0.00    +0.000 A 
BRANCH  16  22
ATOM     22  O   UNL     1       0.351  10.801  22.634  0.00  0.00    +0.000 OA
BRANCH  22  24
ATOM     23  C   UNL     1      -1.532  12.210  23.161  0.00  0.00    +0.000 C 
ATOM     24  C   UNL     1      -1.064  10.796  22.876  0.00  0.00    +0.000 C 
ENDBRANCH  22  24
ENDBRANCH  16  22
ENDBRANCH  15  21
ENDBRANCH  13  15
ENDBRANCH  12  13
ENDBRANCH   1  12
BRANCH   5  25
ATOM     25  C   UNL     1       4.542   4.312  17.175  0.00  0.00    +0.000 C 
BRANCH  25  26
ATOM     26  C   UNL     1       5.695   5.267  17.398  0.00  0.00    +0.000 A 
ATOM     27  C   UNL     1       5.896   6.417  16.620  0.00  0.00    +0.000 A 
ATOM     28  C   UNL     1       6.852   7.370  16.980  0.00  0.00    +0.000 A 
ATOM     29  C   UNL     1       7.632   7.175  18.116  0.00  0.00    +0.000 A 
ATOM     30 CL   UNL     1       8.753   8.384  18.602  0.00  0.00    +0.000 Cl
ATOM     31  C   UNL     1       7.489   6.016  18.874  0.00  0.00    +0.000 A 
ATOM     32  C   UNL     1       6.525   5.068  18.518  0.00  0.00    +0.000 A 
ENDBRANCH  25  26
ENDBRANCH   5  25
TORSDOF 10
ENDMDL
MODEL 3
REMARK VINA RESULT:      -7.9      0.918      1.113
REMARK  Name = 
REMARK  13 active torsions:
REMARK  status: ('A' for Active; 'I' for Inactive)
REMARK    1  A    between atoms: C_1  and  C_2
REMARK    2  A    between atoms: C_2  and  O_3
REMARK    3  A    between atoms: O_3  and  C_4
REMARK    4  A    between atoms: C_9  and  C_10
REMARK    5  A    between atoms: C_10  and  N_11
REMARK    6  A    between atoms: N_11  and  C_12
REMARK    7  A    between atoms: C_12  and  C_13
REMARK    8  A    between atoms: C_14  and  C_15
REMARK    9  A    between atoms: C_15  and  O_17
REMARK   10  A    between atoms: C_18  and  C_19
REMARK   11  A    between atoms: N_20  and  C_21
REMARK   12  A    between atoms: C_21  and  C_22
REMARK   13  A    between atoms: C_29  and  C_30
REMARK                            x       y       z     vdW  Elec       q    Type
REMARK                         _______ _______ _______ _____ _____    ______ ____
ROOT
ATOM      1  C   UNL     1       2.463   5.448  19.870  0.00  0.00    +0.000 A 
ATOM      2  C   UNL     1       2.660   4.103  20.351  0.00  0.00    +0.000 A 
ATOM      3  C   UNL     1       3.820   3.612  19.752  0.00  0.00    +0.000 A 
ATOM      4  C   UNL     1       4.422   2.241  19.749  0.00  0.00    +0.000 C 
ATOM      5  N   UNL     1       4.404   4.661  19.064  0.00  0.00    +0.000 N 
ATOM      6  C   UNL     1       3.542   5.736  19.041  0.00  0.00    +0.000 A 
ATOM      7  C   UNL     1       3.782   6.976  18.240  0.00  0.00    +0.000 C 
ENDROOT
BRANCH   2   8
ATOM      8  C   UNL     1       1.769   3.378  21.258  0.00  0.00    +0.000 C 
ATOM      9  O   UNL     1       2.085   3.023  22.387  0.00  0.00    +0.000 OA
BRANCH   8  10
ATOM     10  O   UNL     1       0.562   3.057  20.723  0.00  0.00    +0.000 OA
ATOM     11  H   UNL     1       0.055   2.500  21.339  0.00  0.00    +0.000 HD
ENDBRANCH   8  10
ENDBRANCH   2   8
BRANCH   1  12
ATOM     12  C   UNL     1       1.287   6.359  20.172  0.00  0.00    +0.000 C 
BRANCH  12  13
ATOM     13  N   UNL     1       1.727   7.477  21.008  0.00  0.00    +0.000 NA
ATOM     14  H   UNL     1       1.152   7.476  21.850  0.00  0.00    +0.000 HD
BRANCH  13  15
ATOM     15  C   UNL     1       1.486   8.776  20.340  0.00  0.00    +0.000 C 
BRANCH  15  21
ATOM     16  C   UNL     1       0.503  11.074  20.962  0.00  0.00    +0.000 A 
ATOM     17  C   UNL     1      -0.389  11.829  21.739  0.00  0.00    +0.000 A 
ATOM     18  C   UNL     1      -0.986  11.277  22.870  0.00  0.00    +0.000 A 
ATOM     19  C   UNL     1      -0.711   9.963  23.223  0.00  0.00    +0.000 A 
ATOM     20  C   UNL     1       0.093   9.178  22.399  0.00  0.00    +0.000 A 
ATOM     21  C   UNL     1       0.678   9.704  21.229  0.00  0.00    +0.000 A 
BRANCH  16  22
ATOM     22  O   UNL     1       1.239  11.634  19.942  0.00  0.00    +0.000 OA
BRANCH  22  24
ATOM     23  C   UNL     1       2.363  13.534  18.976  0.00  0.00    +0.000 C 
ATOM     24  C   UNL     1       1.355  13.063  20.006  0.00  0.00    +0.000 C 
ENDBRANCH  22  24
ENDBRANCH  16  22
ENDBRANCH  15  21
ENDBRANCH  13  15
ENDBRANCH  12  13
ENDBRANCH   1  12
BRANCH   5  25
ATOM     25  C   UNL     1       5.783   4.650  18.551  0.00  0.00    +0.000 C 
BRANCH  25  26
ATOM     26  C   UNL     1       5.923   4.609  17.044  0.00  0.00    +0.000 A 
ATOM     27  C   UNL     1       7.035   5.130  16.366  0.00  0.00    +0.000 A 
ATOM     28  C   UNL     1       7.215   4.898  14.999  0.00  0.00    +0.000 A 
ATOM     29  C   UNL     1       6.275   4.155  14.291  0.00  0.00    +0.000 A 
ATOM     30 CL   UNL     1       6.537   3.806  12.629  0.00  0.00    +0.000 Cl
ATOM     31  C   UNL     1       5.136   3.675  14.931  0.00  0.00    +0.000 A 
ATOM     32  C   UNL     1       4.962   3.898  16.300  0.00  0.00    +0.000 A 
ENDBRANCH  25  26
ENDBRANCH   5  25
TORSDOF 10
ENDMDL
MODEL 4
REMARK VINA RESULT:      -7.9      1.085      2.037
REMARK  Name = 
REMARK  13 active torsions:
REMARK  status: ('A' for Active; 'I' for Inactive)
REMARK    1  A    between atoms: C_1  and  C_2
REMARK    2  A    between atoms: C_2  and  O_3
REMARK    3  A    between atoms: O_3  and  C_4
REMARK    4  A    between atoms: C_9  and  C_10
REMARK    5  A    between atoms: C_10  and  N_11
REMARK    6  A    between atoms: N_11  and  C_12
REMARK    7  A    between atoms: C_12  and  C_13
REMARK    8  A    between atoms: C_14  and  C_15
REMARK    9  A    between atoms: C_15  and  O_17
REMARK   10  A    between atoms: C_18  and  C_19
REMARK   11  A    between atoms: N_20  and  C_21
REMARK   12  A    between atoms: C_21  and  C_22
REMARK   13  A    between atoms: C_29  and  C_30
REMARK                            x       y       z     vdW  Elec       q    Type
REMARK                         _______ _______ _______ _____ _____    ______ ____
ROOT
ATOM      1  C   UNL     1       2.475   5.459  19.988  0.00  0.00    +0.000 A 
ATOM      2  C   UNL     1       2.657   4.083  20.377  0.00  0.00    +0.000 A 
ATOM      3  C   UNL     1       3.812   3.621  19.747  0.00  0.00    +0.000 A 
ATOM      4  C   UNL     1       4.400   2.247  19.652  0.00  0.00    +0.000 C 
ATOM      5  N   UNL     1       4.410   4.708  19.133  0.00  0.00    +0.000 N 
ATOM      6  C   UNL     1       3.560   5.791  19.182  0.00  0.00    +0.000 A 
ATOM      7  C   UNL     1       3.814   7.080  18.468  0.00  0.00    +0.000 C 
ENDROOT
BRANCH   2   8
ATOM      8  C   UNL     1       1.756   3.307  21.231  0.00  0.00    +0.000 C 
ATOM      9  O   UNL     1       2.060   2.887  22.341  0.00  0.00    +0.000 OA
BRANCH   8  10
ATOM     10  O   UNL     1       0.554   3.021  20.666  0.00  0.00    +0.000 OA
ATOM     11  H   UNL     1      -0.168   3.209  21.292  0.00  0.00    +0.000 HD
ENDBRANCH   8  10
ENDBRANCH   2   8
BRANCH   1  12
ATOM     12  C   UNL     1       1.308   6.361  20.349  0.00  0.00    +0.000 C 
BRANCH  12  13
ATOM     13  N   UNL     1       1.785   7.495  21.142  0.00  0.00    +0.000 NA
ATOM     14  H   UNL     1       2.091   7.133  22.045  0.00  0.00    +0.000 HD
BRANCH  13  15
ATOM     15  C   UNL     1       0.690   8.450  21.426  0.00  0.00    +0.000 C 
BRANCH  15  21
ATOM     16  C   UNL     1       0.579  10.998  21.057  0.00  0.00    +0.000 A 
ATOM     17  C   UNL     1       0.878  12.109  20.255  0.00  0.00    +0.000 A 
ATOM     18  C   UNL     1       1.264  11.942  18.927  0.00  0.00    +0.000 A 
ATOM     19  C   UNL     1       1.372  10.665  18.396  0.00  0.00    +0.000 A 
ATOM     20  C   UNL     1       1.175   9.555  19.215  0.00  0.00    +0.000 A 
ATOM     21  C   UNL     1       0.821   9.698  20.572  0.00  0.00    +0.000 A 
BRANCH  16  22
ATOM     22  O   UNL     1       0.033  11.128  22.314  0.00  0.00    +0.000 OA
BRANCH  22  24
ATOM     23  C   UNL     1      -2.129  11.895  23.050  0.00  0.00    +0.000 C 
ATOM     24  C   UNL     1      -0.778  12.298  22.493  0.00  0.00    +0.000 C 
ENDBRANCH  22  24
ENDBRANCH  16  22
ENDBRANCH  15  21
ENDBRANCH  13  15
ENDBRANCH  12  13
ENDBRANCH   1  12
BRANCH   5  25
ATOM     25  C   UNL     1       5.790   4.717  18.623  0.00  0.00    +0.000 C 
BRANCH  25  26
ATOM     26  C   UNL     1       5.934   4.658  17.117  0.00  0.00    +0.000 A 
ATOM     27  C   UNL     1       7.061   5.144  16.438  0.00  0.00    +0.000 A 
ATOM     28  C   UNL     1       7.239   4.894  15.074  0.00  0.00    +0.000 A 
ATOM     29  C   UNL     1       6.283   4.169  14.370  0.00  0.00    +0.000 A 
ATOM     30 CL   UNL     1       6.542   3.796  12.712  0.00  0.00    +0.000 Cl
ATOM     31  C   UNL     1       5.130   3.723  15.010  0.00  0.00    +0.000 A 
ATOM     32  C   UNL     1       4.957   3.964  16.376  0.00  0.00    +0.000 A 
ENDBRANCH  25  26
ENDBRANCH   5  25
TORSDOF 10
ENDMDL
MODEL 5
REMARK VINA RESULT:      -7.8      1.886      2.278
REMARK  Name = 
REMARK  13 active torsions:
REMARK  status: ('A' for Active; 'I' for Inactive)
REMARK    1  A    between atoms: C_1  and  C_2
REMARK    2  A    between atoms: C_2  and  O_3
REMARK    3  A    between atoms: O_3  and  C_4
REMARK    4  A    between atoms: C_9  and  C_10
REMARK    5  A    between atoms: C_10  and  N_11
REMARK    6  A    between atoms: N_11  and  C_12
REMARK    7  A    between atoms: C_12  and  C_13
REMARK    8  A    between atoms: C_14  and  C_15
REMARK    9  A    between atoms: C_15  and  O_17
REMARK   10  A    between atoms: C_18  and  C_19
REMARK   11  A    between atoms: N_20  and  C_21
REMARK   12  A    between atoms: C_21  and  C_22
REMARK   13  A    between atoms: C_29  and  C_30
REMARK                            x       y       z     vdW  Elec       q    Type
REMARK                         _______ _______ _______ _____ _____    ______ ____
ROOT
ATOM      1  C   UNL     1       2.076   5.068  19.811  0.00  0.00    +0.000 A 
ATOM      2  C   UNL     1       2.434   3.706  20.120  0.00  0.00    +0.000 A 
ATOM      3  C   UNL     1       3.222   3.234  19.070  0.00  0.00    +0.000 A 
ATOM      4  C   UNL     1       3.741   1.863  18.768  0.00  0.00    +0.000 C 
ATOM      5  N   UNL     1       3.479   4.306  18.233  0.00  0.00    +0.000 N 
ATOM      6  C   UNL     1       2.707   5.383  18.612  0.00  0.00    +0.000 A 
ATOM      7  C   UNL     1       2.607   6.651  17.825  0.00  0.00    +0.000 C 
ENDROOT
BRANCH   2   8
ATOM      8  C   UNL     1       1.998   2.950  21.295  0.00  0.00    +0.000 C 
ATOM      9  O   UNL     1       2.754   2.566  22.179  0.00  0.00    +0.000 OA
BRANCH   8  10
ATOM     10  O   UNL     1       0.676   2.639  21.304  0.00  0.00    +0.000 OA
ATOM     11  H   UNL     1       0.529   1.772  20.885  0.00  0.00    +0.000 HD
ENDBRANCH   8  10
ENDBRANCH   2   8
BRANCH   1  12
ATOM     12  C   UNL     1       1.154   5.970  20.611  0.00  0.00    +0.000 C 
BRANCH  12  13
ATOM     13  N   UNL     1       1.903   7.125  21.112  0.00  0.00    +0.000 NA
ATOM     14  H   UNL     1       1.605   7.291  22.073  0.00  0.00    +0.000 HD
BRANCH  13  15
ATOM     15  C   UNL     1       1.569   8.352  20.354  0.00  0.00    +0.000 C 
BRANCH  15  21
ATOM     16  C   UNL     1      -0.141  10.263  20.598  0.00  0.00    +0.000 A 
ATOM     17  C   UNL     1      -1.058  10.959  21.400  0.00  0.00    +0.000 A 
ATOM     18  C   UNL     1      -1.063  10.790  22.782  0.00  0.00    +0.000 A 
ATOM     19  C   UNL     1      -0.164   9.912  23.372  0.00  0.00    +0.000 A 
ATOM     20  C   UNL     1       0.679   9.143  22.573  0.00  0.00    +0.000 A 
ATOM     21  C   UNL     1       0.676   9.269  21.169  0.00  0.00    +0.000 A 
BRANCH  16  22
ATOM     22  O   UNL     1       0.008  10.530  19.255  0.00  0.00    +0.000 OA
BRANCH  22  24
ATOM     23  C   UNL     1      -1.849  10.841  17.751  0.00  0.00    +0.000 C 
ATOM     24  C   UNL     1      -0.908  11.506  18.737  0.00  0.00    +0.000 C 
ENDBRANCH  22  24
ENDBRANCH  16  22
ENDBRANCH  15  21
ENDBRANCH  13  15
ENDBRANCH  12  13
ENDBRANCH   1  12
BRANCH   5  25
ATOM     25  C   UNL     1       4.511   4.310  17.184  0.00  0.00    +0.000 C 
BRANCH  25  26
ATOM     26  C   UNL     1       5.659   5.274  17.397  0.00  0.00    +0.000 A 
ATOM     27  C   UNL     1       5.785   6.480  16.692  0.00  0.00    +0.000 A 
ATOM     28  C   UNL     1       6.747   7.426  17.056  0.00  0.00    +0.000 A 
ATOM     29  C   UNL     1       7.606   7.169  18.120  0.00  0.00    +0.000 A 
ATOM     30 CL   UNL     1       8.736   8.366  18.614  0.00  0.00    +0.000 Cl
ATOM     31  C   UNL     1       7.537   5.957  18.799  0.00  0.00    +0.000 A 
ATOM     32  C   UNL     1       6.568   5.015  18.441  0.00  0.00    +0.000 A 
ENDBRANCH  25  26
ENDBRANCH   5  25
TORSDOF 10
ENDMDL
MODEL 6
REMARK VINA RESULT:      -7.4      3.810      8.833
REMARK  Name = 
REMARK  13 active torsions:
REMARK  status: ('A' for Active; 'I' for Inactive)
REMARK    1  A    between atoms: C_1  and  C_2
REMARK    2  A    between atoms: C_2  and  O_3
REMARK    3  A    between atoms: O_3  and  C_4
REMARK    4  A    between atoms: C_9  and  C_10
REMARK    5  A    between atoms: C_10  and  N_11
REMARK    6  A    between atoms: N_11  and  C_12
REMARK    7  A    between atoms: C_12  and  C_13
REMARK    8  A    between atoms: C_14  and  C_15
REMARK    9  A    between atoms: C_15  and  O_17
REMARK   10  A    between atoms: C_18  and  C_19
REMARK   11  A    between atoms: N_20  and  C_21
REMARK   12  A    between atoms: C_21  and  C_22
REMARK   13  A    between atoms: C_29  and  C_30
REMARK                            x       y       z     vdW  Elec       q    Type
REMARK                         _______ _______ _______ _____ _____    ______ ____
ROOT
ATOM      1  C   UNL     1       1.135   9.032  20.347  0.00  0.00    +0.000 A 
ATOM      2  C   UNL     1       0.581   9.778  21.449  0.00  0.00    +0.000 A 
ATOM      3  C   UNL     1      -0.016  10.923  20.920  0.00  0.00    +0.000 A 
ATOM      4  C   UNL     1      -0.601  12.127  21.589  0.00  0.00    +0.000 C 
ATOM      5  N   UNL     1       0.020  10.806  19.541  0.00  0.00    +0.000 N 
ATOM      6  C   UNL     1       0.804   9.729  19.188  0.00  0.00    +0.000 A 
ATOM      7  C   UNL     1       1.197   9.412  17.780  0.00  0.00    +0.000 C 
ENDROOT
BRANCH   2   8
ATOM      8  C   UNL     1       0.681   9.418  22.864  0.00  0.00    +0.000 C 
ATOM      9  O   UNL     1       1.732   9.411  23.493  0.00  0.00    +0.000 OA
BRANCH   8  10
ATOM     10  O   UNL     1      -0.489   9.018  23.426  0.00  0.00    +0.000 OA
ATOM     11  H   UNL     1      -1.084   8.654  22.747  0.00  0.00    +0.000 HD
ENDBRANCH   8  10
ENDBRANCH   2   8
BRANCH   1  12
ATOM     12  C   UNL     1       1.959   7.760  20.431  0.00  0.00    +0.000 C 
BRANCH  12  13
ATOM     13  N   UNL     1       1.077   6.612  20.651  0.00  0.00    +0.000 NA
ATOM     14  H   UNL     1       0.453   6.847  21.423  0.00  0.00    +0.000 HD
BRANCH  13  15
ATOM     15  C   UNL     1       1.842   5.421  21.082  0.00  0.00    +0.000 C 
BRANCH  15  21
ATOM     16  C   UNL     1       3.146   4.333  19.144  0.00  0.00    +0.000 A 
ATOM     17  C   UNL     1       3.272   3.285  18.220  0.00  0.00    +0.000 A 
ATOM     18  C   UNL     1       2.204   2.427  17.972  0.00  0.00    +0.000 A 
ATOM     19  C   UNL     1       1.009   2.597  18.657  0.00  0.00    +0.000 A 
ATOM     20  C   UNL     1       0.911   3.572  19.647  0.00  0.00    +0.000 A 
ATOM     21  C   UNL     1       1.992   4.428  19.943  0.00  0.00    +0.000 A 
BRANCH  16  22
ATOM     22  O   UNL     1       4.115   5.300  19.291  0.00  0.00    +0.000 OA
BRANCH  22  24
ATOM     23  C   UNL     1       4.027   6.891  17.483  0.00  0.00    +0.000 C 
ATOM     24  C   UNL     1       4.753   5.695  18.067  0.00  0.00    +0.000 C 
ENDBRANCH  22  24
ENDBRANCH  16  22
ENDBRANCH  15  21
ENDBRANCH  13  15
ENDBRANCH  12  13
ENDBRANCH   1  12
BRANCH   5  25
ATOM     25  C   UNL     1      -0.765  11.641  18.617  0.00  0.00    +0.000 C 
BRANCH  25  26
ATOM     26  C   UNL     1      -2.262  11.419  18.643  0.00  0.00    +0.000 A 
ATOM     27  C   UNL     1      -3.146  12.256  19.340  0.00  0.00    +0.000 A 
ATOM     28  C   UNL     1      -4.529  12.132  19.179  0.00  0.00    +0.000 A 
ATOM     29  C   UNL     1      -5.044  11.156  18.330  0.00  0.00    +0.000 A 
ATOM     30 CL   UNL     1      -6.741  11.057  18.073  0.00  0.00    +0.000 Cl
ATOM     31  C   UNL     1      -4.188  10.279  17.670  0.00  0.00    +0.000 A 
ATOM     32  C   UNL     1      -2.806  10.411  17.824  0.00  0.00    +0.000 A 
ENDBRANCH  25  26
ENDBRANCH   5  25
TORSDOF 10
ENDMDL
MODEL 7
REMARK VINA RESULT:      -7.4      1.986      2.494
REMARK  Name = 
REMARK  13 active torsions:
REMARK  status: ('A' for Active; 'I' for Inactive)
REMARK    1  A    between atoms: C_1  and  C_2
REMARK    2  A    between atoms: C_2  and  O_3
REMARK    3  A    between atoms: O_3  and  C_4
REMARK    4  A    between atoms: C_9  and  C_10
REMARK    5  A    between atoms: C_10  and  N_11
REMARK    6  A    between atoms: N_11  and  C_12
REMARK    7  A    between atoms: C_12  and  C_13
REMARK    8  A    between atoms: C_14  and  C_15
REMARK    9  A    between atoms: C_15  and  O_17
REMARK   10  A    between atoms: C_18  and  C_19
REMARK   11  A    between atoms: N_20  and  C_21
REMARK   12  A    between atoms: C_21  and  C_22
REMARK   13  A    between atoms: C_29  and  C_30
REMARK                            x       y       z     vdW  Elec       q    Type
REMARK                         _______ _______ _______ _____ _____    ______ ____
ROOT
ATOM      1  C   UNL     1       2.193   5.106  19.800  0.00  0.00    +0.000 A 
ATOM      2  C   UNL     1       2.480   3.718  20.065  0.00  0.00    +0.000 A 
ATOM      3  C   UNL     1       3.273   3.250  19.017  0.00  0.00    +0.000 A 
ATOM      4  C   UNL     1       3.738   1.868  18.675  0.00  0.00    +0.000 C 
ATOM      5  N   UNL     1       3.600   4.340  18.228  0.00  0.00    +0.000 N 
ATOM      6  C   UNL     1       2.869   5.436  18.630  0.00  0.00    +0.000 A 
ATOM      7  C   UNL     1       2.847   6.736  17.891  0.00  0.00    +0.000 C 
ENDROOT
BRANCH   2   8
ATOM      8  C   UNL     1       1.980   2.940  21.199  0.00  0.00    +0.000 C 
ATOM      9  O   UNL     1       0.793   2.727  21.410  0.00  0.00    +0.000 OA
BRANCH   8  10
ATOM     10  O   UNL     1       2.944   2.517  22.058  0.00  0.00    +0.000 OA
ATOM     11  H   UNL     1       3.798   2.931  21.840  0.00  0.00    +0.000 HD
ENDBRANCH   8  10
ENDBRANCH   2   8
BRANCH   1  12
ATOM     12  C   UNL     1       1.293   6.019  20.612  0.00  0.00    +0.000 C 
BRANCH  12  13
ATOM     13  N   UNL     1       2.005   7.256  20.937  0.00  0.00    +0.000 NA
ATOM     14  H   UNL     1       1.860   7.443  21.930  0.00  0.00    +0.000 HD
BRANCH  13  15
ATOM     15  C   UNL     1       1.437   8.412  20.208  0.00  0.00    +0.000 C 
BRANCH  15  21
ATOM     16  C   UNL     1       0.579  10.732  20.928  0.00  0.00    +0.000 A 
ATOM     17  C   UNL     1      -0.244  11.503  21.763  0.00  0.00    +0.000 A 
ATOM     18  C   UNL     1      -0.810  10.948  22.909  0.00  0.00    +0.000 A 
ATOM     19  C   UNL     1      -0.574   9.616  23.218  0.00  0.00    +0.000 A 
ATOM     20  C   UNL     1       0.158   8.820  22.340  0.00  0.00    +0.000 A 
ATOM     21  C   UNL     1       0.710   9.350  21.155  0.00  0.00    +0.000 A 
BRANCH  16  22
ATOM     22  O   UNL     1       1.290  11.287  19.888  0.00  0.00    +0.000 OA
BRANCH  22  24
ATOM     23  C   UNL     1       1.530  13.049  18.262  0.00  0.00    +0.000 C 
ATOM     24  C   UNL     1       0.563  12.258  19.120  0.00  0.00    +0.000 C 
ENDBRANCH  22  24
ENDBRANCH  16  22
ENDBRANCH  15  21
ENDBRANCH  13  15
ENDBRANCH  12  13
ENDBRANCH   1  12
BRANCH   5  25
ATOM     25  C   UNL     1       4.658   4.336  17.206  0.00  0.00    +0.000 C 
BRANCH  25  26
ATOM     26  C   UNL     1       5.797   5.306  17.436  0.00  0.00    +0.000 A 
ATOM     27  C   UNL     1       5.988   6.458  16.659  0.00  0.00    +0.000 A 
ATOM     28  C   UNL     1       6.929   7.424  17.026  0.00  0.00    +0.000 A 
ATOM     29  C   UNL     1       7.704   7.239  18.167  0.00  0.00    +0.000 A 
ATOM     30 CL   UNL     1       8.806   8.463  18.660  0.00  0.00    +0.000 Cl
ATOM     31  C   UNL     1       7.572   6.078  18.923  0.00  0.00    +0.000 A 
ATOM     32  C   UNL     1       6.623   5.118  18.561  0.00  0.00    +0.000 A 
ENDBRANCH  25  26
ENDBRANCH   5  25
TORSDOF 10
ENDMDL
MODEL 8
REMARK VINA RESULT:      -7.4      3.726      8.631
REMARK  Name = 
REMARK  13 active torsions:
REMARK  status: ('A' for Active; 'I' for Inactive)
REMARK    1  A    between atoms: C_1  and  C_2
REMARK    2  A    between atoms: C_2  and  O_3
REMARK    3  A    between atoms: O_3  and  C_4
REMARK    4  A    between atoms: C_9  and  C_10
REMARK    5  A    between atoms: C_10  and  N_11
REMARK    6  A    between atoms: N_11  and  C_12
REMARK    7  A    between atoms: C_12  and  C_13
REMARK    8  A    between atoms: C_14  and  C_15
REMARK    9  A    between atoms: C_15  and  O_17
REMARK   10  A    between atoms: C_18  and  C_19
REMARK   11  A    between atoms: N_20  and  C_21
REMARK   12  A    between atoms: C_21  and  C_22
REMARK   13  A    between atoms: C_29  and  C_30
REMARK                            x       y       z     vdW  Elec       q    Type
REMARK                         _______ _______ _______ _____ _____    ______ ____
ROOT
ATOM      1  C   UNL     1       0.803   9.043  20.502  0.00  0.00    +0.000 A 
ATOM      2  C   UNL     1       0.420   9.940  21.564  0.00  0.00    +0.000 A 
ATOM      3  C   UNL     1       0.293  11.213  21.009  0.00  0.00    +0.000 A 
ATOM      4  C   UNL     1       0.076  12.549  21.649  0.00  0.00    +0.000 C 
ATOM      5  N   UNL     1       0.426  11.080  19.638  0.00  0.00    +0.000 N 
ATOM      6  C   UNL     1       0.839   9.801  19.335  0.00  0.00    +0.000 A 
ATOM      7  C   UNL     1       1.243   9.360  17.965  0.00  0.00    +0.000 C 
ENDROOT
BRANCH   2   8
ATOM      8  C   UNL     1       0.254   9.579  22.973  0.00  0.00    +0.000 C 
ATOM      9  O   UNL     1       1.176   9.528  23.778  0.00  0.00    +0.000 OA
BRANCH   8  10
ATOM     10  O   UNL     1      -1.013   9.229  23.317  0.00  0.00    +0.000 OA
ATOM     11  H   UNL     1      -1.137   9.310  24.280  0.00  0.00    +0.000 HD
ENDBRANCH   8  10
ENDBRANCH   2   8
BRANCH   1  12
ATOM     12  C   UNL     1       1.146   7.570  20.634  0.00  0.00    +0.000 C 
BRANCH  12  13
ATOM     13  N   UNL     1       2.463   7.313  20.049  0.00  0.00    +0.000 NA
ATOM     14  H   UNL     1       2.500   7.792  19.149  0.00  0.00    +0.000 HD
BRANCH  13  15
ATOM     15  C   UNL     1       2.654   5.874  19.763  0.00  0.00    +0.000 C 
BRANCH  15  21
ATOM     16  C   UNL     1       3.902   4.406  18.053  0.00  0.00    +0.000 A 
ATOM     17  C   UNL     1       4.565   4.297  16.821  0.00  0.00    +0.000 A 
ATOM     18  C   UNL     1       4.991   5.436  16.142  0.00  0.00    +0.000 A 
ATOM     19  C   UNL     1       4.741   6.691  16.677  0.00  0.00    +0.000 A 
ATOM     20  C   UNL     1       3.994   6.810  17.847  0.00  0.00    +0.000 A 
ATOM     21  C   UNL     1       3.520   5.673  18.534  0.00  0.00    +0.000 A 
BRANCH  16  22
ATOM     22  O   UNL     1       3.620   3.307  18.832  0.00  0.00    +0.000 OA
BRANCH  22  24
ATOM     23  C   UNL     1       1.358   2.544  18.501  0.00  0.00    +0.000 C 
ATOM     24  C   UNL     1       2.821   2.306  18.184  0.00  0.00    +0.000 C 
ENDBRANCH  22  24
ENDBRANCH  16  22
ENDBRANCH  15  21
ENDBRANCH  13  15
ENDBRANCH  12  13
ENDBRANCH   1  12
BRANCH   5  25
ATOM     25  C   UNL     1       0.058  12.120  18.664  0.00  0.00    +0.000 C 
BRANCH  25  26
ATOM     26  C   UNL     1       1.061  13.242  18.492  0.00  0.00    +0.000 A 
ATOM     27  C   UNL     1       0.746  14.589  18.724  0.00  0.00    +0.000 A 
ATOM     28  C   UNL     1       1.745  15.566  18.744  0.00  0.00    +0.000 A 
ATOM     29  C   UNL     1       3.071  15.208  18.515  0.00  0.00    +0.000 A 
ATOM     30 CL   UNL     1       4.307  16.398  18.618  0.00  0.00    +0.000 Cl
ATOM     31  C   UNL     1       3.400  13.886  18.230  0.00  0.00    +0.000 A 
ATOM     32  C   UNL     1       2.401  12.909  18.220  0.00  0.00    +0.000 A 
ENDBRANCH  25  26
ENDBRANCH   5  25
TORSDOF 10
ENDMDL
MODEL 9
REMARK VINA RESULT:      -7.4      3.637      8.735
REMARK  Name = 
REMARK  13 active torsions:
REMARK  status: ('A' for Active; 'I' for Inactive)
REMARK    1  A    between atoms: C_1  and  C_2
REMARK    2  A    between atoms: C_2  and  O_3
REMARK    3  A    between atoms: O_3  and  C_4
REMARK    4  A    between atoms: C_9  and  C_10
REMARK    5  A    between atoms: C_10  and  N_11
REMARK    6  A    between atoms: N_11  and  C_12
REMARK    7  A    between atoms: C_12  and  C_13
REMARK    8  A    between atoms: C_14  and  C_15
REMARK    9  A    between atoms: C_15  and  O_17
REMARK   10  A    between atoms: C_18  and  C_19
REMARK   11  A    between atoms: N_20  and  C_21
REMARK   12  A    between atoms: C_21  and  C_22
REMARK   13  A    between atoms: C_29  and  C_30
REMARK                            x       y       z     vdW  Elec       q    Type
REMARK                         _______ _______ _______ _____ _____    ______ ____
ROOT
ATOM      1  C   UNL     1       1.049   8.953  20.374  0.00  0.00    +0.000 A 
ATOM      2  C   UNL     1       0.891   9.924  21.428  0.00  0.00    +0.000 A 
ATOM      3  C   UNL     1       0.640  11.156  20.825  0.00  0.00    +0.000 A 
ATOM      4  C   UNL     1       0.553  12.535  21.401  0.00  0.00    +0.000 C 
ATOM      5  N   UNL     1       0.482  10.928  19.469  0.00  0.00    +0.000 N 
ATOM      6  C   UNL     1       0.832   9.627  19.176  0.00  0.00    +0.000 A 
ATOM      7  C   UNL     1       0.942   9.090  17.785  0.00  0.00    +0.000 C 
ENDROOT
BRANCH   2   8
ATOM      8  C   UNL     1       1.028   9.663  22.861  0.00  0.00    +0.000 C 
ATOM      9  O   UNL     1       0.110   9.768  23.665  0.00  0.00    +0.000 OA
BRANCH   8  10
ATOM     10  O   UNL     1       2.291   9.354  23.258  0.00  0.00    +0.000 OA
ATOM     11  H   UNL     1       2.288   9.032  24.177  0.00  0.00    +0.000 HD
ENDBRANCH   8  10
ENDBRANCH   2   8
BRANCH   1  12
ATOM     12  C   UNL     1       1.422   7.490  20.532  0.00  0.00    +0.000 C 
BRANCH  12  13
ATOM     13  N   UNL     1       2.589   7.184  19.702  0.00  0.00    +0.000 NA
ATOM     14  H   UNL     1       2.262   7.069  18.743  0.00  0.00    +0.000 HD
BRANCH  13  15
ATOM     15  C   UNL     1       3.202   5.894  20.091  0.00  0.00    +0.000 C 
BRANCH  15  21
ATOM     16  C   UNL     1       2.568   4.258  18.204  0.00  0.00    +0.000 A 
ATOM     17  C   UNL     1       1.929   3.074  17.805  0.00  0.00    +0.000 A 
ATOM     18  C   UNL     1       1.022   2.438  18.649  0.00  0.00    +0.000 A 
ATOM     19  C   UNL     1       0.761   2.968  19.905  0.00  0.00    +0.000 A 
ATOM     20  C   UNL     1       1.467   4.085  20.346  0.00  0.00    +0.000 A 
ATOM     21  C   UNL     1       2.417   4.725  19.524  0.00  0.00    +0.000 A 
BRANCH  16  22
ATOM     22  O   UNL     1       3.335   5.004  17.338  0.00  0.00    +0.000 OA
BRANCH  22  24
ATOM     23  C   UNL     1       5.648   4.437  17.708  0.00  0.00    +0.000 C 
ATOM     24  C   UNL     1       4.456   4.303  16.780  0.00  0.00    +0.000 C 
ENDBRANCH  22  24
ENDBRANCH  16  22
ENDBRANCH  15  21
ENDBRANCH  13  15
ENDBRANCH  12  13
ENDBRANCH   1  12
BRANCH   5  25
ATOM     25  C   UNL     1      -0.090  11.901  18.524  0.00  0.00    +0.000 C 
BRANCH  25  26
ATOM     26  C   UNL     1      -1.581  11.786  18.287  0.00  0.00    +0.000 A 
ATOM     27  C   UNL     1      -2.129  11.095  17.197  0.00  0.00    +0.000 A 
ATOM     28  C   UNL     1      -3.503  10.848  17.122  0.00  0.00    +0.000 A 
ATOM     29  C   UNL     1      -4.347  11.306  18.129  0.00  0.00    +0.000 A 
ATOM     30 CL   UNL     1      -6.024  10.934  18.074  0.00  0.00    +0.000 Cl
ATOM     31  C   UNL     1      -3.832  12.041  19.193  0.00  0.00    +0.000 A 
ATOM     32  C   UNL     1      -2.457  12.279  19.273  0.00  0.00    +0.000 A 
ENDBRANCH  25  26
ENDBRANCH   5  25
TORSDOF 10
ENDMDL
