MODEL 1
REMARK VINA RESULT:      -7.2      0.000      0.000
REMARK  Name = 
REMARK  13 active torsions:
REMARK  status: ('A' for Active; 'I' for Inactive)
REMARK    1  A    between atoms: C_1  and  C_2
REMARK    2  A    between atoms: C_3  and  N_4
REMARK    3  A    between atoms: C_7  and  C_8
REMARK    4  A    between atoms: N_9  and  C_10
REMARK    5  A    between atoms: C_11  and  C_12
REMARK    6  A    between atoms: N_14  and  C_15
REMARK    7  A    between atoms: C_16  and  C_17
REMARK    8  A    between atoms: C_18  and  C_19
REMARK    9  A    between atoms: N_21  and  C_22
REMARK   10  A    between atoms: C_22  and  C_23
REMARK   11  A    between atoms: C_23  and  C_24
REMARK   12  A    between atoms: N_27  and  C_28
REMARK   13  A    between atoms: C_29  and  C_30
REMARK                            x       y       z     vdW  Elec       q    Type
REMARK                         _______ _______ _______ _____ _____    ______ ____
ROOT
ATOM      1  C   UNL     1       3.145   6.351  18.699  0.00  0.00    +0.000 A 
ATOM      2  C   UNL     1       4.237   6.336  17.768  0.00  0.00    +0.000 A 
ATOM      3  C   UNL     1       5.061   7.518  17.377  0.00  0.00    +0.000 C 
ATOM      4  C   UNL     1       4.500   5.001  17.419  0.00  0.00    +0.000 A 
ATOM      5  N   UNL     1       3.535   4.238  18.069  0.00  0.00    +0.000 N 
ATOM      6  C   UNL     1       3.375   2.797  17.966  0.00  0.00    +0.000 C 
ATOM      7  C   UNL     1       2.691   5.048  18.812  0.00  0.00    +0.000 A 
ATOM      8  C   UNL     1       1.492   4.529  19.540  0.00  0.00    +0.000 C 
ENDROOT
BRANCH   1  11
ATOM      9  C   UNL     1       1.781   8.383  18.664  0.00  0.00    +0.000 C 
ATOM     10  O   UNL     1       1.473   8.240  17.481  0.00  0.00    +0.000 OA
ATOM     11  N   UNL     1       2.595   7.473  19.344  0.00  0.00    +0.000 N 
ATOM     12  H   UNL     1       2.393   7.379  20.327  0.00  0.00    +0.000 HD
BRANCH   9  20
ATOM     13  C   UNL     1       0.117   8.220  21.413  0.00  0.00    +0.000 C 
ATOM     14  C   UNL     1       0.450   9.464  20.657  0.00  0.00    +0.000 A 
ATOM     15  C   UNL     1       0.229  10.833  21.056  0.00  0.00    +0.000 A 
ATOM     16  C   UNL     1       0.850  11.640  20.119  0.00  0.00    +0.000 A 
ATOM     17  C   UNL     1       0.930  13.136  20.031  0.00  0.00    +0.000 C 
ATOM     18  N   UNL     1       1.439  10.822  19.179  0.00  0.00    +0.000 N 
ATOM     19  C   UNL     1       2.215  11.288  18.043  0.00  0.00    +0.000 C 
ATOM     20  C   UNL     1       1.192   9.481  19.462  0.00  0.00    +0.000 A 
BRANCH  15  21
ATOM     21  N   UNL     1      -0.401  11.416  22.145  0.00  0.00    +0.000 N 
ATOM     22  C   UNL     1      -1.704  11.775  22.310  0.00  0.00    +0.000 C 
ATOM     23  O   UNL     1      -2.136  12.264  23.350  0.00  0.00    +0.000 OA
ATOM     24  H   UNL     1       0.173  11.684  22.934  0.00  0.00    +0.000 HD
ENDBRANCH  15  21
ENDBRANCH   9  20
ENDBRANCH   1  11
BRANCH   4  25
ATOM     25  C   UNL     1       5.602   4.448  16.623  0.00  0.00    +0.000 C 
ATOM     26  O   UNL     1       6.725   4.219  17.063  0.00  0.00    +0.000 OA
ATOM     27  N   UNL     1       5.283   4.183  15.300  0.00  0.00    +0.000 N 
ATOM     28  H   UNL     1       4.302   4.131  15.075  0.00  0.00    +0.000 HD
BRANCH  27  29
ATOM     29  C   UNL     1       6.242   3.654  14.338  0.00  0.00    +0.000 C 
BRANCH  29  30
ATOM     30  C   UNL     1       5.927   4.066  12.901  0.00  0.00    +0.000 C 
BRANCH  30  31
ATOM     31  C   UNL     1       5.398   2.984  11.974  0.00  0.00    +0.000 C 
ATOM     32  N   UNL     1       6.028   1.892  11.695  0.00  0.00    +0.000 NA
ATOM     33  N   UNL     1       4.182   3.162  11.387  0.00  0.00    +0.000 N 
ATOM     34  H   UNL     1       6.938   1.852  12.172  0.00  0.00    +0.000 HD
ATOM     35  H   UNL     1       3.489   3.720  11.875  0.00  0.00    +0.000 HD
ATOM     36  H   UNL     1       3.815   2.308  10.986  0.00  0.00    +0.000 HD
ENDBRANCH  30  31
ENDBRANCH  29  30
ENDBRANCH  27  29
ENDBRANCH   4  25
TORSDOF 7
ENDMDL
MODEL 2
REMARK VINA RESULT:      -6.9      2.922      9.405
REMARK  Name = 
REMARK  13 active torsions:
REMARK  status: ('A' for Active; 'I' for Inactive)
REMARK    1  A    between atoms: C_1  and  C_2
REMARK    2  A    between atoms: C_3  and  N_4
REMARK    3  A    between atoms: C_7  and  C_8
REMARK    4  A    between atoms: N_9  and  C_10
REMARK    5  A    between atoms: C_11  and  C_12
REMARK    6  A    between atoms: N_14  and  C_15
REMARK    7  A    between atoms: C_16  and  C_17
REMARK    8  A    between atoms: C_18  and  C_19
REMARK    9  A    between atoms: N_21  and  C_22
REMARK   10  A    between atoms: C_22  and  C_23
REMARK   11  A    between atoms: C_23  and  C_24
REMARK   12  A    between atoms: N_27  and  C_28
REMARK   13  A    between atoms: C_29  and  C_30
REMARK                            x       y       z     vdW  Elec       q    Type
REMARK                         _______ _______ _______ _____ _____    ______ ____
ROOT
ATOM      1  C   UNL     1       1.328   9.339  19.753  0.00  0.00    +0.000 A 
ATOM      2  C   UNL     1       1.470  10.563  19.017  0.00  0.00    +0.000 A 
ATOM      3  C   UNL     1       2.477  10.820  17.946  0.00  0.00    +0.000 C 
ATOM      4  C   UNL     1       0.402  11.409  19.360  0.00  0.00    +0.000 A 
ATOM      5  N   UNL     1      -0.322  10.734  20.339  0.00  0.00    +0.000 N 
ATOM      6  C   UNL     1      -1.492  11.241  21.037  0.00  0.00    +0.000 C 
ATOM      7  C   UNL     1       0.252   9.502  20.609  0.00  0.00    +0.000 A 
ATOM      8  C   UNL     1      -0.239   8.590  21.686  0.00  0.00    +0.000 C 
ENDROOT
BRANCH   1  11
ATOM      9  C   UNL     1       2.133   7.366  18.547  0.00  0.00    +0.000 C 
ATOM     10  O   UNL     1       1.433   7.597  17.562  0.00  0.00    +0.000 OA
ATOM     11  N   UNL     1       2.148   8.199  19.669  0.00  0.00    +0.000 N 
ATOM     12  H   UNL     1       3.032   8.238  20.154  0.00  0.00    +0.000 HD
BRANCH   9  20
ATOM     13  C   UNL     1       5.001   7.177  17.101  0.00  0.00    +0.000 C 
ATOM     14  C   UNL     1       4.352   6.105  17.912  0.00  0.00    +0.000 A 
ATOM     15  C   UNL     1       4.911   4.842  18.330  0.00  0.00    +0.000 A 
ATOM     16  C   UNL     1       4.007   4.260  19.201  0.00  0.00    +0.000 A 
ATOM     17  C   UNL     1       4.069   2.947  19.924  0.00  0.00    +0.000 C 
ATOM     18  N   UNL     1       2.933   5.113  19.330  0.00  0.00    +0.000 N 
ATOM     19  C   UNL     1       1.781   4.873  20.182  0.00  0.00    +0.000 C 
ATOM     20  C   UNL     1       3.096   6.244  18.534  0.00  0.00    +0.000 A 
BRANCH  15  21
ATOM     21  N   UNL     1       6.113   4.202  18.067  0.00  0.00    +0.000 N 
ATOM     22  C   UNL     1       7.366   4.720  17.935  0.00  0.00    +0.000 C 
ATOM     23  O   UNL     1       8.356   4.025  17.725  0.00  0.00    +0.000 OA
ATOM     24  H   UNL     1       6.087   3.208  17.881  0.00  0.00    +0.000 HD
ENDBRANCH  15  21
ENDBRANCH   9  20
ENDBRANCH   1  11
BRANCH   4  25
ATOM     25  C   UNL     1       0.015  12.699  18.779  0.00  0.00    +0.000 C 
ATOM     26  O   UNL     1      -0.883  12.844  17.955  0.00  0.00    +0.000 OA
ATOM     27  N   UNL     1       0.743  13.783  19.241  0.00  0.00    +0.000 N 
ATOM     28  H   UNL     1       1.261  13.646  20.096  0.00  0.00    +0.000 HD
BRANCH  27  29
ATOM     29  C   UNL     1       0.531  15.147  18.773  0.00  0.00    +0.000 C 
BRANCH  29  30
ATOM     30  C   UNL     1       1.727  16.058  19.043  0.00  0.00    +0.000 C 
BRANCH  30  31
ATOM     31  C   UNL     1       2.768  16.175  17.941  0.00  0.00    +0.000 C 
ATOM     32  N   UNL     1       3.134  17.289  17.401  0.00  0.00    +0.000 NA
ATOM     33  N   UNL     1       3.362  15.039  17.480  0.00  0.00    +0.000 N 
ATOM     34  H   UNL     1       2.625  18.086  17.802  0.00  0.00    +0.000 HD
ATOM     35  H   UNL     1       3.459  14.255  18.115  0.00  0.00    +0.000 HD
ATOM     36  H   UNL     1       4.190  15.230  16.931  0.00  0.00    +0.000 HD
ENDBRANCH  30  31
ENDBRANCH  29  30
ENDBRANCH  27  29
ENDBRANCH   4  25
TORSDOF 7
ENDMDL
MODEL 3
REMARK VINA RESULT:      -6.9      1.818      2.568
REMARK  Name = 
REMARK  13 active torsions:
REMARK  status: ('A' for Active; 'I' for Inactive)
REMARK    1  A    between atoms: C_1  and  C_2
REMARK    2  A    between atoms: C_3  and  N_4
REMARK    3  A    between atoms: C_7  and  C_8
REMARK    4  A    between atoms: N_9  and  C_10
REMARK    5  A    between atoms: C_11  and  C_12
REMARK    6  A    between atoms: N_14  and  C_15
REMARK    7  A    between atoms: C_16  and  C_17
REMARK    8  A    between atoms: C_18  and  C_19
REMARK    9  A    between atoms: N_21  and  C_22
REMARK   10  A    between atoms: C_22  and  C_23
REMARK   11  A    between atoms: C_23  and  C_24
REMARK   12  A    between atoms: N_27  and  C_28
REMARK   13  A    between atoms: C_29  and  C_30
REMARK                            x       y       z     vdW  Elec       q    Type
REMARK                         _______ _______ _______ _____ _____    ______ ____
ROOT
ATOM      1  C   UNL     1       2.806   6.488  19.456  0.00  0.00    +0.000 A 
ATOM      2  C   UNL     1       3.830   6.349  18.460  0.00  0.00    +0.000 A 
ATOM      3  C   UNL     1       4.625   7.466  17.870  0.00  0.00    +0.000 C 
ATOM      4  C   UNL     1       4.067   4.979  18.260  0.00  0.00    +0.000 A 
ATOM      5  N   UNL     1       3.149   4.310  19.065  0.00  0.00    +0.000 N 
ATOM      6  C   UNL     1       2.981   2.869  19.153  0.00  0.00    +0.000 C 
ATOM      7  C   UNL     1       2.360   5.214  19.760  0.00  0.00    +0.000 A 
ATOM      8  C   UNL     1       1.215   4.800  20.628  0.00  0.00    +0.000 C 
ENDROOT
BRANCH   1  11
ATOM      9  C   UNL     1       1.559   8.582  19.221  0.00  0.00    +0.000 C 
ATOM     10  O   UNL     1       1.274   8.361  18.045  0.00  0.00    +0.000 OA
ATOM     11  N   UNL     1       2.304   7.687  19.994  0.00  0.00    +0.000 N 
ATOM     12  H   UNL     1       2.073   7.683  20.975  0.00  0.00    +0.000 HD
BRANCH   9  20
ATOM     13  C   UNL     1       1.812  11.687  18.416  0.00  0.00    +0.000 C 
ATOM     14  C   UNL     1       1.103  11.142  19.612  0.00  0.00    +0.000 A 
ATOM     15  C   UNL     1       0.281  11.854  20.560  0.00  0.00    +0.000 A 
ATOM     16  C   UNL     1      -0.299  10.911  21.391  0.00  0.00    +0.000 A 
ATOM     17  C   UNL     1      -1.230  11.089  22.554  0.00  0.00    +0.000 C 
ATOM     18  N   UNL     1       0.131   9.667  20.984  0.00  0.00    +0.000 N 
ATOM     19  C   UNL     1      -0.278   8.410  21.588  0.00  0.00    +0.000 C 
ATOM     20  C   UNL     1       1.013   9.770  19.912  0.00  0.00    +0.000 A 
BRANCH  15  21
ATOM     21  N   UNL     1      -0.033  13.194  20.728  0.00  0.00    +0.000 N 
ATOM     22  C   UNL     1      -0.989  13.949  20.119  0.00  0.00    +0.000 C 
ATOM     23  O   UNL     1      -1.175  15.133  20.386  0.00  0.00    +0.000 OA
ATOM     24  H   UNL     1       0.555  13.743  21.343  0.00  0.00    +0.000 HD
ENDBRANCH  15  21
ENDBRANCH   9  20
ENDBRANCH   1  11
BRANCH   4  25
ATOM     25  C   UNL     1       5.109   4.321  17.464  0.00  0.00    +0.000 C 
ATOM     26  O   UNL     1       6.229   4.046  17.884  0.00  0.00    +0.000 OA
ATOM     27  N   UNL     1       4.736   4.013  16.166  0.00  0.00    +0.000 N 
ATOM     28  H   UNL     1       3.747   4.010  15.970  0.00  0.00    +0.000 HD
BRANCH  27  29
ATOM     29  C   UNL     1       5.632   3.379  15.206  0.00  0.00    +0.000 C 
BRANCH  29  30
ATOM     30  C   UNL     1       6.022   4.309  14.058  0.00  0.00    +0.000 C 
BRANCH  30  31
ATOM     31  C   UNL     1       7.257   5.173  14.260  0.00  0.00    +0.000 C 
ATOM     32  N   UNL     1       8.040   5.555  13.307  0.00  0.00    +0.000 NA
ATOM     33  N   UNL     1       7.574   5.576  15.521  0.00  0.00    +0.000 N 
ATOM     34  H   UNL     1       7.729   5.193  12.397  0.00  0.00    +0.000 HD
ATOM     35  H   UNL     1       6.823   5.696  16.192  0.00  0.00    +0.000 HD
ATOM     36  H   UNL     1       8.256   6.324  15.529  0.00  0.00    +0.000 HD
ENDBRANCH  30  31
ENDBRANCH  29  30
ENDBRANCH  27  29
ENDBRANCH   4  25
TORSDOF 7
ENDMDL
MODEL 4
REMARK VINA RESULT:      -6.9      2.717     10.404
REMARK  Name = 
REMARK  13 active torsions:
REMARK  status: ('A' for Active; 'I' for Inactive)
REMARK    1  A    between atoms: C_1  and  C_2
REMARK    2  A    between atoms: C_3  and  N_4
REMARK    3  A    between atoms: C_7  and  C_8
REMARK    4  A    between atoms: N_9  and  C_10
REMARK    5  A    between atoms: C_11  and  C_12
REMARK    6  A    between atoms: N_14  and  C_15
REMARK    7  A    between atoms: C_16  and  C_17
REMARK    8  A    between atoms: C_18  and  C_19
REMARK    9  A    between atoms: N_21  and  C_22
REMARK   10  A    between atoms: C_22  and  C_23
REMARK   11  A    between atoms: C_23  and  C_24
REMARK   12  A    between atoms: N_27  and  C_28
REMARK   13  A    between atoms: C_29  and  C_30
REMARK                            x       y       z     vdW  Elec       q    Type
REMARK                         _______ _______ _______ _____ _____    ______ ____
ROOT
ATOM      1  C   UNL     1       1.324   9.557  19.656  0.00  0.00    +0.000 A 
ATOM      2  C   UNL     1       0.181   9.752  20.502  0.00  0.00    +0.000 A 
ATOM      3  C   UNL     1      -0.309   8.791  21.534  0.00  0.00    +0.000 C 
ATOM      4  C   UNL     1      -0.293  11.060  20.308  0.00  0.00    +0.000 A 
ATOM      5  N   UNL     1       0.504  11.612  19.310  0.00  0.00    +0.000 N 
ATOM      6  C   UNL     1       0.356  12.939  18.735  0.00  0.00    +0.000 C 
ATOM      7  C   UNL     1       1.457  10.699  18.885  0.00  0.00    +0.000 A 
ATOM      8  C   UNL     1       2.394  10.964  17.751  0.00  0.00    +0.000 C 
ENDROOT
BRANCH   1  11
ATOM      9  C   UNL     1       2.059   7.533  18.493  0.00  0.00    +0.000 C 
ATOM     10  O   UNL     1       1.310   7.727  17.537  0.00  0.00    +0.000 OA
ATOM     11  N   UNL     1       2.135   8.411  19.577  0.00  0.00    +0.000 N 
ATOM     12  H   UNL     1       3.042   8.465  20.014  0.00  0.00    +0.000 HD
BRANCH   9  20
ATOM     13  C   UNL     1       4.809   7.237  16.849  0.00  0.00    +0.000 C 
ATOM     14  C   UNL     1       4.221   6.221  17.771  0.00  0.00    +0.000 A 
ATOM     15  C   UNL     1       4.809   4.983  18.223  0.00  0.00    +0.000 A 
ATOM     16  C   UNL     1       3.972   4.461  19.193  0.00  0.00    +0.000 A 
ATOM     17  C   UNL     1       4.086   3.194  19.989  0.00  0.00    +0.000 C 
ATOM     18  N   UNL     1       2.912   5.327  19.350  0.00  0.00    +0.000 N 
ATOM     19  C   UNL     1       1.828   5.148  20.300  0.00  0.00    +0.000 C 
ATOM     20  C   UNL     1       3.017   6.406  18.476  0.00  0.00    +0.000 A 
BRANCH  15  21
ATOM     21  N   UNL     1       5.986   4.321  17.910  0.00  0.00    +0.000 N 
ATOM     22  C   UNL     1       7.272   4.769  17.932  0.00  0.00    +0.000 C 
ATOM     23  O   UNL     1       8.232   4.058  17.651  0.00  0.00    +0.000 OA
ATOM     24  H   UNL     1       5.915   3.378  17.549  0.00  0.00    +0.000 HD
ENDBRANCH  15  21
ENDBRANCH   9  20
ENDBRANCH   1  11
BRANCH   4  25
ATOM     25  C   UNL     1      -1.337  11.789  21.037  0.00  0.00    +0.000 C 
ATOM     26  O   UNL     1      -2.452  12.033  20.586  0.00  0.00    +0.000 OA
ATOM     27  N   UNL     1      -0.978  12.192  22.313  0.00  0.00    +0.000 N 
ATOM     28  H   UNL     1      -0.176  11.735  22.720  0.00  0.00    +0.000 HD
BRANCH  27  29
ATOM     29  C   UNL     1      -1.862  12.948  23.191  0.00  0.00    +0.000 C 
BRANCH  29  30
ATOM     30  C   UNL     1      -2.970  12.088  23.797  0.00  0.00    +0.000 C 
BRANCH  30  31
ATOM     31  C   UNL     1      -4.401  12.558  23.587  0.00  0.00    +0.000 C 
ATOM     32  N   UNL     1      -4.837  13.097  22.498  0.00  0.00    +0.000 NA
ATOM     33  N   UNL     1      -5.294  12.410  24.604  0.00  0.00    +0.000 N 
ATOM     34  H   UNL     1      -4.092  13.179  21.795  0.00  0.00    +0.000 HD
ATOM     35  H   UNL     1      -5.159  11.644  25.256  0.00  0.00    +0.000 HD
ATOM     36  H   UNL     1      -6.252  12.527  24.300  0.00  0.00    +0.000 HD
ENDBRANCH  30  31
ENDBRANCH  29  30
ENDBRANCH  27  29
ENDBRANCH   4  25
TORSDOF 7
ENDMDL
MODEL 5
REMARK VINA RESULT:      -6.9      1.326      1.524
REMARK  Name = 
REMARK  13 active torsions:
REMARK  status: ('A' for Active; 'I' for Inactive)
REMARK    1  A    between atoms: C_1  and  C_2
REMARK    2  A    between atoms: C_3  and  N_4
REMARK    3  A    between atoms: C_7  and  C_8
REMARK    4  A    between atoms: N_9  and  C_10
REMARK    5  A    between atoms: C_11  and  C_12
REMARK    6  A    between atoms: N_14  and  C_15
REMARK    7  A    between atoms: C_16  and  C_17
REMARK    8  A    between atoms: C_18  and  C_19
REMARK    9  A    between atoms: N_21  and  C_22
REMARK   10  A    between atoms: C_22  and  C_23
REMARK   11  A    between atoms: C_23  and  C_24
REMARK   12  A    between atoms: N_27  and  C_28
REMARK   13  A    between atoms: C_29  and  C_30
REMARK                            x       y       z     vdW  Elec       q    Type
REMARK                         _______ _______ _______ _____ _____    ______ ____
ROOT
ATOM      1  C   UNL     1       2.615   6.657  19.204  0.00  0.00    +0.000 A 
ATOM      2  C   UNL     1       3.469   6.546  18.056  0.00  0.00    +0.000 A 
ATOM      3  C   UNL     1       4.090   7.689  17.323  0.00  0.00    +0.000 C 
ATOM      4  C   UNL     1       3.750   5.186  17.846  0.00  0.00    +0.000 A 
ATOM      5  N   UNL     1       3.016   4.491  18.803  0.00  0.00    +0.000 N 
ATOM      6  C   UNL     1       2.948   3.046  18.944  0.00  0.00    +0.000 C 
ATOM      7  C   UNL     1       2.299   5.369  19.601  0.00  0.00    +0.000 A 
ATOM      8  C   UNL     1       1.338   4.918  20.653  0.00  0.00    +0.000 C 
ENDROOT
BRANCH   1  11
ATOM      9  C   UNL     1       1.339   8.743  19.088  0.00  0.00    +0.000 C 
ATOM     10  O   UNL     1       0.980   8.541  17.929  0.00  0.00    +0.000 OA
ATOM     11  N   UNL     1       2.138   7.841  19.796  0.00  0.00    +0.000 N 
ATOM     12  H   UNL     1       1.970   7.817  20.790  0.00  0.00    +0.000 HD
BRANCH   9  20
ATOM     13  C   UNL     1      -0.412   8.815  21.786  0.00  0.00    +0.000 C 
ATOM     14  C   UNL     1       0.052  10.000  21.007  0.00  0.00    +0.000 A 
ATOM     15  C   UNL     1      -0.056  11.396  21.359  0.00  0.00    +0.000 A 
ATOM     16  C   UNL     1       0.663  12.114  20.419  0.00  0.00    +0.000 A 
ATOM     17  C   UNL     1       0.879  13.593  20.291  0.00  0.00    +0.000 C 
ATOM     18  N   UNL     1       1.202  11.217  19.523  0.00  0.00    +0.000 N 
ATOM     19  C   UNL     1       2.050  11.577  18.399  0.00  0.00    +0.000 C 
ATOM     20  C   UNL     1       0.828   9.913  19.835  0.00  0.00    +0.000 A 
BRANCH  15  21
ATOM     21  N   UNL     1      -0.662  12.066  22.410  0.00  0.00    +0.000 N 
ATOM     22  C   UNL     1      -1.981  12.322  22.637  0.00  0.00    +0.000 C 
ATOM     23  O   UNL     1      -2.385  12.911  23.635  0.00  0.00    +0.000 OA
ATOM     24  H   UNL     1      -0.064  12.495  23.104  0.00  0.00    +0.000 HD
ENDBRANCH  15  21
ENDBRANCH   9  20
ENDBRANCH   1  11
BRANCH   4  25
ATOM     25  C   UNL     1       4.684   4.565  16.901  0.00  0.00    +0.000 C 
ATOM     26  O   UNL     1       4.346   3.837  15.972  0.00  0.00    +0.000 OA
ATOM     27  N   UNL     1       6.018   4.866  17.124  0.00  0.00    +0.000 N 
ATOM     28  H   UNL     1       6.207   5.665  17.710  0.00  0.00    +0.000 HD
BRANCH  27  29
ATOM     29  C   UNL     1       7.105   4.331  16.313  0.00  0.00    +0.000 C 
BRANCH  29  30
ATOM     30  C   UNL     1       7.355   5.148  15.047  0.00  0.00    +0.000 C 
BRANCH  30  31
ATOM     31  C   UNL     1       7.010   4.488  13.721  0.00  0.00    +0.000 C 
ATOM     32  N   UNL     1       6.203   3.488  13.594  0.00  0.00    +0.000 NA
ATOM     33  N   UNL     1       7.584   4.968  12.583  0.00  0.00    +0.000 N 
ATOM     34  H   UNL     1       5.831   3.188  14.504  0.00  0.00    +0.000 HD
ATOM     35  H   UNL     1       7.837   5.949  12.548  0.00  0.00    +0.000 HD
ATOM     36  H   UNL     1       7.125   4.632  11.745  0.00  0.00    +0.000 HD
ENDBRANCH  30  31
ENDBRANCH  29  30
ENDBRANCH  27  29
ENDBRANCH   4  25
TORSDOF 7
ENDMDL
MODEL 6
REMARK VINA RESULT:      -6.9      1.916      2.121
REMARK  Name = 
REMARK  13 active torsions:
REMARK  status: ('A' for Active; 'I' for Inactive)
REMARK    1  A    between atoms: C_1  and  C_2
REMARK    2  A    between atoms: C_3  and  N_4
REMARK    3  A    between atoms: C_7  and  C_8
REMARK    4  A    between atoms: N_9  and  C_10
REMARK    5  A    between atoms: C_11  and  C_12
REMARK    6  A    between atoms: N_14  and  C_15
REMARK    7  A    between atoms: C_16  and  C_17
REMARK    8  A    between atoms: C_18  and  C_19
REMARK    9  A    between atoms: N_21  and  C_22
REMARK   10  A    between atoms: C_22  and  C_23
REMARK   11  A    between atoms: C_23  and  C_24
REMARK   12  A    between atoms: N_27  and  C_28
REMARK   13  A    between atoms: C_29  and  C_30
REMARK                            x       y       z     vdW  Elec       q    Type
REMARK                         _______ _______ _______ _____ _____    ______ ____
ROOT
ATOM      1  C   UNL     1       2.277   6.467  19.024  0.00  0.00    +0.000 A 
ATOM      2  C   UNL     1       3.361   6.323  18.095  0.00  0.00    +0.000 A 
ATOM      3  C   UNL     1       3.918   7.409  17.235  0.00  0.00    +0.000 C 
ATOM      4  C   UNL     1       3.911   5.040  18.255  0.00  0.00    +0.000 A 
ATOM      5  N   UNL     1       3.121   4.402  19.207  0.00  0.00    +0.000 N 
ATOM      6  C   UNL     1       3.276   3.030  19.664  0.00  0.00    +0.000 C 
ATOM      7  C   UNL     1       2.111   5.243  19.648  0.00  0.00    +0.000 A 
ATOM      8  C   UNL     1       1.041   4.806  20.596  0.00  0.00    +0.000 C 
ENDROOT
BRANCH   1  11
ATOM      9  C   UNL     1       1.527   8.314  20.445  0.00  0.00    +0.000 C 
ATOM     10  O   UNL     1       2.269   7.995  21.372  0.00  0.00    +0.000 OA
ATOM     11  N   UNL     1       1.489   7.613  19.237  0.00  0.00    +0.000 N 
ATOM     12  H   UNL     1       1.278   8.176  18.427  0.00  0.00    +0.000 HD
BRANCH   9  20
ATOM     13  C   UNL     1      -0.422   9.305  22.805  0.00  0.00    +0.000 C 
ATOM     14  C   UNL     1      -0.155  10.024  21.524  0.00  0.00    +0.000 A 
ATOM     15  C   UNL     1      -0.586  11.346  21.139  0.00  0.00    +0.000 A 
ATOM     16  C   UNL     1       0.041  11.650  19.943  0.00  0.00    +0.000 A 
ATOM     17  C   UNL     1      -0.051  12.880  19.089  0.00  0.00    +0.000 C 
ATOM     18  N   UNL     1       0.832  10.578  19.595  0.00  0.00    +0.000 N 
ATOM     19  C   UNL     1       1.677  10.520  18.414  0.00  0.00    +0.000 C 
ATOM     20  C   UNL     1       0.718   9.550  20.527  0.00  0.00    +0.000 A 
BRANCH  15  21
ATOM     21  N   UNL     1      -1.408  12.289  21.737  0.00  0.00    +0.000 N 
ATOM     22  C   UNL     1      -2.728  12.553  21.529  0.00  0.00    +0.000 C 
ATOM     23  O   UNL     1      -3.344  13.411  22.155  0.00  0.00    +0.000 OA
ATOM     24  H   UNL     1      -0.985  12.938  22.389  0.00  0.00    +0.000 HD
ENDBRANCH  15  21
ENDBRANCH   9  20
ENDBRANCH   1  11
BRANCH   4  25
ATOM     25  C   UNL     1       5.118   4.464  17.652  0.00  0.00    +0.000 C 
ATOM     26  O   UNL     1       6.222   4.459  18.187  0.00  0.00    +0.000 OA
ATOM     27  N   UNL     1       4.926   3.898  16.402  0.00  0.00    +0.000 N 
ATOM     28  H   UNL     1       3.973   3.690  16.143  0.00  0.00    +0.000 HD
BRANCH  27  29
ATOM     29  C   UNL     1       6.001   3.294  15.625  0.00  0.00    +0.000 C 
BRANCH  29  30
ATOM     30  C   UNL     1       6.354   4.101  14.377  0.00  0.00    +0.000 C 
BRANCH  30  31
ATOM     31  C   UNL     1       7.336   5.249  14.553  0.00  0.00    +0.000 C 
ATOM     32  N   UNL     1       7.498   5.905  15.653  0.00  0.00    +0.000 NA
ATOM     33  N   UNL     1       8.101   5.624  13.491  0.00  0.00    +0.000 N 
ATOM     34  H   UNL     1       6.871   5.561  16.392  0.00  0.00    +0.000 HD
ATOM     35  H   UNL     1       8.343   4.923  12.800  0.00  0.00    +0.000 HD
ATOM     36  H   UNL     1       8.873   6.221  13.760  0.00  0.00    +0.000 HD
ENDBRANCH  30  31
ENDBRANCH  29  30
ENDBRANCH  27  29
ENDBRANCH   4  25
TORSDOF 7
ENDMDL
MODEL 7
REMARK VINA RESULT:      -6.9      2.707      3.740
REMARK  Name = 
REMARK  13 active torsions:
REMARK  status: ('A' for Active; 'I' for Inactive)
REMARK    1  A    between atoms: C_1  and  C_2
REMARK    2  A    between atoms: C_3  and  N_4
REMARK    3  A    between atoms: C_7  and  C_8
REMARK    4  A    between atoms: N_9  and  C_10
REMARK    5  A    between atoms: C_11  and  C_12
REMARK    6  A    between atoms: N_14  and  C_15
REMARK    7  A    between atoms: C_16  and  C_17
REMARK    8  A    between atoms: C_18  and  C_19
REMARK    9  A    between atoms: N_21  and  C_22
REMARK   10  A    between atoms: C_22  and  C_23
REMARK   11  A    between atoms: C_23  and  C_24
REMARK   12  A    between atoms: N_27  and  C_28
REMARK   13  A    between atoms: C_29  and  C_30
REMARK                            x       y       z     vdW  Elec       q    Type
REMARK                         _______ _______ _______ _____ _____    ______ ____
ROOT
ATOM      1  C   UNL     1       1.745   8.606  19.540  0.00  0.00    +0.000 A 
ATOM      2  C   UNL     1       2.455   7.869  18.534  0.00  0.00    +0.000 A 
ATOM      3  C   UNL     1       3.096   8.453  17.319  0.00  0.00    +0.000 C 
ATOM      4  C   UNL     1       2.586   6.541  18.972  0.00  0.00    +0.000 A 
ATOM      5  N   UNL     1       1.900   6.466  20.181  0.00  0.00    +0.000 N 
ATOM      6  C   UNL     1       1.716   5.271  20.987  0.00  0.00    +0.000 C 
ATOM      7  C   UNL     1       1.358   7.699  20.511  0.00  0.00    +0.000 A 
ATOM      8  C   UNL     1       0.479   7.912  21.701  0.00  0.00    +0.000 C 
ENDROOT
BRANCH   1  11
ATOM      9  C   UNL     1       0.500  10.519  18.655  0.00  0.00    +0.000 C 
ATOM     10  O   UNL     1      -0.145   9.825  17.870  0.00  0.00    +0.000 OA
ATOM     11  N   UNL     1       1.446   9.981  19.531  0.00  0.00    +0.000 N 
ATOM     12  H   UNL     1       1.537  10.472  20.407  0.00  0.00    +0.000 HD
BRANCH   9  20
ATOM     13  C   UNL     1      -2.164  11.950  19.754  0.00  0.00    +0.000 C 
ATOM     14  C   UNL     1      -0.938  12.639  19.251  0.00  0.00    +0.000 A 
ATOM     15  C   UNL     1      -0.634  14.049  19.280  0.00  0.00    +0.000 A 
ATOM     16  C   UNL     1       0.677  14.195  18.862  0.00  0.00    +0.000 A 
ATOM     17  C   UNL     1       1.505  15.435  18.691  0.00  0.00    +0.000 C 
ATOM     18  N   UNL     1       1.177  12.941  18.589  0.00  0.00    +0.000 N 
ATOM     19  C   UNL     1       2.535  12.667  18.149  0.00  0.00    +0.000 C 
ATOM     20  C   UNL     1       0.207  11.963  18.790  0.00  0.00    +0.000 A 
BRANCH  15  21
ATOM     21  N   UNL     1      -1.354  15.168  19.668  0.00  0.00    +0.000 N 
ATOM     22  C   UNL     1      -1.567  15.680  20.912  0.00  0.00    +0.000 C 
ATOM     23  O   UNL     1      -2.212  16.706  21.110  0.00  0.00    +0.000 OA
ATOM     24  H   UNL     1      -1.862  15.673  18.953  0.00  0.00    +0.000 HD
ENDBRANCH  15  21
ENDBRANCH   9  20
ENDBRANCH   1  11
BRANCH   4  25
ATOM     25  C   UNL     1       3.352   5.437  18.381  0.00  0.00    +0.000 C 
ATOM     26  O   UNL     1       2.871   4.578  17.649  0.00  0.00    +0.000 OA
ATOM     27  N   UNL     1       4.699   5.429  18.706  0.00  0.00    +0.000 N 
ATOM     28  H   UNL     1       5.079   6.289  19.071  0.00  0.00    +0.000 HD
BRANCH  27  29
ATOM     29  C   UNL     1       5.627   4.406  18.241  0.00  0.00    +0.000 C 
BRANCH  29  30
ATOM     30  C   UNL     1       6.859   4.994  17.554  0.00  0.00    +0.000 C 
BRANCH  30  31
ATOM     31  C   UNL     1       6.659   5.590  16.170  0.00  0.00    +0.000 C 
ATOM     32  N   UNL     1       5.699   6.395  15.857  0.00  0.00    +0.000 NA
ATOM     33  N   UNL     1       7.538   5.262  15.183  0.00  0.00    +0.000 N 
ATOM     34  H   UNL     1       5.081   6.573  16.659  0.00  0.00    +0.000 HD
ATOM     35  H   UNL     1       8.491   5.032  15.444  0.00  0.00    +0.000 HD
ATOM     36  H   UNL     1       7.468   5.876  14.381  0.00  0.00    +0.000 HD
ENDBRANCH  30  31
ENDBRANCH  29  30
ENDBRANCH  27  29
ENDBRANCH   4  25
TORSDOF 7
ENDMDL
MODEL 8
REMARK VINA RESULT:      -6.8      1.951      2.967
REMARK  Name = 
REMARK  13 active torsions:
REMARK  status: ('A' for Active; 'I' for Inactive)
REMARK    1  A    between atoms: C_1  and  C_2
REMARK    2  A    between atoms: C_3  and  N_4
REMARK    3  A    between atoms: C_7  and  C_8
REMARK    4  A    between atoms: N_9  and  C_10
REMARK    5  A    between atoms: C_11  and  C_12
REMARK    6  A    between atoms: N_14  and  C_15
REMARK    7  A    between atoms: C_16  and  C_17
REMARK    8  A    between atoms: C_18  and  C_19
REMARK    9  A    between atoms: N_21  and  C_22
REMARK   10  A    between atoms: C_22  and  C_23
REMARK   11  A    between atoms: C_23  and  C_24
REMARK   12  A    between atoms: N_27  and  C_28
REMARK   13  A    between atoms: C_29  and  C_30
REMARK                            x       y       z     vdW  Elec       q    Type
REMARK                         _______ _______ _______ _____ _____    ______ ____
ROOT
ATOM      1  C   UNL     1       2.563   6.490  19.145  0.00  0.00    +0.000 A 
ATOM      2  C   UNL     1       3.423   6.296  18.012  0.00  0.00    +0.000 A 
ATOM      3  C   UNL     1       4.198   7.366  17.316  0.00  0.00    +0.000 C 
ATOM      4  C   UNL     1       3.540   4.915  17.780  0.00  0.00    +0.000 A 
ATOM      5  N   UNL     1       2.704   4.299  18.707  0.00  0.00    +0.000 N 
ATOM      6  C   UNL     1       2.457   2.871  18.816  0.00  0.00    +0.000 C 
ATOM      7  C   UNL     1       2.083   5.244  19.508  0.00  0.00    +0.000 A 
ATOM      8  C   UNL     1       1.049   4.895  20.530  0.00  0.00    +0.000 C 
ENDROOT
BRANCH   1  11
ATOM      9  C   UNL     1       1.445   8.667  19.089  0.00  0.00    +0.000 C 
ATOM     10  O   UNL     1       0.989   8.481  17.961  0.00  0.00    +0.000 OA
ATOM     11  N   UNL     1       2.223   7.713  19.750  0.00  0.00    +0.000 N 
ATOM     12  H   UNL     1       2.125   7.712  20.754  0.00  0.00    +0.000 HD
BRANCH   9  20
ATOM     13  C   UNL     1       2.025  11.752  18.386  0.00  0.00    +0.000 C 
ATOM     14  C   UNL     1       1.317  11.244  19.598  0.00  0.00    +0.000 A 
ATOM     15  C   UNL     1       0.635  12.006  20.616  0.00  0.00    +0.000 A 
ATOM     16  C   UNL     1      -0.010  11.102  21.442  0.00  0.00    +0.000 A 
ATOM     17  C   UNL     1      -0.853  11.338  22.661  0.00  0.00    +0.000 C 
ATOM     18  N   UNL     1       0.247   9.835  20.967  0.00  0.00    +0.000 N 
ATOM     19  C   UNL     1      -0.278   8.610  21.546  0.00  0.00    +0.000 C 
ATOM     20  C   UNL     1       1.080   9.880  19.852  0.00  0.00    +0.000 A 
BRANCH  15  21
ATOM     21  N   UNL     1       0.493  13.365  20.850  0.00  0.00    +0.000 N 
ATOM     22  C   UNL     1      -0.333  14.271  20.255  0.00  0.00    +0.000 C 
ATOM     23  O   UNL     1      -0.373  15.453  20.583  0.00  0.00    +0.000 OA
ATOM     24  H   UNL     1       1.122  13.798  21.513  0.00  0.00    +0.000 HD
ENDBRANCH  15  21
ENDBRANCH   9  20
ENDBRANCH   1  11
BRANCH   4  25
ATOM     25  C   UNL     1       4.413   4.200  16.842  0.00  0.00    +0.000 C 
ATOM     26  O   UNL     1       4.860   3.074  17.036  0.00  0.00    +0.000 OA
ATOM     27  N   UNL     1       4.705   4.895  15.679  0.00  0.00    +0.000 N 
ATOM     28  H   UNL     1       4.104   5.674  15.457  0.00  0.00    +0.000 HD
BRANCH  27  29
ATOM     29  C   UNL     1       5.572   4.371  14.631  0.00  0.00    +0.000 C 
BRANCH  29  30
ATOM     30  C   UNL     1       7.033   4.777  14.816  0.00  0.00    +0.000 C 
BRANCH  30  31
ATOM     31  C   UNL     1       7.449   5.249  16.200  0.00  0.00    +0.000 C 
ATOM     32  N   UNL     1       7.448   6.483  16.578  0.00  0.00    +0.000 NA
ATOM     33  N   UNL     1       7.853   4.323  17.113  0.00  0.00    +0.000 N 
ATOM     34  H   UNL     1       7.141   7.108  15.822  0.00  0.00    +0.000 HD
ATOM     35  H   UNL     1       7.473   3.385  17.049  0.00  0.00    +0.000 HD
ATOM     36  H   UNL     1       7.882   4.692  18.055  0.00  0.00    +0.000 HD
ENDBRANCH  30  31
ENDBRANCH  29  30
ENDBRANCH  27  29
ENDBRANCH   4  25
TORSDOF 7
ENDMDL
MODEL 9
REMARK VINA RESULT:      -6.8      1.089      2.045
REMARK  Name = 
REMARK  13 active torsions:
REMARK  status: ('A' for Active; 'I' for Inactive)
REMARK    1  A    between atoms: C_1  and  C_2
REMARK    2  A    between atoms: C_3  and  N_4
REMARK    3  A    between atoms: C_7  and  C_8
REMARK    4  A    between atoms: N_9  and  C_10
REMARK    5  A    between atoms: C_11  and  C_12
REMARK    6  A    between atoms: N_14  and  C_15
REMARK    7  A    between atoms: C_16  and  C_17
REMARK    8  A    between atoms: C_18  and  C_19
REMARK    9  A    between atoms: N_21  and  C_22
REMARK   10  A    between atoms: C_22  and  C_23
REMARK   11  A    between atoms: C_23  and  C_24
REMARK   12  A    between atoms: N_27  and  C_28
REMARK   13  A    between atoms: C_29  and  C_30
REMARK                            x       y       z     vdW  Elec       q    Type
REMARK                         _______ _______ _______ _____ _____    ______ ____
ROOT
ATOM      1  C   UNL     1       3.254   6.293  18.575  0.00  0.00    +0.000 A 
ATOM      2  C   UNL     1       4.352   6.276  17.650  0.00  0.00    +0.000 A 
ATOM      3  C   UNL     1       5.247   7.430  17.342  0.00  0.00    +0.000 C 
ATOM      4  C   UNL     1       4.539   4.953  17.214  0.00  0.00    +0.000 A 
ATOM      5  N   UNL     1       3.525   4.207  17.807  0.00  0.00    +0.000 N 
ATOM      6  C   UNL     1       3.281   2.788  17.609  0.00  0.00    +0.000 C 
ATOM      7  C   UNL     1       2.724   5.015  18.599  0.00  0.00    +0.000 A 
ATOM      8  C   UNL     1       1.491   4.521  19.285  0.00  0.00    +0.000 C 
ENDROOT
BRANCH   1  11
ATOM      9  C   UNL     1       1.896   8.325  18.706  0.00  0.00    +0.000 C 
ATOM     10  O   UNL     1       1.483   8.207  17.553  0.00  0.00    +0.000 OA
ATOM     11  N   UNL     1       2.766   7.401  19.290  0.00  0.00    +0.000 N 
ATOM     12  H   UNL     1       2.653   7.286  20.286  0.00  0.00    +0.000 HD
BRANCH   9  20
ATOM     13  C   UNL     1       1.878  11.502  18.196  0.00  0.00    +0.000 C 
ATOM     14  C   UNL     1       1.360  10.803  19.408  0.00  0.00    +0.000 A 
ATOM     15  C   UNL     1       0.632  11.367  20.519  0.00  0.00    +0.000 A 
ATOM     16  C   UNL     1       0.216  10.314  21.315  0.00  0.00    +0.000 A 
ATOM     17  C   UNL     1      -0.564  10.321  22.597  0.00  0.00    +0.000 C 
ATOM     18  N   UNL     1       0.654   9.145  20.734  0.00  0.00    +0.000 N 
ATOM     19  C   UNL     1       0.394   7.813  21.254  0.00  0.00    +0.000 C 
ATOM     20  C   UNL     1       1.383   9.405  19.577  0.00  0.00    +0.000 A 
BRANCH  15  21
ATOM     21  N   UNL     1       0.273  12.662  20.859  0.00  0.00    +0.000 N 
ATOM     22  C   UNL     1       1.045  13.693  21.305  0.00  0.00    +0.000 C 
ATOM     23  O   UNL     1       0.594  14.809  21.547  0.00  0.00    +0.000 OA
ATOM     24  H   UNL     1      -0.711  12.899  20.844  0.00  0.00    +0.000 HD
ENDBRANCH  15  21
ENDBRANCH   9  20
ENDBRANCH   1  11
BRANCH   4  25
ATOM     25  C   UNL     1       5.612   4.390  16.388  0.00  0.00    +0.000 C 
ATOM     26  O   UNL     1       6.706   4.039  16.821  0.00  0.00    +0.000 OA
ATOM     27  N   UNL     1       5.303   4.265  15.043  0.00  0.00    +0.000 N 
ATOM     28  H   UNL     1       4.324   4.307  14.801  0.00  0.00    +0.000 HD
BRANCH  27  29
ATOM     29  C   UNL     1       6.239   3.750  14.052  0.00  0.00    +0.000 C 
BRANCH  29  30
ATOM     30  C   UNL     1       5.820   4.074  12.618  0.00  0.00    +0.000 C 
BRANCH  30  31
ATOM     31  C   UNL     1       5.239   2.935  11.796  0.00  0.00    +0.000 C 
ATOM     32  N   UNL     1       4.086   2.970  11.217  0.00  0.00    +0.000 NA
ATOM     33  N   UNL     1       5.969   1.794  11.651  0.00  0.00    +0.000 N 
ATOM     34  H   UNL     1       3.605   3.862  11.392  0.00  0.00    +0.000 HD
ATOM     35  H   UNL     1       6.980   1.863  11.680  0.00  0.00    +0.000 HD
ATOM     36  H   UNL     1       5.618   1.200  10.910  0.00  0.00    +0.000 HD
ENDBRANCH  30  31
ENDBRANCH  29  30
ENDBRANCH  27  29
ENDBRANCH   4  25
TORSDOF 7
ENDMDL
