MODEL 1
REMARK VINA RESULT:      -9.0      0.000      0.000
REMARK  Name = 
REMARK  7 active torsions:
REMARK  status: ('A' for Active; 'I' for Inactive)
REMARK    1  A    between atoms: C_2  and  C_3
REMARK    2  A    between atoms: C_3  and  C_4
REMARK    3  A    between atoms: C_7  and  N_8
REMARK    4  A    between atoms: C_13  and  N_14
REMARK    5  A    between atoms: N_14  and  C_15
REMARK    6  A    between atoms: C_18  and  O_19
REMARK    7  A    between atoms: O_19  and  C_20
REMARK                            x       y       z     vdW  Elec       q    Type
REMARK                         _______ _______ _______ _____ _____    ______ ____
ROOT
ATOM      1  N   UNL     1       5.928   4.039  18.617  0.00  0.00    +0.000 N 
ATOM      2  C   UNL     1       4.811   3.709  19.390  0.00  0.00    +0.000 A 
ATOM      3  N   UNL     1       4.773   2.456  19.859  0.00  0.00    +0.000 NA
ATOM      4  C   UNL     1       3.756   2.154  20.686  0.00  0.00    +0.000 A 
ATOM      5  C   UNL     1       2.767   3.041  21.032  0.00  0.00    +0.000 A 
ATOM      6  C   UNL     1       2.865   4.301  20.498  0.00  0.00    +0.000 A 
ATOM      7  N   UNL     1       3.882   4.626  19.687  0.00  0.00    +0.000 NA
ATOM      8  H   UNL     1       6.572   3.265  18.669  0.00  0.00    +0.000 HD
ENDROOT
BRANCH   1  12
ATOM      9  C   UNL     1       7.697   7.787  17.811  0.00  0.00    +0.000 A 
ATOM     10  C   UNL     1       6.507   7.404  17.182  0.00  0.00    +0.000 A 
ATOM     11  C   UNL     1       5.917   6.175  17.484  0.00  0.00    +0.000 A 
ATOM     12  C   UNL     1       6.505   5.305  18.409  0.00  0.00    +0.000 A 
ATOM     13  C   UNL     1       7.638   5.748  19.097  0.00  0.00    +0.000 A 
ATOM     14  C   UNL     1       8.243   6.965  18.793  0.00  0.00    +0.000 A 
BRANCH   9  15
ATOM     15  C   UNL     1       8.358   9.090  17.482  0.00  0.00    +0.000 C 
BRANCH  15  17
ATOM     16  N   UNL     1       9.334  10.337  19.769  0.00  0.00    +0.000 NA
ATOM     17  C   UNL     1       8.892   9.771  18.732  0.00  0.00    +0.000 C 
ENDBRANCH  15  17
ENDBRANCH   9  15
ENDBRANCH   1  12
BRANCH   6  18
ATOM     18  N   UNL     1       1.921   5.282  20.861  0.00  0.00    +0.000 N 
ATOM     19  H   UNL     1       1.043   4.878  21.163  0.00  0.00    +0.000 HD
BRANCH  18  20
ATOM     20  C   UNL     1       1.828   6.593  20.358  0.00  0.00    +0.000 A 
ATOM     21  C   UNL     1       2.274   6.899  19.065  0.00  0.00    +0.000 A 
ATOM     22  C   UNL     1       2.053   8.168  18.513  0.00  0.00    +0.000 A 
ATOM     23  C   UNL     1       1.379   9.144  19.248  0.00  0.00    +0.000 A 
ATOM     24  C   UNL     1       1.051   8.890  20.580  0.00  0.00    +0.000 A 
ATOM     25  C   UNL     1       1.252   7.619  21.117  0.00  0.00    +0.000 A 
BRANCH  23  26
ATOM     26  O   UNL     1       1.099  10.331  18.609  0.00  0.00    +0.000 OA
BRANCH  26  27
ATOM     27  C   UNL     1      -0.209  10.771  18.552  0.00  0.00    +0.000 A 
ATOM     28  C   UNL     1      -1.070  10.034  17.736  0.00  0.00    +0.000 A 
ATOM     29  C   UNL     1      -2.404  10.423  17.587  0.00  0.00    +0.000 A 
ATOM     30  C   UNL     1      -2.881  11.551  18.254  0.00  0.00    +0.000 A 
ATOM     31  C   UNL     1      -2.038  12.268  19.099  0.00  0.00    +0.000 A 
ATOM     32  C   UNL     1      -0.714  11.861  19.273  0.00  0.00    +0.000 A 
ENDBRANCH  26  27
ENDBRANCH  23  26
ENDBRANCH  18  20
ENDBRANCH   6  18
TORSDOF 7
ENDMDL
MODEL 2
REMARK VINA RESULT:      -8.4      0.897      1.053
REMARK  Name = 
REMARK  7 active torsions:
REMARK  status: ('A' for Active; 'I' for Inactive)
REMARK    1  A    between atoms: C_2  and  C_3
REMARK    2  A    between atoms: C_3  and  C_4
REMARK    3  A    between atoms: C_7  and  N_8
REMARK    4  A    between atoms: C_13  and  N_14
REMARK    5  A    between atoms: N_14  and  C_15
REMARK    6  A    between atoms: C_18  and  O_19
REMARK    7  A    between atoms: O_19  and  C_20
REMARK                            x       y       z     vdW  Elec       q    Type
REMARK                         _______ _______ _______ _____ _____    ______ ____
ROOT
ATOM      1  N   UNL     1       4.949   4.423  18.398  0.00  0.00    +0.000 N 
ATOM      2  C   UNL     1       3.893   4.274  19.301  0.00  0.00    +0.000 A 
ATOM      3  N   UNL     1       3.589   3.016  19.642  0.00  0.00    +0.000 NA
ATOM      4  C   UNL     1       2.643   2.861  20.585  0.00  0.00    +0.000 A 
ATOM      5  C   UNL     1       1.974   3.907  21.172  0.00  0.00    +0.000 A 
ATOM      6  C   UNL     1       2.329   5.166  20.759  0.00  0.00    +0.000 A 
ATOM      7  N   UNL     1       3.284   5.340  19.832  0.00  0.00    +0.000 NA
ATOM      8  H   UNL     1       5.369   3.516  18.268  0.00  0.00    +0.000 HD
ENDROOT
BRANCH   1  12
ATOM      9  C   UNL     1       7.537   7.686  17.703  0.00  0.00    +0.000 A 
ATOM     10  C   UNL     1       6.262   7.646  17.130  0.00  0.00    +0.000 A 
ATOM     11  C   UNL     1       5.405   6.576  17.395  0.00  0.00    +0.000 A 
ATOM     12  C   UNL     1       5.806   5.525  18.228  0.00  0.00    +0.000 A 
ATOM     13  C   UNL     1       7.045   5.633  18.868  0.00  0.00    +0.000 A 
ATOM     14  C   UNL     1       7.913   6.688  18.599  0.00  0.00    +0.000 A 
BRANCH   9  15
ATOM     15  C   UNL     1       8.480   8.813  17.411  0.00  0.00    +0.000 C 
BRANCH  15  17
ATOM     16  N   UNL     1       9.141  10.208  19.725  0.00  0.00    +0.000 NA
ATOM     17  C   UNL     1       8.841   9.575  18.676  0.00  0.00    +0.000 C 
ENDBRANCH  15  17
ENDBRANCH   9  15
ENDBRANCH   1  12
BRANCH   6  18
ATOM     18  N   UNL     1       1.731   6.288  21.364  0.00  0.00    +0.000 N 
ATOM     19  H   UNL     1       1.147   6.036  22.152  0.00  0.00    +0.000 HD
BRANCH  18  20
ATOM     20  C   UNL     1       1.391   7.504  20.742  0.00  0.00    +0.000 A 
ATOM     21  C   UNL     1       1.977   7.875  19.523  0.00  0.00    +0.000 A 
ATOM     22  C   UNL     1       1.537   9.013  18.835  0.00  0.00    +0.000 A 
ATOM     23  C   UNL     1       0.503   9.791  19.356  0.00  0.00    +0.000 A 
ATOM     24  C   UNL     1       0.007   9.504  20.628  0.00  0.00    +0.000 A 
ATOM     25  C   UNL     1       0.432   8.358  21.299  0.00  0.00    +0.000 A 
BRANCH  23  26
ATOM     26  O   UNL     1       0.045  10.831  18.578  0.00  0.00    +0.000 OA
BRANCH  26  27
ATOM     27  C   UNL     1      -1.283  10.850  18.195  0.00  0.00    +0.000 A 
ATOM     28  C   UNL     1      -1.657   9.911  17.232  0.00  0.00    +0.000 A 
ATOM     29  C   UNL     1      -2.970   9.877  16.756  0.00  0.00    +0.000 A 
ATOM     30  C   UNL     1      -3.914  10.782  17.242  0.00  0.00    +0.000 A 
ATOM     31  C   UNL     1      -3.556  11.696  18.229  0.00  0.00    +0.000 A 
ATOM     32  C   UNL     1      -2.252  11.709  18.728  0.00  0.00    +0.000 A 
ENDBRANCH  26  27
ENDBRANCH  23  26
ENDBRANCH  18  20
ENDBRANCH   6  18
TORSDOF 7
ENDMDL
MODEL 3
REMARK VINA RESULT:      -8.3      4.629     10.602
REMARK  Name = 
REMARK  7 active torsions:
REMARK  status: ('A' for Active; 'I' for Inactive)
REMARK    1  A    between atoms: C_2  and  C_3
REMARK    2  A    between atoms: C_3  and  C_4
REMARK    3  A    between atoms: C_7  and  N_8
REMARK    4  A    between atoms: C_13  and  N_14
REMARK    5  A    between atoms: N_14  and  C_15
REMARK    6  A    between atoms: C_18  and  O_19
REMARK    7  A    between atoms: O_19  and  C_20
REMARK                            x       y       z     vdW  Elec       q    Type
REMARK                         _______ _______ _______ _____ _____    ______ ____
ROOT
ATOM      1  N   UNL     1      -2.626  13.986  20.236  0.00  0.00    +0.000 N 
ATOM      2  C   UNL     1      -1.349  13.553  19.869  0.00  0.00    +0.000 A 
ATOM      3  N   UNL     1      -0.328  14.293  20.318  0.00  0.00    +0.000 NA
ATOM      4  C   UNL     1       0.908  13.835  20.058  0.00  0.00    +0.000 A 
ATOM      5  C   UNL     1       1.161  12.688  19.345  0.00  0.00    +0.000 A 
ATOM      6  C   UNL     1       0.065  11.992  18.904  0.00  0.00    +0.000 A 
ATOM      7  N   UNL     1      -1.177  12.425  19.170  0.00  0.00    +0.000 NA
ATOM      8  H   UNL     1      -2.514  14.738  20.897  0.00  0.00    +0.000 HD
ENDROOT
BRANCH   1  12
ATOM      9  C   UNL     1      -6.246  11.827  20.498  0.00  0.00    +0.000 A 
ATOM     10  C   UNL     1      -5.513  11.859  19.307  0.00  0.00    +0.000 A 
ATOM     11  C   UNL     1      -4.301  12.550  19.245  0.00  0.00    +0.000 A 
ATOM     12  C   UNL     1      -3.804  13.227  20.364  0.00  0.00    +0.000 A 
ATOM     13  C   UNL     1      -4.501  13.101  21.569  0.00  0.00    +0.000 A 
ATOM     14  C   UNL     1      -5.717  12.427  21.639  0.00  0.00    +0.000 A 
BRANCH   9  15
ATOM     15  C   UNL     1      -7.559  11.113  20.577  0.00  0.00    +0.000 C 
BRANCH  15  17
ATOM     16  N   UNL     1      -7.266   8.393  20.076  0.00  0.00    +0.000 NA
ATOM     17  C   UNL     1      -7.399   9.626  20.303  0.00  0.00    +0.000 C 
ENDBRANCH  15  17
ENDBRANCH   9  15
ENDBRANCH   1  12
BRANCH   6  18
ATOM     18  N   UNL     1       0.247  10.773  18.221  0.00  0.00    +0.000 N 
ATOM     19  H   UNL     1      -0.548  10.533  17.642  0.00  0.00    +0.000 HD
BRANCH  18  20
ATOM     20  C   UNL     1       1.027   9.678  18.639  0.00  0.00    +0.000 A 
ATOM     21  C   UNL     1       0.952   9.205  19.957  0.00  0.00    +0.000 A 
ATOM     22  C   UNL     1       1.619   8.033  20.335  0.00  0.00    +0.000 A 
ATOM     23  C   UNL     1       2.364   7.317  19.397  0.00  0.00    +0.000 A 
ATOM     24  C   UNL     1       2.551   7.851  18.123  0.00  0.00    +0.000 A 
ATOM     25  C   UNL     1       1.868   9.007  17.744  0.00  0.00    +0.000 A 
BRANCH  23  26
ATOM     26  O   UNL     1       2.903   6.118  19.805  0.00  0.00    +0.000 OA
BRANCH  26  27
ATOM     27  C   UNL     1       2.267   4.941  19.458  0.00  0.00    +0.000 A 
ATOM     28  C   UNL     1       1.392   4.413  20.408  0.00  0.00    +0.000 A 
ATOM     29  C   UNL     1       0.729   3.208  20.161  0.00  0.00    +0.000 A 
ATOM     30  C   UNL     1       0.939   2.527  18.961  0.00  0.00    +0.000 A 
ATOM     31  C   UNL     1       1.782   3.069  17.994  0.00  0.00    +0.000 A 
ATOM     32  C   UNL     1       2.419   4.289  18.228  0.00  0.00    +0.000 A 
ENDBRANCH  26  27
ENDBRANCH  23  26
ENDBRANCH  18  20
ENDBRANCH   6  18
TORSDOF 7
ENDMDL
MODEL 4
REMARK VINA RESULT:      -8.2      1.346      2.105
REMARK  Name = 
REMARK  7 active torsions:
REMARK  status: ('A' for Active; 'I' for Inactive)
REMARK    1  A    between atoms: C_2  and  C_3
REMARK    2  A    between atoms: C_3  and  C_4
REMARK    3  A    between atoms: C_7  and  N_8
REMARK    4  A    between atoms: C_13  and  N_14
REMARK    5  A    between atoms: N_14  and  C_15
REMARK    6  A    between atoms: C_18  and  O_19
REMARK    7  A    between atoms: O_19  and  C_20
REMARK                            x       y       z     vdW  Elec       q    Type
REMARK                         _______ _______ _______ _____ _____    ______ ____
ROOT
ATOM      1  N   UNL     1       5.965   3.978  18.586  0.00  0.00    +0.000 N 
ATOM      2  C   UNL     1       4.847   3.751  19.395  0.00  0.00    +0.000 A 
ATOM      3  N   UNL     1       4.778   2.545  19.971  0.00  0.00    +0.000 NA
ATOM      4  C   UNL     1       3.763   2.346  20.830  0.00  0.00    +0.000 A 
ATOM      5  C   UNL     1       2.805   3.290  21.108  0.00  0.00    +0.000 A 
ATOM      6  C   UNL     1       2.934   4.496  20.466  0.00  0.00    +0.000 A 
ATOM      7  N   UNL     1       3.951   4.718  19.620  0.00  0.00    +0.000 NA
ATOM      8  H   UNL     1       6.586   3.192  18.698  0.00  0.00    +0.000 HD
ENDROOT
BRANCH   1  12
ATOM      9  C   UNL     1       7.731   7.728  17.779  0.00  0.00    +0.000 A 
ATOM     10  C   UNL     1       8.156   6.951  18.863  0.00  0.00    +0.000 A 
ATOM     11  C   UNL     1       7.585   5.699  19.097  0.00  0.00    +0.000 A 
ATOM     12  C   UNL     1       6.577   5.203  18.263  0.00  0.00    +0.000 A 
ATOM     13  C   UNL     1       6.237   5.949  17.131  0.00  0.00    +0.000 A 
ATOM     14  C   UNL     1       6.789   7.205  16.896  0.00  0.00    +0.000 A 
BRANCH   9  15
ATOM     15  C   UNL     1       8.313   9.083  17.525  0.00  0.00    +0.000 C 
BRANCH  15  17
ATOM     16  N   UNL     1       9.253  10.239  19.874  0.00  0.00    +0.000 NA
ATOM     17  C   UNL     1       8.827   9.715  18.809  0.00  0.00    +0.000 C 
ENDBRANCH  15  17
ENDBRANCH   9  15
ENDBRANCH   1  12
BRANCH   6  18
ATOM     18  N   UNL     1       2.024   5.533  20.752  0.00  0.00    +0.000 N 
ATOM     19  H   UNL     1       1.148   5.186  21.123  0.00  0.00    +0.000 HD
BRANCH  18  20
ATOM     20  C   UNL     1       1.943   6.786  20.115  0.00  0.00    +0.000 A 
ATOM     21  C   UNL     1       2.270   6.924  18.759  0.00  0.00    +0.000 A 
ATOM     22  C   UNL     1       2.054   8.137  18.092  0.00  0.00    +0.000 A 
ATOM     23  C   UNL     1       1.505   9.223  18.773  0.00  0.00    +0.000 A 
ATOM     24  C   UNL     1       1.301   9.134  20.149  0.00  0.00    +0.000 A 
ATOM     25  C   UNL     1       1.496   7.919  20.805  0.00  0.00    +0.000 A 
BRANCH  23  26
ATOM     26  O   UNL     1       1.217  10.349  18.033  0.00  0.00    +0.000 OA
BRANCH  26  27
ATOM     27  C   UNL     1       1.500  11.593  18.563  0.00  0.00    +0.000 A 
ATOM     28  C   UNL     1       0.662  12.026  19.592  0.00  0.00    +0.000 A 
ATOM     29  C   UNL     1       0.848  13.286  20.168  0.00  0.00    +0.000 A 
ATOM     30  C   UNL     1       1.875  14.116  19.716  0.00  0.00    +0.000 A 
ATOM     31  C   UNL     1       2.738  13.673  18.717  0.00  0.00    +0.000 A 
ATOM     32  C   UNL     1       2.571  12.402  18.165  0.00  0.00    +0.000 A 
ENDBRANCH  26  27
ENDBRANCH  23  26
ENDBRANCH  18  20
ENDBRANCH   6  18
TORSDOF 7
ENDMDL
MODEL 5
REMARK VINA RESULT:      -8.1      4.086      8.044
REMARK  Name = 
REMARK  7 active torsions:
REMARK  status: ('A' for Active; 'I' for Inactive)
REMARK    1  A    between atoms: C_2  and  C_3
REMARK    2  A    between atoms: C_3  and  C_4
REMARK    3  A    between atoms: C_7  and  N_8
REMARK    4  A    between atoms: C_13  and  N_14
REMARK    5  A    between atoms: N_14  and  C_15
REMARK    6  A    between atoms: C_18  and  O_19
REMARK    7  A    between atoms: O_19  and  C_20
REMARK                            x       y       z     vdW  Elec       q    Type
REMARK                         _______ _______ _______ _____ _____    ______ ____
ROOT
ATOM      1  N   UNL     1       1.934   5.702  20.668  0.00  0.00    +0.000 N 
ATOM      2  C   UNL     1       2.804   4.644  20.391  0.00  0.00    +0.000 A 
ATOM      3  N   UNL     1       2.376   3.426  20.746  0.00  0.00    +0.000 NA
ATOM      4  C   UNL     1       3.156   2.388  20.396  0.00  0.00    +0.000 A 
ATOM      5  C   UNL     1       4.353   2.524  19.736  0.00  0.00    +0.000 A 
ATOM      6  C   UNL     1       4.733   3.804  19.421  0.00  0.00    +0.000 A 
ATOM      7  N   UNL     1       3.958   4.850  19.746  0.00  0.00    +0.000 NA
ATOM      8  H   UNL     1       1.065   5.305  20.988  0.00  0.00    +0.000 HD
ENDROOT
BRANCH   1  12
ATOM      9  C   UNL     1       1.839   9.444  18.715  0.00  0.00    +0.000 A 
ATOM     10  C   UNL     1       2.254   8.291  18.039  0.00  0.00    +0.000 A 
ATOM     11  C   UNL     1       2.248   7.056  18.689  0.00  0.00    +0.000 A 
ATOM     12  C   UNL     1       1.839   6.948  20.023  0.00  0.00    +0.000 A 
ATOM     13  C   UNL     1       1.337   8.093  20.648  0.00  0.00    +0.000 A 
ATOM     14  C   UNL     1       1.351   9.333  20.014  0.00  0.00    +0.000 A 
BRANCH   9  15
ATOM     15  C   UNL     1       1.861  10.782  18.043  0.00  0.00    +0.000 C 
BRANCH  15  17
ATOM     16  N   UNL     1       1.093  12.807  19.789  0.00  0.00    +0.000 NA
ATOM     17  C   UNL     1       1.441  11.889  18.998  0.00  0.00    +0.000 C 
ENDBRANCH  15  17
ENDBRANCH   9  15
ENDBRANCH   1  12
BRANCH   6  18
ATOM     18  N   UNL     1       5.918   4.014  18.688  0.00  0.00    +0.000 N 
ATOM     19  H   UNL     1       6.674   4.356  19.268  0.00  0.00    +0.000 HD
BRANCH  18  20
ATOM     20  C   UNL     1       6.021   4.346  17.324  0.00  0.00    +0.000 A 
ATOM     21  C   UNL     1       7.256   4.702  16.764  0.00  0.00    +0.000 A 
ATOM     22  C   UNL     1       7.386   4.895  15.383  0.00  0.00    +0.000 A 
ATOM     23  C   UNL     1       6.282   4.729  14.546  0.00  0.00    +0.000 A 
ATOM     24  C   UNL     1       5.026   4.507  15.108  0.00  0.00    +0.000 A 
ATOM     25  C   UNL     1       4.905   4.293  16.481  0.00  0.00    +0.000 A 
BRANCH  23  26
ATOM     26  O   UNL     1       6.502   4.826  13.190  0.00  0.00    +0.000 OA
BRANCH  26  27
ATOM     27  C   UNL     1       6.423   3.686  12.412  0.00  0.00    +0.000 A 
ATOM     28  C   UNL     1       5.136   3.254  12.086  0.00  0.00    +0.000 A 
ATOM     29  C   UNL     1       4.954   2.092  11.332  0.00  0.00    +0.000 A 
ATOM     30  C   UNL     1       6.060   1.358  10.902  0.00  0.00    +0.000 A 
ATOM     31  C   UNL     1       7.346   1.804  11.193  0.00  0.00    +0.000 A 
ATOM     32  C   UNL     1       7.528   2.983  11.918  0.00  0.00    +0.000 A 
ENDBRANCH  26  27
ENDBRANCH  23  26
ENDBRANCH  18  20
ENDBRANCH   6  18
TORSDOF 7
ENDMDL
MODEL 6
REMARK VINA RESULT:      -8.1      3.910      8.133
REMARK  Name = 
REMARK  7 active torsions:
REMARK  status: ('A' for Active; 'I' for Inactive)
REMARK    1  A    between atoms: C_2  and  C_3
REMARK    2  A    between atoms: C_3  and  C_4
REMARK    3  A    between atoms: C_7  and  N_8
REMARK    4  A    between atoms: C_13  and  N_14
REMARK    5  A    between atoms: N_14  and  C_15
REMARK    6  A    between atoms: C_18  and  O_19
REMARK    7  A    between atoms: O_19  and  C_20
REMARK                            x       y       z     vdW  Elec       q    Type
REMARK                         _______ _______ _______ _____ _____    ______ ____
ROOT
ATOM      1  N   UNL     1       1.774   5.767  20.731  0.00  0.00    +0.000 N 
ATOM      2  C   UNL     1       2.662   4.739  20.397  0.00  0.00    +0.000 A 
ATOM      3  N   UNL     1       2.217   3.493  20.601  0.00  0.00    +0.000 NA
ATOM      4  C   UNL     1       3.019   2.494  20.193  0.00  0.00    +0.000 A 
ATOM      5  C   UNL     1       4.252   2.693  19.621  0.00  0.00    +0.000 A 
ATOM      6  C   UNL     1       4.645   3.997  19.459  0.00  0.00    +0.000 A 
ATOM      7  N   UNL     1       3.850   5.007  19.844  0.00  0.00    +0.000 NA
ATOM      8  H   UNL     1       0.889   5.342  20.958  0.00  0.00    +0.000 HD
ENDROOT
BRANCH   1  12
ATOM      9  C   UNL     1       1.399   9.677  19.183  0.00  0.00    +0.000 A 
ATOM     10  C   UNL     1       1.027   9.387  20.500  0.00  0.00    +0.000 A 
ATOM     11  C   UNL     1       1.188   8.096  21.008  0.00  0.00    +0.000 A 
ATOM     12  C   UNL     1       1.713   7.072  20.211  0.00  0.00    +0.000 A 
ATOM     13  C   UNL     1       2.168   7.406  18.932  0.00  0.00    +0.000 A 
ATOM     14  C   UNL     1       2.000   8.686  18.411  0.00  0.00    +0.000 A 
BRANCH   9  15
ATOM     15  C   UNL     1       1.211  11.049  18.613  0.00  0.00    +0.000 C 
BRANCH  15  17
ATOM     16  N   UNL     1      -1.415  11.918  18.903  0.00  0.00    +0.000 NA
ATOM     17  C   UNL     1      -0.224  11.524  18.772  0.00  0.00    +0.000 C 
ENDBRANCH  15  17
ENDBRANCH   9  15
ENDBRANCH   1  12
BRANCH   6  18
ATOM     18  N   UNL     1       5.870   4.277  18.821  0.00  0.00    +0.000 N 
ATOM     19  H   UNL     1       6.559   4.656  19.459  0.00  0.00    +0.000 HD
BRANCH  18  20
ATOM     20  C   UNL     1       6.059   4.624  17.470  0.00  0.00    +0.000 A 
ATOM     21  C   UNL     1       7.314   4.482  16.862  0.00  0.00    +0.000 A 
ATOM     22  C   UNL     1       7.471   4.691  15.486  0.00  0.00    +0.000 A 
ATOM     23  C   UNL     1       6.372   5.041  14.701  0.00  0.00    +0.000 A 
ATOM     24  C   UNL     1       5.151   5.312  15.318  0.00  0.00    +0.000 A 
ATOM     25  C   UNL     1       4.994   5.081  16.685  0.00  0.00    +0.000 A 
BRANCH  23  26
ATOM     26  O   UNL     1       6.571   5.124  13.342  0.00  0.00    +0.000 OA
BRANCH  26  27
ATOM     27  C   UNL     1       6.424   3.989  12.568  0.00  0.00    +0.000 A 
ATOM     28  C   UNL     1       5.112   3.576  12.329  0.00  0.00    +0.000 A 
ATOM     29  C   UNL     1       4.863   2.418  11.586  0.00  0.00    +0.000 A 
ATOM     30  C   UNL     1       5.927   1.671  11.080  0.00  0.00    +0.000 A 
ATOM     31  C   UNL     1       7.236   2.099  11.284  0.00  0.00    +0.000 A 
ATOM     32  C   UNL     1       7.483   3.272  11.998  0.00  0.00    +0.000 A 
ENDBRANCH  26  27
ENDBRANCH  23  26
ENDBRANCH  18  20
ENDBRANCH   6  18
TORSDOF 7
ENDMDL
MODEL 7
REMARK VINA RESULT:      -8.1      3.106      5.715
REMARK  Name = 
REMARK  7 active torsions:
REMARK  status: ('A' for Active; 'I' for Inactive)
REMARK    1  A    between atoms: C_2  and  C_3
REMARK    2  A    between atoms: C_3  and  C_4
REMARK    3  A    between atoms: C_7  and  N_8
REMARK    4  A    between atoms: C_13  and  N_14
REMARK    5  A    between atoms: N_14  and  C_15
REMARK    6  A    between atoms: C_18  and  O_19
REMARK    7  A    between atoms: O_19  and  C_20
REMARK                            x       y       z     vdW  Elec       q    Type
REMARK                         _______ _______ _______ _____ _____    ______ ____
ROOT
ATOM      1  N   UNL     1       2.198   6.609  20.599  0.00  0.00    +0.000 N 
ATOM      2  C   UNL     1       1.596   7.870  20.624  0.00  0.00    +0.000 A 
ATOM      3  N   UNL     1       1.540   8.468  21.820  0.00  0.00    +0.000 NA
ATOM      4  C   UNL     1       1.056   9.722  21.844  0.00  0.00    +0.000 A 
ATOM      5  C   UNL     1       0.599  10.384  20.730  0.00  0.00    +0.000 A 
ATOM      6  C   UNL     1       0.673   9.700  19.543  0.00  0.00    +0.000 A 
ATOM      7  N   UNL     1       1.171   8.455  19.498  0.00  0.00    +0.000 NA
ATOM      8  H   UNL     1       2.596   6.444  21.510  0.00  0.00    +0.000 HD
ENDROOT
BRANCH   1  12
ATOM      9  C   UNL     1       4.160   4.853  17.298  0.00  0.00    +0.000 A 
ATOM     10  C   UNL     1       4.871   5.604  18.241  0.00  0.00    +0.000 A 
ATOM     11  C   UNL     1       4.213   6.150  19.345  0.00  0.00    +0.000 A 
ATOM     12  C   UNL     1       2.838   5.967  19.524  0.00  0.00    +0.000 A 
ATOM     13  C   UNL     1       2.166   5.132  18.625  0.00  0.00    +0.000 A 
ATOM     14  C   UNL     1       2.809   4.594  17.513  0.00  0.00    +0.000 A 
BRANCH   9  15
ATOM     15  C   UNL     1       4.843   4.279  16.095  0.00  0.00    +0.000 C 
BRANCH  15  17
ATOM     16  N   UNL     1       7.257   5.565  15.589  0.00  0.00    +0.000 NA
ATOM     17  C   UNL     1       6.162   4.982  15.819  0.00  0.00    +0.000 C 
ENDBRANCH  15  17
ENDBRANCH   9  15
ENDBRANCH   1  12
BRANCH   6  18
ATOM     18  N   UNL     1       0.283  10.339  18.350  0.00  0.00    +0.000 N 
ATOM     19  H   UNL     1       0.968  11.015  18.034  0.00  0.00    +0.000 HD
BRANCH  18  20
ATOM     20  C   UNL     1      -1.032  10.579  17.910  0.00  0.00    +0.000 A 
ATOM     21  C   UNL     1      -1.610   9.785  16.909  0.00  0.00    +0.000 A 
ATOM     22  C   UNL     1      -2.961   9.931  16.571  0.00  0.00    +0.000 A 
ATOM     23  C   UNL     1      -3.751  10.870  17.233  0.00  0.00    +0.000 A 
ATOM     24  C   UNL     1      -3.154  11.752  18.134  0.00  0.00    +0.000 A 
ATOM     25  C   UNL     1      -1.814  11.588  18.484  0.00  0.00    +0.000 A 
BRANCH  23  26
ATOM     26  O   UNL     1      -5.095  10.888  16.931  0.00  0.00    +0.000 OA
BRANCH  26  27
ATOM     27  C   UNL     1      -5.958  11.597  17.743  0.00  0.00    +0.000 A 
ATOM     28  C   UNL     1      -6.309  12.873  17.299  0.00  0.00    +0.000 A 
ATOM     29  C   UNL     1      -7.151  13.680  18.070  0.00  0.00    +0.000 A 
ATOM     30  C   UNL     1      -7.644  13.212  19.288  0.00  0.00    +0.000 A 
ATOM     31  C   UNL     1      -7.328  11.925  19.717  0.00  0.00    +0.000 A 
ATOM     32  C   UNL     1      -6.514  11.108  18.932  0.00  0.00    +0.000 A 
ENDBRANCH  26  27
ENDBRANCH  23  26
ENDBRANCH  18  20
ENDBRANCH   6  18
TORSDOF 7
ENDMDL
MODEL 8
REMARK VINA RESULT:      -8.0      4.126      8.211
REMARK  Name = 
REMARK  7 active torsions:
REMARK  status: ('A' for Active; 'I' for Inactive)
REMARK    1  A    between atoms: C_2  and  C_3
REMARK    2  A    between atoms: C_3  and  C_4
REMARK    3  A    between atoms: C_7  and  N_8
REMARK    4  A    between atoms: C_13  and  N_14
REMARK    5  A    between atoms: N_14  and  C_15
REMARK    6  A    between atoms: C_18  and  O_19
REMARK    7  A    between atoms: O_19  and  C_20
REMARK                            x       y       z     vdW  Elec       q    Type
REMARK                         _______ _______ _______ _____ _____    ______ ____
ROOT
ATOM      1  N   UNL     1       1.868   5.804  20.831  0.00  0.00    +0.000 N 
ATOM      2  C   UNL     1       2.782   4.812  20.466  0.00  0.00    +0.000 A 
ATOM      3  N   UNL     1       2.405   3.551  20.709  0.00  0.00    +0.000 NA
ATOM      4  C   UNL     1       3.229   2.582  20.273  0.00  0.00    +0.000 A 
ATOM      5  C   UNL     1       4.421   2.826  19.635  0.00  0.00    +0.000 A 
ATOM      6  C   UNL     1       4.747   4.144  19.437  0.00  0.00    +0.000 A 
ATOM      7  N   UNL     1       3.928   5.123  19.849  0.00  0.00    +0.000 NA
ATOM      8  H   UNL     1       1.015   5.344  21.109  0.00  0.00    +0.000 HD
ENDROOT
BRANCH   1  12
ATOM      9  C   UNL     1       1.238   9.666  19.243  0.00  0.00    +0.000 A 
ATOM     10  C   UNL     1       0.885   9.365  20.563  0.00  0.00    +0.000 A 
ATOM     11  C   UNL     1       1.130   8.093  21.084  0.00  0.00    +0.000 A 
ATOM     12  C   UNL     1       1.721   7.097  20.298  0.00  0.00    +0.000 A 
ATOM     13  C   UNL     1       2.155   7.447  19.016  0.00  0.00    +0.000 A 
ATOM     14  C   UNL     1       1.903   8.708  18.482  0.00  0.00    +0.000 A 
BRANCH   9  15
ATOM     15  C   UNL     1       0.961  11.016  18.659  0.00  0.00    +0.000 C 
BRANCH  15  17
ATOM     16  N   UNL     1       1.457  13.039  20.502  0.00  0.00    +0.000 NA
ATOM     17  C   UNL     1       1.232  12.122  19.667  0.00  0.00    +0.000 C 
ENDBRANCH  15  17
ENDBRANCH   9  15
ENDBRANCH   1  12
BRANCH   6  18
ATOM     18  N   UNL     1       5.923   4.467  18.732  0.00  0.00    +0.000 N 
ATOM     19  H   UNL     1       6.480   5.164  19.211  0.00  0.00    +0.000 HD
BRANCH  18  20
ATOM     20  C   UNL     1       6.118   4.409  17.339  0.00  0.00    +0.000 A 
ATOM     21  C   UNL     1       5.073   4.036  16.483  0.00  0.00    +0.000 A 
ATOM     22  C   UNL     1       5.223   4.114  15.093  0.00  0.00    +0.000 A 
ATOM     23  C   UNL     1       6.421   4.572  14.543  0.00  0.00    +0.000 A 
ATOM     24  C   UNL     1       7.507   4.819  15.382  0.00  0.00    +0.000 A 
ATOM     25  C   UNL     1       7.346   4.761  16.766  0.00  0.00    +0.000 A 
BRANCH  23  26
ATOM     26  O   UNL     1       6.466   4.729  13.176  0.00  0.00    +0.000 OA
BRANCH  26  27
ATOM     27  C   UNL     1       6.385   3.612  12.368  0.00  0.00    +0.000 A 
ATOM     28  C   UNL     1       5.099   3.219  11.992  0.00  0.00    +0.000 A 
ATOM     29  C   UNL     1       4.913   2.080  11.203  0.00  0.00    +0.000 A 
ATOM     30  C   UNL     1       6.014   1.331  10.788  0.00  0.00    +0.000 A 
ATOM     31  C   UNL     1       7.301   1.739  11.128  0.00  0.00    +0.000 A 
ATOM     32  C   UNL     1       7.488   2.895  11.888  0.00  0.00    +0.000 A 
ENDBRANCH  26  27
ENDBRANCH  23  26
ENDBRANCH  18  20
ENDBRANCH   6  18
TORSDOF 7
ENDMDL
MODEL 9
REMARK VINA RESULT:      -8.0      1.564      2.178
REMARK  Name = 
REMARK  7 active torsions:
REMARK  status: ('A' for Active; 'I' for Inactive)
REMARK    1  A    between atoms: C_2  and  C_3
REMARK    2  A    between atoms: C_3  and  C_4
REMARK    3  A    between atoms: C_7  and  N_8
REMARK    4  A    between atoms: C_13  and  N_14
REMARK    5  A    between atoms: N_14  and  C_15
REMARK    6  A    between atoms: C_18  and  O_19
REMARK    7  A    between atoms: O_19  and  C_20
REMARK                            x       y       z     vdW  Elec       q    Type
REMARK                         _______ _______ _______ _____ _____    ______ ____
ROOT
ATOM      1  N   UNL     1       6.268   4.809  18.178  0.00  0.00    +0.000 N 
ATOM      2  C   UNL     1       5.131   4.385  18.873  0.00  0.00    +0.000 A 
ATOM      3  N   UNL     1       5.054   3.072  19.121  0.00  0.00    +0.000 NA
ATOM      4  C   UNL     1       4.018   2.662  19.874  0.00  0.00    +0.000 A 
ATOM      5  C   UNL     1       3.047   3.506  20.358  0.00  0.00    +0.000 A 
ATOM      6  C   UNL     1       3.186   4.835  20.047  0.00  0.00    +0.000 A 
ATOM      7  N   UNL     1       4.224   5.264  19.313  0.00  0.00    +0.000 NA
ATOM      8  H   UNL     1       6.891   4.020  18.103  0.00  0.00    +0.000 HD
ENDROOT
BRANCH   1  12
ATOM      9  C   UNL     1       8.169   8.577  18.047  0.00  0.00    +0.000 A 
ATOM     10  C   UNL     1       7.071   8.297  17.226  0.00  0.00    +0.000 A 
ATOM     11  C   UNL     1       6.432   7.058  17.305  0.00  0.00    +0.000 A 
ATOM     12  C   UNL     1       6.881   6.075  18.194  0.00  0.00    +0.000 A 
ATOM     13  C   UNL     1       7.915   6.410  19.072  0.00  0.00    +0.000 A 
ATOM     14  C   UNL     1       8.569   7.637  18.993  0.00  0.00    +0.000 A 
BRANCH   9  15
ATOM     15  C   UNL     1       8.882   9.891  17.960  0.00  0.00    +0.000 C 
BRANCH  15  17
ATOM     16  N   UNL     1       9.564  10.844  20.483  0.00  0.00    +0.000 NA
ATOM     17  C   UNL     1       9.255  10.412  19.339  0.00  0.00    +0.000 C 
ENDBRANCH  15  17
ENDBRANCH   9  15
ENDBRANCH   1  12
BRANCH   6  18
ATOM     18  N   UNL     1       2.264   5.766  20.563  0.00  0.00    +0.000 N 
ATOM     19  H   UNL     1       1.482   5.319  21.026  0.00  0.00    +0.000 HD
BRANCH  18  20
ATOM     20  C   UNL     1       1.998   7.057  20.069  0.00  0.00    +0.000 A 
ATOM     21  C   UNL     1       2.272   7.384  18.734  0.00  0.00    +0.000 A 
ATOM     22  C   UNL     1       1.879   8.620  18.204  0.00  0.00    +0.000 A 
ATOM     23  C   UNL     1       1.203   9.541  19.005  0.00  0.00    +0.000 A 
ATOM     24  C   UNL     1       1.045   9.278  20.365  0.00  0.00    +0.000 A 
ATOM     25  C   UNL     1       1.418   8.037  20.882  0.00  0.00    +0.000 A 
BRANCH  23  26
ATOM     26  O   UNL     1       0.748  10.690  18.396  0.00  0.00    +0.000 OA
BRANCH  26  27
ATOM     27  C   UNL     1       1.349  11.896  18.701  0.00  0.00    +0.000 A 
ATOM     28  C   UNL     1       0.724  12.660  19.688  0.00  0.00    +0.000 A 
ATOM     29  C   UNL     1       1.238  13.911  20.041  0.00  0.00    +0.000 A 
ATOM     30  C   UNL     1       2.379  14.401  19.407  0.00  0.00    +0.000 A 
ATOM     31  C   UNL     1       3.029  13.627  18.448  0.00  0.00    +0.000 A 
ATOM     32  C   UNL     1       2.533  12.364  18.119  0.00  0.00    +0.000 A 
ENDBRANCH  26  27
ENDBRANCH  23  26
ENDBRANCH  18  20
ENDBRANCH   6  18
TORSDOF 7
ENDMDL
