MODEL 1
REMARK VINA RESULT:      -7.3      0.000      0.000
REMARK  Name = 
REMARK  13 active torsions:
REMARK  status: ('A' for Active; 'I' for Inactive)
REMARK    1  A    between atoms: N_1  and  C_2
REMARK    2  A    between atoms: N_10  and  C_11
REMARK    3  A    between atoms: C_13  and  C_14
REMARK    4  A    between atoms: C_14  and  C_15
REMARK    5  A    between atoms: C_15  and  N_16
REMARK    6  A    between atoms: C_15  and  C_17
REMARK    7  A    between atoms: C_17  and  C_18
REMARK    8  A    between atoms: C_18  and  CA_19
REMARK    9  A    between atoms: CA_19  and  N_20
REMARK   10  A    between atoms: CA_19  and  C_21
REMARK   11  A    between atoms: C_21  and  OXT_23
REMARK   12  A    between atoms: C_24  and  O_25
REMARK   13  A    between atoms: C_26  and  O_27
REMARK                            x       y       z     vdW  Elec       q    Type
REMARK                         _______ _______ _______ _____ _____    ______ ____
ROOT
ATOM      1  C   UNL     1       2.919   6.078  19.465  0.00  0.00    +0.000 C 
ATOM      2  O   UNL     1       4.057   5.687  18.663  0.00  0.00    +0.000 OA
ATOM      3  C   UNL     1       3.930   4.285  18.337  0.00  0.00    +0.000 C 
ATOM      4  C   UNL     1       2.801   3.734  19.207  0.00  0.00    +0.000 C 
ATOM      5  C   UNL     1       1.902   4.937  19.433  0.00  0.00    +0.000 C 
ENDROOT
BRANCH   1  14
ATOM      6  C   UNL     1       0.696  10.396  19.289  0.00  0.00    +0.000 A 
ATOM      7  N   UNL     1       0.187  10.336  20.543  0.00  0.00    +0.000 NA
ATOM      8  C   UNL     1       0.430   9.233  21.280  0.00  0.00    +0.000 A 
ATOM      9  N   UNL     1       1.146   8.148  20.939  0.00  0.00    +0.000 NA
ATOM     10  C   UNL     1       1.639   8.251  19.694  0.00  0.00    +0.000 A 
ATOM     11  C   UNL     1       1.465   9.316  18.824  0.00  0.00    +0.000 A 
ATOM     12  N   UNL     1       2.127   9.091  17.634  0.00  0.00    +0.000 NA
ATOM     13  C   UNL     1       2.686   7.911  17.781  0.00  0.00    +0.000 A 
ATOM     14  N   UNL     1       2.415   7.357  19.008  0.00  0.00    +0.000 N 
BRANCH   6  15
ATOM     15  N   UNL     1       0.445  11.531  18.529  0.00  0.00    +0.000 N 
ATOM     16  H   UNL     1       0.309  11.308  17.550  0.00  0.00    +0.000 HD
ATOM     17  H   UNL     1      -0.225  12.159  18.962  0.00  0.00    +0.000 HD
ENDBRANCH   6  15
ENDBRANCH   1  14
BRANCH   4  18
ATOM     18  O   UNL     1       3.292   3.308  20.495  0.00  0.00    +0.000 OA
ATOM     19  H   UNL     1       2.845   3.820  21.195  0.00  0.00    +0.000 HD
ENDBRANCH   4  18
BRANCH   5  20
ATOM     20  O   UNL     1       1.184   4.820  20.664  0.00  0.00    +0.000 OA
ATOM     21  H   UNL     1       1.845   4.971  21.375  0.00  0.00    +0.000 HD
ENDBRANCH   5  20
BRANCH   3  22
ATOM     22  C   UNL     1       3.679   4.118  16.833  0.00  0.00    +0.000 C 
BRANCH  22  23
ATOM     23  C   UNL     1       4.937   4.348  15.972  0.00  0.00    +0.000 C 
BRANCH  23  24
ATOM     24  N   UNL     1       5.986   3.435  16.434  0.00  0.00    +0.000 NA
ATOM     25  H   UNL     1       6.631   3.922  17.056  0.00  0.00    +0.000 HD
ATOM     26  H   UNL     1       6.553   3.106  15.653  0.00  0.00    +0.000 HD
ENDBRANCH  23  24
BRANCH  23  27
ATOM     27  C   UNL     1       5.427   5.808  16.038  0.00  0.00    +0.000 C 
BRANCH  27  28
ATOM     28  C   UNL     1       6.883   5.997  16.492  0.00  0.00    +0.000 C 
BRANCH  28  29
ATOM     29  CA  UNL     1       7.038   6.547  17.917  0.00  0.00    +0.000 C 
BRANCH  29  30
ATOM     30  N   UNL     1       7.973   7.690  17.882  0.00  0.00    +0.000 NA
ATOM     31  H1  UNL     1       7.678   8.362  18.597  0.00  0.00    +0.000 HD
ATOM     32  H2  UNL     1       7.866   8.190  16.998  0.00  0.00    +0.000 HD
ENDBRANCH  29  30
BRANCH  29  33
ATOM     33  C   UNL     1       7.587   5.469  18.869  0.00  0.00    +0.000 C 
ATOM     34  O   UNL     1       7.531   5.547  20.090  0.00  0.00    +0.000 OA
BRANCH  33  35
ATOM     35  OXT UNL     1       8.122   4.397  18.244  0.00  0.00    +0.000 OA
ATOM     36  HXT UNL     1       8.548   4.585  17.383  0.00  0.00    +0.000 HD
ENDBRANCH  33  35
ENDBRANCH  29  33
ENDBRANCH  28  29
ENDBRANCH  27  28
ENDBRANCH  23  27
ENDBRANCH  22  23
ENDBRANCH   3  22
TORSDOF 13
ENDMDL
MODEL 2
REMARK VINA RESULT:      -7.2      2.159      2.752
REMARK  Name = 
REMARK  13 active torsions:
REMARK  status: ('A' for Active; 'I' for Inactive)
REMARK    1  A    between atoms: N_1  and  C_2
REMARK    2  A    between atoms: N_10  and  C_11
REMARK    3  A    between atoms: C_13  and  C_14
REMARK    4  A    between atoms: C_14  and  C_15
REMARK    5  A    between atoms: C_15  and  N_16
REMARK    6  A    between atoms: C_15  and  C_17
REMARK    7  A    between atoms: C_17  and  C_18
REMARK    8  A    between atoms: C_18  and  CA_19
REMARK    9  A    between atoms: CA_19  and  N_20
REMARK   10  A    between atoms: CA_19  and  C_21
REMARK   11  A    between atoms: C_21  and  OXT_23
REMARK   12  A    between atoms: C_24  and  O_25
REMARK   13  A    between atoms: C_26  and  O_27
REMARK                            x       y       z     vdW  Elec       q    Type
REMARK                         _______ _______ _______ _____ _____    ______ ____
ROOT
ATOM      1  C   UNL     1       2.885   5.553  19.904  0.00  0.00    +0.000 C 
ATOM      2  O   UNL     1       4.200   5.168  19.440  0.00  0.00    +0.000 OA
ATOM      3  C   UNL     1       4.178   3.760  19.116  0.00  0.00    +0.000 C 
ATOM      4  C   UNL     1       2.865   3.205  19.664  0.00  0.00    +0.000 C 
ATOM      5  C   UNL     1       1.925   4.398  19.623  0.00  0.00    +0.000 C 
ENDROOT
BRANCH   1  14
ATOM      6  C   UNL     1       1.064  10.009  19.235  0.00  0.00    +0.000 A 
ATOM      7  N   UNL     1       0.527  10.122  20.473  0.00  0.00    +0.000 NA
ATOM      8  C   UNL     1       0.656   9.082  21.323  0.00  0.00    +0.000 A 
ATOM      9  N   UNL     1       1.277   7.910  21.113  0.00  0.00    +0.000 NA
ATOM     10  C   UNL     1       1.801   7.842  19.879  0.00  0.00    +0.000 A 
ATOM     11  C   UNL     1       1.742   8.824  18.903  0.00  0.00    +0.000 A 
ATOM     12  N   UNL     1       2.403   8.422  17.760  0.00  0.00    +0.000 NA
ATOM     13  C   UNL     1       2.851   7.218  18.040  0.00  0.00    +0.000 A 
ATOM     14  N   UNL     1       2.507   6.819  19.308  0.00  0.00    +0.000 N 
BRANCH   6  15
ATOM     15  N   UNL     1       0.931  11.078  18.358  0.00  0.00    +0.000 N 
ATOM     16  H   UNL     1       1.822  11.359  17.966  0.00  0.00    +0.000 HD
ATOM     17  H   UNL     1       0.151  10.970  17.716  0.00  0.00    +0.000 HD
ENDBRANCH   6  15
ENDBRANCH   1  14
BRANCH   4  18
ATOM     18  O   UNL     1       2.999   2.803  21.044  0.00  0.00    +0.000 OA
ATOM     19  H   UNL     1       2.293   2.167  21.264  0.00  0.00    +0.000 HD
ENDBRANCH   4  18
BRANCH   5  20
ATOM     20  O   UNL     1       0.907   4.286  20.621  0.00  0.00    +0.000 OA
ATOM     21  H   UNL     1       0.987   5.093  21.176  0.00  0.00    +0.000 HD
ENDBRANCH   5  20
BRANCH   3  22
ATOM     22  C   UNL     1       4.338   3.568  17.603  0.00  0.00    +0.000 C 
BRANCH  22  23
ATOM     23  C   UNL     1       5.666   4.124  17.051  0.00  0.00    +0.000 C 
BRANCH  23  24
ATOM     24  N   UNL     1       6.611   4.250  18.163  0.00  0.00    +0.000 NA
ATOM     25  H   UNL     1       7.393   4.848  17.897  0.00  0.00    +0.000 HD
ATOM     26  H   UNL     1       7.023   3.346  18.396  0.00  0.00    +0.000 HD
ENDBRANCH  23  24
BRANCH  23  27
ATOM     27  C   UNL     1       5.479   5.483  16.347  0.00  0.00    +0.000 C 
BRANCH  27  28
ATOM     28  C   UNL     1       5.573   5.453  14.814  0.00  0.00    +0.000 C 
BRANCH  28  29
ATOM     29  CA  UNL     1       6.699   4.567  14.264  0.00  0.00    +0.000 C 
BRANCH  29  30
ATOM     30  N   UNL     1       7.890   5.409  14.031  0.00  0.00    +0.000 NA
ATOM     31  H1  UNL     1       8.582   5.185  14.752  0.00  0.00    +0.000 HD
ATOM     32  H2  UNL     1       7.652   6.388  14.197  0.00  0.00    +0.000 HD
ENDBRANCH  29  30
BRANCH  29  33
ATOM     33  C   UNL     1       6.282   3.900  12.941  0.00  0.00    +0.000 C 
ATOM     34  O   UNL     1       7.059   3.657  12.026  0.00  0.00    +0.000 OA
BRANCH  33  35
ATOM     35  OXT UNL     1       4.973   3.571  12.874  0.00  0.00    +0.000 OA
ATOM     36  HXT UNL     1       4.560   3.325  13.727  0.00  0.00    +0.000 HD
ENDBRANCH  33  35
ENDBRANCH  29  33
ENDBRANCH  28  29
ENDBRANCH  27  28
ENDBRANCH  23  27
ENDBRANCH  22  23
ENDBRANCH   3  22
TORSDOF 13
ENDMDL
MODEL 3
REMARK VINA RESULT:      -7.1      1.310      1.408
REMARK  Name = 
REMARK  13 active torsions:
REMARK  status: ('A' for Active; 'I' for Inactive)
REMARK    1  A    between atoms: N_1  and  C_2
REMARK    2  A    between atoms: N_10  and  C_11
REMARK    3  A    between atoms: C_13  and  C_14
REMARK    4  A    between atoms: C_14  and  C_15
REMARK    5  A    between atoms: C_15  and  N_16
REMARK    6  A    between atoms: C_15  and  C_17
REMARK    7  A    between atoms: C_17  and  C_18
REMARK    8  A    between atoms: C_18  and  CA_19
REMARK    9  A    between atoms: CA_19  and  N_20
REMARK   10  A    between atoms: CA_19  and  C_21
REMARK   11  A    between atoms: C_21  and  OXT_23
REMARK   12  A    between atoms: C_24  and  O_25
REMARK   13  A    between atoms: C_26  and  O_27
REMARK                            x       y       z     vdW  Elec       q    Type
REMARK                         _______ _______ _______ _____ _____    ______ ____
ROOT
ATOM      1  C   UNL     1       2.565   5.494  20.046  0.00  0.00    +0.000 C 
ATOM      2  O   UNL     1       3.893   5.097  19.632  0.00  0.00    +0.000 OA
ATOM      3  C   UNL     1       3.871   3.689  19.309  0.00  0.00    +0.000 C 
ATOM      4  C   UNL     1       2.534   3.145  19.809  0.00  0.00    +0.000 C 
ATOM      5  C   UNL     1       1.607   4.346  19.731  0.00  0.00    +0.000 C 
ENDROOT
BRANCH   1  14
ATOM      6  C   UNL     1       1.077  10.071  19.376  0.00  0.00    +0.000 A 
ATOM      7  N   UNL     1       0.741  10.294  20.669  0.00  0.00    +0.000 NA
ATOM      8  C   UNL     1       0.898   9.287  21.553  0.00  0.00    +0.000 A 
ATOM      9  N   UNL     1       1.373   8.051  21.327  0.00  0.00    +0.000 NA
ATOM     10  C   UNL     1       1.702   7.874  20.037  0.00  0.00    +0.000 A 
ATOM     11  C   UNL     1       1.588   8.811  19.022  0.00  0.00    +0.000 A 
ATOM     12  N   UNL     1       2.035   8.294  17.824  0.00  0.00    +0.000 NA
ATOM     13  C   UNL     1       2.408   7.066  18.109  0.00  0.00    +0.000 A 
ATOM     14  N   UNL     1       2.220   6.761  19.434  0.00  0.00    +0.000 N 
BRANCH   6  15
ATOM     15  N   UNL     1       0.914  11.107  18.464  0.00  0.00    +0.000 N 
ATOM     16  H   UNL     1       0.577  11.953  18.909  0.00  0.00    +0.000 HD
ATOM     17  H   UNL     1       1.696  11.197  17.822  0.00  0.00    +0.000 HD
ENDBRANCH   6  15
ENDBRANCH   1  14
BRANCH   4  18
ATOM     18  O   UNL     1       2.614   2.745  21.193  0.00  0.00    +0.000 OA
ATOM     19  H   UNL     1       3.509   2.937  21.532  0.00  0.00    +0.000 HD
ENDBRANCH   4  18
BRANCH   5  20
ATOM     20  O   UNL     1       0.552   4.245  20.691  0.00  0.00    +0.000 OA
ATOM     21  H   UNL     1       0.038   3.445  20.442  0.00  0.00    +0.000 HD
ENDBRANCH   5  20
BRANCH   3  22
ATOM     22  C   UNL     1       4.085   3.493  17.803  0.00  0.00    +0.000 C 
BRANCH  22  23
ATOM     23  C   UNL     1       5.416   4.081  17.291  0.00  0.00    +0.000 C 
BRANCH  23  24
ATOM     24  N   UNL     1       6.339   4.187  18.423  0.00  0.00    +0.000 NA
ATOM     25  H   UNL     1       7.264   4.474  18.100  0.00  0.00    +0.000 HD
ATOM     26  H   UNL     1       6.473   3.281  18.872  0.00  0.00    +0.000 HD
ENDBRANCH  23  24
BRANCH  23  27
ATOM     27  C   UNL     1       5.224   5.456  16.622  0.00  0.00    +0.000 C 
BRANCH  27  28
ATOM     28  C   UNL     1       5.711   6.663  17.438  0.00  0.00    +0.000 C 
BRANCH  28  29
ATOM     29  CA  UNL     1       7.038   7.264  16.953  0.00  0.00    +0.000 C 
BRANCH  29  30
ATOM     30  N   UNL     1       7.711   6.279  16.082  0.00  0.00    +0.000 NA
ATOM     31  H1  UNL     1       8.081   6.779  15.267  0.00  0.00    +0.000 HD
ATOM     32  H2  UNL     1       7.018   5.636  15.697  0.00  0.00    +0.000 HD
ENDBRANCH  29  30
BRANCH  29  33
ATOM     33  C   UNL     1       7.957   7.605  18.140  0.00  0.00    +0.000 C 
ATOM     34  O   UNL     1       8.432   8.716  18.336  0.00  0.00    +0.000 OA
BRANCH  33  35
ATOM     35  OXT UNL     1       8.184   6.572  18.981  0.00  0.00    +0.000 OA
ATOM     36  HXT UNL     1       8.238   5.692  18.556  0.00  0.00    +0.000 HD
ENDBRANCH  33  35
ENDBRANCH  29  33
ENDBRANCH  28  29
ENDBRANCH  27  28
ENDBRANCH  23  27
ENDBRANCH  22  23
ENDBRANCH   3  22
TORSDOF 13
ENDMDL
MODEL 4
REMARK VINA RESULT:      -7.1      2.632      3.418
REMARK  Name = 
REMARK  13 active torsions:
REMARK  status: ('A' for Active; 'I' for Inactive)
REMARK    1  A    between atoms: N_1  and  C_2
REMARK    2  A    between atoms: N_10  and  C_11
REMARK    3  A    between atoms: C_13  and  C_14
REMARK    4  A    between atoms: C_14  and  C_15
REMARK    5  A    between atoms: C_15  and  N_16
REMARK    6  A    between atoms: C_15  and  C_17
REMARK    7  A    between atoms: C_17  and  C_18
REMARK    8  A    between atoms: C_18  and  CA_19
REMARK    9  A    between atoms: CA_19  and  N_20
REMARK   10  A    between atoms: CA_19  and  C_21
REMARK   11  A    between atoms: C_21  and  OXT_23
REMARK   12  A    between atoms: C_24  and  O_25
REMARK   13  A    between atoms: C_26  and  O_27
REMARK                            x       y       z     vdW  Elec       q    Type
REMARK                         _______ _______ _______ _____ _____    ______ ____
ROOT
ATOM      1  C   UNL     1       3.152   5.784  19.400  0.00  0.00    +0.000 C 
ATOM      2  O   UNL     1       4.454   5.513  18.831  0.00  0.00    +0.000 OA
ATOM      3  C   UNL     1       4.491   4.133  18.405  0.00  0.00    +0.000 C 
ATOM      4  C   UNL     1       3.249   3.461  18.989  0.00  0.00    +0.000 C 
ATOM      5  C   UNL     1       2.243   4.595  19.093  0.00  0.00    +0.000 C 
ENDROOT
BRANCH   1  14
ATOM      6  C   UNL     1       0.984  10.126  19.153  0.00  0.00    +0.000 A 
ATOM      7  N   UNL     1       0.468  10.090  20.405  0.00  0.00    +0.000 NA
ATOM      8  C   UNL     1       0.694   8.994  21.159  0.00  0.00    +0.000 A 
ATOM      9  N   UNL     1       1.398   7.896  20.836  0.00  0.00    +0.000 NA
ATOM     10  C   UNL     1       1.898   7.975  19.593  0.00  0.00    +0.000 A 
ATOM     11  C   UNL     1       1.742   9.030  18.708  0.00  0.00    +0.000 A 
ATOM     12  N   UNL     1       2.406   8.781  17.524  0.00  0.00    +0.000 NA
ATOM     13  C   UNL     1       2.950   7.596  17.690  0.00  0.00    +0.000 A 
ATOM     14  N   UNL     1       2.666   7.063  18.923  0.00  0.00    +0.000 N 
BRANCH   6  15
ATOM     15  N   UNL     1       0.750  11.253  18.376  0.00  0.00    +0.000 N 
ATOM     16  H   UNL     1       1.516  11.915  18.430  0.00  0.00    +0.000 HD
ATOM     17  H   UNL     1       0.388  11.031  17.453  0.00  0.00    +0.000 HD
ENDBRANCH   6  15
ENDBRANCH   1  14
BRANCH   4  18
ATOM     18  O   UNL     1       3.495   2.973  20.324  0.00  0.00    +0.000 OA
ATOM     19  H   UNL     1       2.933   3.462  20.954  0.00  0.00    +0.000 HD
ENDBRANCH   4  18
BRANCH   5  20
ATOM     20  O   UNL     1       1.300   4.352  20.140  0.00  0.00    +0.000 OA
ATOM     21  H   UNL     1       1.758   4.594  20.974  0.00  0.00    +0.000 HD
ENDBRANCH   5  20
BRANCH   3  22
ATOM     22  C   UNL     1       4.563   4.058  16.874  0.00  0.00    +0.000 C 
BRANCH  22  23
ATOM     23  C   UNL     1       6.001   3.937  16.333  0.00  0.00    +0.000 C 
BRANCH  23  24
ATOM     24  N   UNL     1       6.929   4.344  17.393  0.00  0.00    +0.000 NA
ATOM     25  H   UNL     1       7.893   4.238  17.078  0.00  0.00    +0.000 HD
ATOM     26  H   UNL     1       6.837   3.740  18.209  0.00  0.00    +0.000 HD
ENDBRANCH  23  24
BRANCH  23  27
ATOM     27  C   UNL     1       6.221   4.791  15.069  0.00  0.00    +0.000 C 
BRANCH  27  28
ATOM     28  C   UNL     1       5.459   4.327  13.818  0.00  0.00    +0.000 C 
BRANCH  28  29
ATOM     29  CA  UNL     1       6.290   3.473  12.849  0.00  0.00    +0.000 C 
BRANCH  29  30
ATOM     30  N   UNL     1       7.179   4.366  12.077  0.00  0.00    +0.000 NA
ATOM     31  H1  UNL     1       6.934   5.333  12.309  0.00  0.00    +0.000 HD
ATOM     32  H2  UNL     1       6.967   4.279  11.082  0.00  0.00    +0.000 HD
ENDBRANCH  29  30
BRANCH  29  33
ATOM     33  C   UNL     1       5.382   2.697  11.878  0.00  0.00    +0.000 C 
ATOM     34  O   UNL     1       4.328   3.135  11.434  0.00  0.00    +0.000 OA
BRANCH  33  35
ATOM     35  OXT UNL     1       5.858   1.483  11.524  0.00  0.00    +0.000 OA
ATOM     36  HXT UNL     1       6.434   1.476  10.733  0.00  0.00    +0.000 HD
ENDBRANCH  33  35
ENDBRANCH  29  33
ENDBRANCH  28  29
ENDBRANCH  27  28
ENDBRANCH  23  27
ENDBRANCH  22  23
ENDBRANCH   3  22
TORSDOF 13
ENDMDL
MODEL 5
REMARK VINA RESULT:      -7.0      3.324      5.658
REMARK  Name = 
REMARK  13 active torsions:
REMARK  status: ('A' for Active; 'I' for Inactive)
REMARK    1  A    between atoms: N_1  and  C_2
REMARK    2  A    between atoms: N_10  and  C_11
REMARK    3  A    between atoms: C_13  and  C_14
REMARK    4  A    between atoms: C_14  and  C_15
REMARK    5  A    between atoms: C_15  and  N_16
REMARK    6  A    between atoms: C_15  and  C_17
REMARK    7  A    between atoms: C_17  and  C_18
REMARK    8  A    between atoms: C_18  and  CA_19
REMARK    9  A    between atoms: CA_19  and  N_20
REMARK   10  A    between atoms: CA_19  and  C_21
REMARK   11  A    between atoms: C_21  and  OXT_23
REMARK   12  A    between atoms: C_24  and  O_25
REMARK   13  A    between atoms: C_26  and  O_27
REMARK                            x       y       z     vdW  Elec       q    Type
REMARK                         _______ _______ _______ _____ _____    ______ ____
ROOT
ATOM      1  C   UNL     1       5.828   5.814  19.098  0.00  0.00    +0.000 C 
ATOM      2  O   UNL     1       5.640   6.290  17.745  0.00  0.00    +0.000 OA
ATOM      3  C   UNL     1       6.925   6.318  17.086  0.00  0.00    +0.000 C 
ATOM      4  C   UNL     1       7.980   6.108  18.171  0.00  0.00    +0.000 C 
ATOM      5  C   UNL     1       7.255   5.281  19.220  0.00  0.00    +0.000 C 
ENDROOT
BRANCH   1  14
ATOM      6  C   UNL     1       1.574   3.837  20.367  0.00  0.00    +0.000 A 
ATOM      7  N   UNL     1       0.927   5.014  20.545  0.00  0.00    +0.000 NA
ATOM      8  C   UNL     1       1.616   6.158  20.354  0.00  0.00    +0.000 A 
ATOM      9  N   UNL     1       2.899   6.302  19.983  0.00  0.00    +0.000 NA
ATOM     10  C   UNL     1       3.501   5.114  19.810  0.00  0.00    +0.000 A 
ATOM     11  C   UNL     1       2.923   3.865  19.976  0.00  0.00    +0.000 A 
ATOM     12  N   UNL     1       3.830   2.864  19.696  0.00  0.00    +0.000 NA
ATOM     13  C   UNL     1       4.935   3.495  19.369  0.00  0.00    +0.000 A 
ATOM     14  N   UNL     1       4.790   4.859  19.430  0.00  0.00    +0.000 N 
BRANCH   6  15
ATOM     15  N   UNL     1       0.866   2.658  20.565  0.00  0.00    +0.000 N 
ATOM     16  H   UNL     1       1.475   1.890  20.822  0.00  0.00    +0.000 HD
ATOM     17  H   UNL     1       0.023   2.790  21.116  0.00  0.00    +0.000 HD
ENDBRANCH   6  15
ENDBRANCH   1  14
BRANCH   4  18
ATOM     18  O   UNL     1       8.357   7.358  18.786  0.00  0.00    +0.000 OA
ATOM     19  H   UNL     1       7.694   8.039  18.562  0.00  0.00    +0.000 HD
ENDBRANCH   4  18
BRANCH   5  20
ATOM     20  O   UNL     1       7.805   5.503  20.521  0.00  0.00    +0.000 OA
ATOM     21  H   UNL     1       7.104   5.961  21.034  0.00  0.00    +0.000 HD
ENDBRANCH   5  20
BRANCH   3  22
ATOM     22  C   UNL     1       6.970   5.257  15.978  0.00  0.00    +0.000 C 
BRANCH  22  23
ATOM     23  C   UNL     1       5.597   4.623  15.681  0.00  0.00    +0.000 C 
BRANCH  23  24
ATOM     24  N   UNL     1       5.536   3.320  16.349  0.00  0.00    +0.000 NA
ATOM     25  H   UNL     1       4.568   3.007  16.427  0.00  0.00    +0.000 HD
ATOM     26  H   UNL     1       5.883   3.384  17.306  0.00  0.00    +0.000 HD
ENDBRANCH  23  24
BRANCH  23  27
ATOM     27  C   UNL     1       5.345   4.464  14.168  0.00  0.00    +0.000 C 
BRANCH  27  28
ATOM     28  C   UNL     1       6.309   3.520  13.433  0.00  0.00    +0.000 C 
BRANCH  28  29
ATOM     29  CA  UNL     1       5.997   3.329  11.942  0.00  0.00    +0.000 C 
BRANCH  29  30
ATOM     30  N   UNL     1       4.531   3.278  11.770  0.00  0.00    +0.000 NA
ATOM     31  H1  UNL     1       4.144   4.173  12.085  0.00  0.00    +0.000 HD
ATOM     32  H2  UNL     1       4.137   2.588  12.411  0.00  0.00    +0.000 HD
ENDBRANCH  29  30
BRANCH  29  33
ATOM     33  C   UNL     1       6.617   2.025  11.410  0.00  0.00    +0.000 C 
ATOM     34  O   UNL     1       7.758   1.941  10.974  0.00  0.00    +0.000 OA
BRANCH  33  35
ATOM     35  OXT UNL     1       5.800   0.951  11.486  0.00  0.00    +0.000 OA
ATOM     36  HXT UNL     1       5.940   0.270  10.797  0.00  0.00    +0.000 HD
ENDBRANCH  33  35
ENDBRANCH  29  33
ENDBRANCH  28  29
ENDBRANCH  27  28
ENDBRANCH  23  27
ENDBRANCH  22  23
ENDBRANCH   3  22
TORSDOF 13
ENDMDL
MODEL 6
REMARK VINA RESULT:      -7.0      3.017      3.975
REMARK  Name = 
REMARK  13 active torsions:
REMARK  status: ('A' for Active; 'I' for Inactive)
REMARK    1  A    between atoms: N_1  and  C_2
REMARK    2  A    between atoms: N_10  and  C_11
REMARK    3  A    between atoms: C_13  and  C_14
REMARK    4  A    between atoms: C_14  and  C_15
REMARK    5  A    between atoms: C_15  and  N_16
REMARK    6  A    between atoms: C_15  and  C_17
REMARK    7  A    between atoms: C_17  and  C_18
REMARK    8  A    between atoms: C_18  and  CA_19
REMARK    9  A    between atoms: CA_19  and  N_20
REMARK   10  A    between atoms: CA_19  and  C_21
REMARK   11  A    between atoms: C_21  and  OXT_23
REMARK   12  A    between atoms: C_24  and  O_25
REMARK   13  A    between atoms: C_26  and  O_27
REMARK                            x       y       z     vdW  Elec       q    Type
REMARK                         _______ _______ _______ _____ _____    ______ ____
ROOT
ATOM      1  C   UNL     1       4.026   5.733  18.874  0.00  0.00    +0.000 C 
ATOM      2  O   UNL     1       5.258   5.713  18.116  0.00  0.00    +0.000 OA
ATOM      3  C   UNL     1       5.468   4.373  17.617  0.00  0.00    +0.000 C 
ATOM      4  C   UNL     1       4.459   3.476  18.333  0.00  0.00    +0.000 C 
ATOM      5  C   UNL     1       3.300   4.410  18.635  0.00  0.00    +0.000 C 
ENDROOT
BRANCH   1  14
ATOM      6  C   UNL     1       0.980   9.512  19.103  0.00  0.00    +0.000 A 
ATOM      7  N   UNL     1       0.528   9.245  20.352  0.00  0.00    +0.000 NA
ATOM      8  C   UNL     1       1.008   8.155  20.986  0.00  0.00    +0.000 A 
ATOM      9  N   UNL     1       1.917   7.270  20.543  0.00  0.00    +0.000 NA
ATOM     10  C   UNL     1       2.344   7.575  19.307  0.00  0.00    +0.000 A 
ATOM     11  C   UNL     1       1.936   8.653  18.537  0.00  0.00    +0.000 A 
ATOM     12  N   UNL     1       2.596   8.667  17.325  0.00  0.00    +0.000 NA
ATOM     13  C   UNL     1       3.384   7.616  17.361  0.00  0.00    +0.000 A 
ATOM     14  N   UNL     1       3.264   6.918  18.537  0.00  0.00    +0.000 N 
BRANCH   6  15
ATOM     15  N   UNL     1       0.485  10.633  18.448  0.00  0.00    +0.000 N 
ATOM     16  H   UNL     1       0.306  11.397  19.090  0.00  0.00    +0.000 HD
ATOM     17  H   UNL     1       0.991  10.849  17.594  0.00  0.00    +0.000 HD
ENDBRANCH   6  15
ENDBRANCH   1  14
BRANCH   4  18
ATOM     18  O   UNL     1       4.978   3.003  19.593  0.00  0.00    +0.000 OA
ATOM     19  H   UNL     1       4.424   2.266  19.912  0.00  0.00    +0.000 HD
ENDBRANCH   4  18
BRANCH   5  20
ATOM     20  O   UNL     1       2.576   3.976  19.788  0.00  0.00    +0.000 OA
ATOM     21  H   UNL     1       2.440   3.010  19.672  0.00  0.00    +0.000 HD
ENDBRANCH   5  20
BRANCH   3  22
ATOM     22  C   UNL     1       5.327   4.353  16.090  0.00  0.00    +0.000 C 
BRANCH  22  23
ATOM     23  C   UNL     1       6.677   4.435  15.348  0.00  0.00    +0.000 C 
BRANCH  23  24
ATOM     24  N   UNL     1       7.366   5.654  15.777  0.00  0.00    +0.000 NA
ATOM     25  H   UNL     1       6.688   6.372  16.035  0.00  0.00    +0.000 HD
ATOM     26  H   UNL     1       7.911   6.053  15.013  0.00  0.00    +0.000 HD
ENDBRANCH  23  24
BRANCH  23  27
ATOM     27  C   UNL     1       6.500   4.426  13.817  0.00  0.00    +0.000 C 
BRANCH  27  28
ATOM     28  C   UNL     1       5.402   3.493  13.283  0.00  0.00    +0.000 C 
BRANCH  28  29
ATOM     29  CA  UNL     1       5.472   3.230  11.773  0.00  0.00    +0.000 C 
BRANCH  29  30
ATOM     30  N   UNL     1       4.095   3.115  11.250  0.00  0.00    +0.000 NA
ATOM     31  H1  UNL     1       3.949   3.871  10.575  0.00  0.00    +0.000 HD
ATOM     32  H2  UNL     1       3.429   3.307  12.000  0.00  0.00    +0.000 HD
ENDBRANCH  29  30
BRANCH  29  33
ATOM     33  C   UNL     1       6.239   1.930  11.473  0.00  0.00    +0.000 C 
ATOM     34  O   UNL     1       5.699   0.844  11.301  0.00  0.00    +0.000 OA
BRANCH  33  35
ATOM     35  OXT UNL     1       7.579   2.084  11.385  0.00  0.00    +0.000 OA
ATOM     36  HXT UNL     1       8.013   2.428  12.192  0.00  0.00    +0.000 HD
ENDBRANCH  33  35
ENDBRANCH  29  33
ENDBRANCH  28  29
ENDBRANCH  27  28
ENDBRANCH  23  27
ENDBRANCH  22  23
ENDBRANCH   3  22
TORSDOF 13
ENDMDL
MODEL 7
REMARK VINA RESULT:      -7.0      0.981      1.091
REMARK  Name = 
REMARK  13 active torsions:
REMARK  status: ('A' for Active; 'I' for Inactive)
REMARK    1  A    between atoms: N_1  and  C_2
REMARK    2  A    between atoms: N_10  and  C_11
REMARK    3  A    between atoms: C_13  and  C_14
REMARK    4  A    between atoms: C_14  and  C_15
REMARK    5  A    between atoms: C_15  and  N_16
REMARK    6  A    between atoms: C_15  and  C_17
REMARK    7  A    between atoms: C_17  and  C_18
REMARK    8  A    between atoms: C_18  and  CA_19
REMARK    9  A    between atoms: CA_19  and  N_20
REMARK   10  A    between atoms: CA_19  and  C_21
REMARK   11  A    between atoms: C_21  and  OXT_23
REMARK   12  A    between atoms: C_24  and  O_25
REMARK   13  A    between atoms: C_26  and  O_27
REMARK                            x       y       z     vdW  Elec       q    Type
REMARK                         _______ _______ _______ _____ _____    ______ ____
ROOT
ATOM      1  C   UNL     1       3.014   5.594  19.390  0.00  0.00    +0.000 C 
ATOM      2  O   UNL     1       4.262   5.216  18.764  0.00  0.00    +0.000 OA
ATOM      3  C   UNL     1       4.171   3.831  18.359  0.00  0.00    +0.000 C 
ATOM      4  C   UNL     1       2.912   3.265  19.013  0.00  0.00    +0.000 C 
ATOM      5  C   UNL     1       2.002   4.475  19.147  0.00  0.00    +0.000 C 
ENDROOT
BRANCH   1  14
ATOM      6  C   UNL     1       1.113  10.060  19.158  0.00  0.00    +0.000 A 
ATOM      7  N   UNL     1       0.601  10.053  20.412  0.00  0.00    +0.000 NA
ATOM      8  C   UNL     1       0.763   8.944  21.163  0.00  0.00    +0.000 A 
ATOM      9  N   UNL     1       1.398   7.806  20.836  0.00  0.00    +0.000 NA
ATOM     10  C   UNL     1       1.896   7.857  19.591  0.00  0.00    +0.000 A 
ATOM     11  C   UNL     1       1.801   8.920  18.708  0.00  0.00    +0.000 A 
ATOM     12  N   UNL     1       2.444   8.633  17.521  0.00  0.00    +0.000 NA
ATOM     13  C   UNL     1       2.916   7.417  17.684  0.00  0.00    +0.000 A 
ATOM     14  N   UNL     1       2.605   6.900  18.917  0.00  0.00    +0.000 N 
BRANCH   6  15
ATOM     15  N   UNL     1       0.945  11.200  18.383  0.00  0.00    +0.000 N 
ATOM     16  H   UNL     1       1.003  10.996  17.392  0.00  0.00    +0.000 HD
ATOM     17  H   UNL     1       0.174  11.783  18.696  0.00  0.00    +0.000 HD
ENDBRANCH   6  15
ENDBRANCH   1  14
BRANCH   4  18
ATOM     18  O   UNL     1       3.185   2.776  20.342  0.00  0.00    +0.000 OA
ATOM     19  H   UNL     1       4.112   2.975  20.574  0.00  0.00    +0.000 HD
ENDBRANCH   4  18
BRANCH   5  20
ATOM     20  O   UNL     1       1.096   4.318  20.241  0.00  0.00    +0.000 OA
ATOM     21  H   UNL     1       0.712   5.208  20.400  0.00  0.00    +0.000 HD
ENDBRANCH   5  20
BRANCH   3  22
ATOM     22  C   UNL     1       4.162   3.732  16.828  0.00  0.00    +0.000 C 
BRANCH  22  23
ATOM     23  C   UNL     1       5.213   4.632  16.149  0.00  0.00    +0.000 C 
BRANCH  23  24
ATOM     24  N   UNL     1       4.784   4.884  14.770  0.00  0.00    +0.000 NA
ATOM     25  H   UNL     1       5.568   5.222  14.212  0.00  0.00    +0.000 HD
ATOM     26  H   UNL     1       4.082   5.623  14.736  0.00  0.00    +0.000 HD
ENDBRANCH  23  24
BRANCH  23  27
ATOM     27  C   UNL     1       6.619   4.000  16.167  0.00  0.00    +0.000 C 
BRANCH  27  28
ATOM     28  C   UNL     1       7.574   4.544  17.240  0.00  0.00    +0.000 C 
BRANCH  28  29
ATOM     29  CA  UNL     1       7.215   5.943  17.761  0.00  0.00    +0.000 C 
BRANCH  29  30
ATOM     30  N   UNL     1       7.705   6.946  16.794  0.00  0.00    +0.000 NA
ATOM     31  H1  UNL     1       7.355   6.689  15.866  0.00  0.00    +0.000 HD
ATOM     32  H2  UNL     1       8.721   6.875  16.715  0.00  0.00    +0.000 HD
ENDBRANCH  29  30
BRANCH  29  33
ATOM     33  C   UNL     1       7.859   6.204  19.134  0.00  0.00    +0.000 C 
ATOM     34  O   UNL     1       7.710   5.474  20.106  0.00  0.00    +0.000 OA
BRANCH  33  35
ATOM     35  OXT UNL     1       8.639   7.307  19.181  0.00  0.00    +0.000 OA
ATOM     36  HXT UNL     1       8.737   7.784  18.333  0.00  0.00    +0.000 HD
ENDBRANCH  33  35
ENDBRANCH  29  33
ENDBRANCH  28  29
ENDBRANCH  27  28
ENDBRANCH  23  27
ENDBRANCH  22  23
ENDBRANCH   3  22
TORSDOF 13
ENDMDL
MODEL 8
REMARK VINA RESULT:      -6.9      2.327      3.054
REMARK  Name = 
REMARK  13 active torsions:
REMARK  status: ('A' for Active; 'I' for Inactive)
REMARK    1  A    between atoms: N_1  and  C_2
REMARK    2  A    between atoms: N_10  and  C_11
REMARK    3  A    between atoms: C_13  and  C_14
REMARK    4  A    between atoms: C_14  and  C_15
REMARK    5  A    between atoms: C_15  and  N_16
REMARK    6  A    between atoms: C_15  and  C_17
REMARK    7  A    between atoms: C_17  and  C_18
REMARK    8  A    between atoms: C_18  and  CA_19
REMARK    9  A    between atoms: CA_19  and  N_20
REMARK   10  A    between atoms: CA_19  and  C_21
REMARK   11  A    between atoms: C_21  and  OXT_23
REMARK   12  A    between atoms: C_24  and  O_25
REMARK   13  A    between atoms: C_26  and  O_27
REMARK                            x       y       z     vdW  Elec       q    Type
REMARK                         _______ _______ _______ _____ _____    ______ ____
ROOT
ATOM      1  C   UNL     1       3.052   5.583  18.980  0.00  0.00    +0.000 C 
ATOM      2  O   UNL     1       4.212   5.630  19.842  0.00  0.00    +0.000 OA
ATOM      3  C   UNL     1       5.148   4.619  19.407  0.00  0.00    +0.000 C 
ATOM      4  C   UNL     1       4.406   3.737  18.404  0.00  0.00    +0.000 C 
ATOM      5  C   UNL     1       3.376   4.674  17.796  0.00  0.00    +0.000 C 
ENDROOT
BRANCH   1  14
ATOM      6  C   UNL     1       1.204  10.075  19.151  0.00  0.00    +0.000 A 
ATOM      7  N   UNL     1       0.712   9.970  20.408  0.00  0.00    +0.000 NA
ATOM      8  C   UNL     1       0.871   8.800  21.062  0.00  0.00    +0.000 A 
ATOM      9  N   UNL     1       1.486   7.686  20.631  0.00  0.00    +0.000 NA
ATOM     10  C   UNL     1       1.966   7.835  19.386  0.00  0.00    +0.000 A 
ATOM     11  C   UNL     1       1.871   8.969  18.596  0.00  0.00    +0.000 A 
ATOM     12  N   UNL     1       2.492   8.774  17.379  0.00  0.00    +0.000 NA
ATOM     13  C   UNL     1       2.950   7.543  17.433  0.00  0.00    +0.000 A 
ATOM     14  N   UNL     1       2.652   6.930  18.624  0.00  0.00    +0.000 N 
BRANCH   6  15
ATOM     15  N   UNL     1       1.040  11.278  18.476  0.00  0.00    +0.000 N 
ATOM     16  H   UNL     1       0.143  11.329  18.008  0.00  0.00    +0.000 HD
ATOM     17  H   UNL     1       1.326  12.083  19.025  0.00  0.00    +0.000 HD
ENDBRANCH   6  15
ENDBRANCH   1  14
BRANCH   4  18
ATOM     18  O   UNL     1       3.690   2.675  19.069  0.00  0.00    +0.000 OA
ATOM     19  H   UNL     1       4.331   2.044  19.448  0.00  0.00    +0.000 HD
ENDBRANCH   4  18
BRANCH   5  20
ATOM     20  O   UNL     1       2.230   3.952  17.339  0.00  0.00    +0.000 OA
ATOM     21  H   UNL     1       1.631   4.622  16.944  0.00  0.00    +0.000 HD
ENDBRANCH   5  20
BRANCH   3  22
ATOM     22  C   UNL     1       6.403   5.282  18.825  0.00  0.00    +0.000 C 
BRANCH  22  23
ATOM     23  C   UNL     1       6.825   4.705  17.459  0.00  0.00    +0.000 C 
BRANCH  23  24
ATOM     24  N   UNL     1       8.179   4.158  17.588  0.00  0.00    +0.000 NA
ATOM     25  H   UNL     1       8.820   4.650  16.965  0.00  0.00    +0.000 HD
ATOM     26  H   UNL     1       8.207   3.181  17.297  0.00  0.00    +0.000 HD
ENDBRANCH  23  24
BRANCH  23  27
ATOM     27  C   UNL     1       6.776   5.764  16.341  0.00  0.00    +0.000 C 
BRANCH  27  28
ATOM     28  C   UNL     1       6.135   5.305  15.023  0.00  0.00    +0.000 C 
BRANCH  28  29
ATOM     29  CA  UNL     1       7.082   4.541  14.086  0.00  0.00    +0.000 C 
BRANCH  29  30
ATOM     30  N   UNL     1       8.036   5.502  13.496  0.00  0.00    +0.000 NA
ATOM     31  H1  UNL     1       8.909   5.451  14.031  0.00  0.00    +0.000 HD
ATOM     32  H2  UNL     1       7.698   6.454  13.646  0.00  0.00    +0.000 HD
ENDBRANCH  29  30
BRANCH  29  33
ATOM     33  C   UNL     1       6.301   3.842  12.959  0.00  0.00    +0.000 C 
ATOM     34  O   UNL     1       6.826   3.370  11.959  0.00  0.00    +0.000 OA
BRANCH  33  35
ATOM     35  OXT UNL     1       4.969   3.764  13.172  0.00  0.00    +0.000 OA
ATOM     36  HXT UNL     1       4.680   3.016  13.733  0.00  0.00    +0.000 HD
ENDBRANCH  33  35
ENDBRANCH  29  33
ENDBRANCH  28  29
ENDBRANCH  27  28
ENDBRANCH  23  27
ENDBRANCH  22  23
ENDBRANCH   3  22
TORSDOF 13
ENDMDL
MODEL 9
REMARK VINA RESULT:      -6.9      2.935      5.730
REMARK  Name = 
REMARK  13 active torsions:
REMARK  status: ('A' for Active; 'I' for Inactive)
REMARK    1  A    between atoms: N_1  and  C_2
REMARK    2  A    between atoms: N_10  and  C_11
REMARK    3  A    between atoms: C_13  and  C_14
REMARK    4  A    between atoms: C_14  and  C_15
REMARK    5  A    between atoms: C_15  and  N_16
REMARK    6  A    between atoms: C_15  and  C_17
REMARK    7  A    between atoms: C_17  and  C_18
REMARK    8  A    between atoms: C_18  and  CA_19
REMARK    9  A    between atoms: CA_19  and  N_20
REMARK   10  A    between atoms: CA_19  and  C_21
REMARK   11  A    between atoms: C_21  and  OXT_23
REMARK   12  A    between atoms: C_24  and  O_25
REMARK   13  A    between atoms: C_26  and  O_27
REMARK                            x       y       z     vdW  Elec       q    Type
REMARK                         _______ _______ _______ _____ _____    ______ ____
ROOT
ATOM      1  C   UNL     1       3.777   6.913  18.972  0.00  0.00    +0.000 C 
ATOM      2  O   UNL     1       3.554   5.687  19.706  0.00  0.00    +0.000 OA
ATOM      3  C   UNL     1       2.180   5.663  20.152  0.00  0.00    +0.000 C 
ATOM      4  C   UNL     1       1.616   7.062  19.912  0.00  0.00    +0.000 C 
ATOM      5  C   UNL     1       2.421   7.575  18.730  0.00  0.00    +0.000 C 
ENDROOT
BRANCH   1  14
ATOM      6  C   UNL     1       7.134   5.205  15.902  0.00  0.00    +0.000 A 
ATOM      7  N   UNL     1       7.854   4.548  16.842  0.00  0.00    +0.000 NA
ATOM      8  C   UNL     1       7.444   4.617  18.126  0.00  0.00    +0.000 A 
ATOM      9  N   UNL     1       6.373   5.259  18.621  0.00  0.00    +0.000 NA
ATOM     10  C   UNL     1       5.683   5.890  17.657  0.00  0.00    +0.000 A 
ATOM     11  C   UNL     1       5.988   5.911  16.305  0.00  0.00    +0.000 A 
ATOM     12  N   UNL     1       5.053   6.642  15.602  0.00  0.00    +0.000 NA
ATOM     13  C   UNL     1       4.201   7.057  16.513  0.00  0.00    +0.000 A 
ATOM     14  N   UNL     1       4.542   6.635  17.773  0.00  0.00    +0.000 N 
BRANCH   6  15
ATOM     15  N   UNL     1       7.556   5.135  14.580  0.00  0.00    +0.000 N 
ATOM     16  H   UNL     1       8.559   5.012  14.510  0.00  0.00    +0.000 HD
ATOM     17  H   UNL     1       6.970   4.533  14.008  0.00  0.00    +0.000 HD
ENDBRANCH   6  15
ENDBRANCH   1  14
BRANCH   4  18
ATOM     18  O   UNL     1       1.881   7.934  21.031  0.00  0.00    +0.000 OA
ATOM     19  H   UNL     1       2.240   8.780  20.701  0.00  0.00    +0.000 HD
ENDBRANCH   4  18
BRANCH   5  20
ATOM     20  O   UNL     1       2.505   9.002  18.745  0.00  0.00    +0.000 OA
ATOM     21  H   UNL     1       2.721   9.267  17.824  0.00  0.00    +0.000 HD
ENDBRANCH   5  20
BRANCH   3  22
ATOM     22  C   UNL     1       1.409   4.559  19.417  0.00  0.00    +0.000 C 
BRANCH  22  23
ATOM     23  C   UNL     1       1.237   3.272  20.249  0.00  0.00    +0.000 C 
BRANCH  23  24
ATOM     24  N   UNL     1       2.147   3.340  21.396  0.00  0.00    +0.000 NA
ATOM     25  H   UNL     1       2.893   4.012  21.217  0.00  0.00    +0.000 HD
ATOM     26  H   UNL     1       2.612   2.445  21.545  0.00  0.00    +0.000 HD
ENDBRANCH  23  24
BRANCH  23  27
ATOM     27  C   UNL     1       1.510   2.003  19.420  0.00  0.00    +0.000 C 
BRANCH  27  28
ATOM     28  C   UNL     1       2.373   2.205  18.165  0.00  0.00    +0.000 C 
BRANCH  28  29
ATOM     29  CA  UNL     1       3.816   2.643  18.451  0.00  0.00    +0.000 C 
BRANCH  29  30
ATOM     30  N   UNL     1       4.556   2.693  17.172  0.00  0.00    +0.000 NA
ATOM     31  H1  UNL     1       5.418   2.152  17.285  0.00  0.00    +0.000 HD
ATOM     32  H2  UNL     1       4.872   3.649  17.000  0.00  0.00    +0.000 HD
ENDBRANCH  29  30
BRANCH  29  33
ATOM     33  C   UNL     1       4.515   1.658  19.404  0.00  0.00    +0.000 C 
ATOM     34  O   UNL     1       4.927   1.962  20.516  0.00  0.00    +0.000 OA
BRANCH  33  35
ATOM     35  OXT UNL     1       4.620   0.399  18.922  0.00  0.00    +0.000 OA
ATOM     36  HXT UNL     1       5.476   0.184  18.500  0.00  0.00    +0.000 HD
ENDBRANCH  33  35
ENDBRANCH  29  33
ENDBRANCH  28  29
ENDBRANCH  27  28
ENDBRANCH  23  27
ENDBRANCH  22  23
ENDBRANCH   3  22
TORSDOF 13
ENDMDL
