MODEL 1
REMARK VINA RESULT:      -8.0      0.000      0.000
REMARK  Name = 
REMARK  7 active torsions:
REMARK  status: ('A' for Active; 'I' for Inactive)
REMARK    1  A    between atoms: C_2  and  O_3
REMARK    2  A    between atoms: C_2  and  C_4
REMARK    3  A    between atoms: C_5  and  C_6
REMARK    4  A    between atoms: C_15  and  C_16
REMARK    5  A    between atoms: C_16  and  C_17
REMARK    6  A    between atoms: N_24  and  C_25
REMARK    7  A    between atoms: C_25  and  C_26
REMARK                            x       y       z     vdW  Elec       q    Type
REMARK                         _______ _______ _______ _____ _____    ______ ____
ROOT
ATOM      1  C   UNL     1       4.144   5.563  18.548  0.00  0.00    +0.000 A 
ATOM      2  C   UNL     1       2.913   5.651  19.199  0.00  0.00    +0.000 A 
ATOM      3  C   UNL     1       2.384   6.966  19.017  0.00  0.00    +0.000 A 
ATOM      4  C   UNL     1       1.251   7.653  19.514  0.00  0.00    +0.000 A 
ATOM      5  C   UNL     1       1.002   8.984  19.134  0.00  0.00    +0.000 A 
ATOM      6  C   UNL     1       1.839   9.586  18.193  0.00  0.00    +0.000 A 
ATOM      7  C   UNL     1       2.942   8.911  17.653  0.00  0.00    +0.000 A 
ATOM      8  C   UNL     1       3.238   7.619  18.128  0.00  0.00    +0.000 A 
ATOM      9  N   UNL     1       4.331   6.787  17.908  0.00  0.00    +0.000 N 
ENDROOT
BRANCH   2  10
ATOM     10  C   UNL     1       2.286   4.615  19.965  0.00  0.00    +0.000 A 
ATOM     11  C   UNL     1       2.537   4.401  21.277  0.00  0.00    +0.000 A 
ATOM     12  C   UNL     1       1.937   3.306  22.003  0.00  0.00    +0.000 A 
ATOM     13  C   UNL     1       1.097   2.471  21.386  0.00  0.00    +0.000 A 
ATOM     14  N   UNL     1       0.802   2.658  20.062  0.00  0.00    +0.000 N 
ATOM     15  C   UNL     1       1.326   3.669  19.287  0.00  0.00    +0.000 A 
ATOM     16  O   UNL     1       1.017   3.777  18.095  0.00  0.00    +0.000 OA
ATOM     17  H   UNL     1       0.158   2.035  19.590  0.00  0.00    +0.000 HD
ENDBRANCH   2  10
BRANCH   1  19
ATOM     18  O   UNL     1       6.026   4.238  19.143  0.00  0.00    +0.000 OA
ATOM     19  C   UNL     1       5.012   4.400  18.490  0.00  0.00    +0.000 C 
BRANCH  19  20
ATOM     20  O   UNL     1       4.582   3.452  17.618  0.00  0.00    +0.000 OA
ATOM     21  H   UNL     1       4.656   2.547  17.965  0.00  0.00    +0.000 HD
ENDBRANCH  19  20
ENDBRANCH   1  19
BRANCH   5  22
ATOM     22  C   UNL     1      -0.168   9.750  19.715  0.00  0.00    +0.000 C 
BRANCH  22  23
ATOM     23  C   UNL     1      -0.168   9.888  21.233  0.00  0.00    +0.000 C 
ATOM     24  F   UNL     1       1.054  10.117  21.755  0.00  0.00    +0.000 F 
ATOM     25  F   UNL     1      -0.971  10.908  21.619  0.00  0.00    +0.000 F 
ATOM     26  F   UNL     1      -0.650   8.763  21.813  0.00  0.00    +0.000 F 
ENDBRANCH  22  23
ENDBRANCH   5  22
BRANCH   9  27
ATOM     27  C   UNL     1       5.498   7.157  17.094  0.00  0.00    +0.000 C 
BRANCH  27  28
ATOM     28  C   UNL     1       5.912   6.091  16.093  0.00  0.00    +0.000 A 
ATOM     29  C   UNL     1       5.100   5.698  15.018  0.00  0.00    +0.000 A 
ATOM     30  C   UNL     1       5.428   4.575  14.260  0.00  0.00    +0.000 A 
ATOM     31  F   UNL     1       4.588   4.167  13.301  0.00  0.00    +0.000 F 
ATOM     32  C   UNL     1       6.585   3.848  14.511  0.00  0.00    +0.000 A 
ATOM     33  C   UNL     1       7.451   4.275  15.512  0.00  0.00    +0.000 A 
ATOM     34  C   UNL     1       7.108   5.380  16.295  0.00  0.00    +0.000 A 
ATOM     35  F   UNL     1       7.950   5.761  17.265  0.00  0.00    +0.000 F 
ENDBRANCH  27  28
ENDBRANCH   9  27
TORSDOF 7
ENDMDL
MODEL 2
REMARK VINA RESULT:      -7.9      1.184      1.414
REMARK  Name = 
REMARK  7 active torsions:
REMARK  status: ('A' for Active; 'I' for Inactive)
REMARK    1  A    between atoms: C_2  and  O_3
REMARK    2  A    between atoms: C_2  and  C_4
REMARK    3  A    between atoms: C_5  and  C_6
REMARK    4  A    between atoms: C_15  and  C_16
REMARK    5  A    between atoms: C_16  and  C_17
REMARK    6  A    between atoms: N_24  and  C_25
REMARK    7  A    between atoms: C_25  and  C_26
REMARK                            x       y       z     vdW  Elec       q    Type
REMARK                         _______ _______ _______ _____ _____    ______ ____
ROOT
ATOM      1  C   UNL     1       4.165   5.548  18.510  0.00  0.00    +0.000 A 
ATOM      2  C   UNL     1       2.919   5.671  19.127  0.00  0.00    +0.000 A 
ATOM      3  C   UNL     1       2.418   6.990  18.903  0.00  0.00    +0.000 A 
ATOM      4  C   UNL     1       1.285   7.707  19.356  0.00  0.00    +0.000 A 
ATOM      5  C   UNL     1       1.068   9.033  18.941  0.00  0.00    +0.000 A 
ATOM      6  C   UNL     1       1.940   9.601  18.009  0.00  0.00    +0.000 A 
ATOM      7  C   UNL     1       3.044   8.895  17.513  0.00  0.00    +0.000 A 
ATOM      8  C   UNL     1       3.305   7.610  18.023  0.00  0.00    +0.000 A 
ATOM      9  N   UNL     1       4.389   6.754  17.849  0.00  0.00    +0.000 N 
ENDROOT
BRANCH   2  10
ATOM     10  C   UNL     1       2.255   4.662  19.898  0.00  0.00    +0.000 A 
ATOM     11  C   UNL     1       2.480   4.463  21.218  0.00  0.00    +0.000 A 
ATOM     12  C   UNL     1       1.842   3.394  21.950  0.00  0.00    +0.000 A 
ATOM     13  C   UNL     1       0.992   2.570  21.333  0.00  0.00    +0.000 A 
ATOM     14  N   UNL     1       0.723   2.743  20.002  0.00  0.00    +0.000 N 
ATOM     15  C   UNL     1       1.284   3.730  19.219  0.00  0.00    +0.000 A 
ATOM     16  O   UNL     1       0.996   3.826  18.020  0.00  0.00    +0.000 OA
ATOM     17  H   UNL     1       0.072   2.129  19.528  0.00  0.00    +0.000 HD
ENDBRANCH   2  10
BRANCH   1  19
ATOM     18  O   UNL     1       6.004   4.202  19.187  0.00  0.00    +0.000 OA
ATOM     19  C   UNL     1       5.014   4.370  18.499  0.00  0.00    +0.000 C 
BRANCH  19  20
ATOM     20  O   UNL     1       4.596   3.414  17.630  0.00  0.00    +0.000 OA
ATOM     21  H   UNL     1       3.750   3.009  17.880  0.00  0.00    +0.000 HD
ENDBRANCH  19  20
ENDBRANCH   1  19
BRANCH   5  22
ATOM     22  C   UNL     1      -0.103   9.831  19.475  0.00  0.00    +0.000 C 
BRANCH  22  23
ATOM     23  C   UNL     1      -1.035  10.409  18.417  0.00  0.00    +0.000 C 
ATOM     24  F   UNL     1      -1.096   9.672  17.289  0.00  0.00    +0.000 F 
ATOM     25  F   UNL     1      -2.296  10.517  18.899  0.00  0.00    +0.000 F 
ATOM     26  F   UNL     1      -0.639  11.655  18.062  0.00  0.00    +0.000 F 
ENDBRANCH  22  23
ENDBRANCH   5  22
BRANCH   9  27
ATOM     27  C   UNL     1       5.583   7.088  17.058  0.00  0.00    +0.000 C 
BRANCH  27  28
ATOM     28  C   UNL     1       5.963   6.023  16.042  0.00  0.00    +0.000 A 
ATOM     29  C   UNL     1       5.147   5.683  14.953  0.00  0.00    +0.000 A 
ATOM     30  C   UNL     1       5.437   4.560  14.178  0.00  0.00    +0.000 A 
ATOM     31  F   UNL     1       4.591   4.203  13.204  0.00  0.00    +0.000 F 
ATOM     32  C   UNL     1       6.560   3.782  14.427  0.00  0.00    +0.000 A 
ATOM     33  C   UNL     1       7.433   4.156  15.444  0.00  0.00    +0.000 A 
ATOM     34  C   UNL     1       7.127   5.260  16.243  0.00  0.00    +0.000 A 
ATOM     35  F   UNL     1       7.974   5.589  17.227  0.00  0.00    +0.000 F 
ENDBRANCH  27  28
ENDBRANCH   9  27
TORSDOF 7
ENDMDL
MODEL 3
REMARK VINA RESULT:      -7.8      4.944      9.473
REMARK  Name = 
REMARK  7 active torsions:
REMARK  status: ('A' for Active; 'I' for Inactive)
REMARK    1  A    between atoms: C_2  and  O_3
REMARK    2  A    between atoms: C_2  and  C_4
REMARK    3  A    between atoms: C_5  and  C_6
REMARK    4  A    between atoms: C_15  and  C_16
REMARK    5  A    between atoms: C_16  and  C_17
REMARK    6  A    between atoms: N_24  and  C_25
REMARK    7  A    between atoms: C_25  and  C_26
REMARK                            x       y       z     vdW  Elec       q    Type
REMARK                         _______ _______ _______ _____ _____    ______ ____
ROOT
ATOM      1  C   UNL     1       0.044  11.319  20.219  0.00  0.00    +0.000 A 
ATOM      2  C   UNL     1       0.065  10.364  19.202  0.00  0.00    +0.000 A 
ATOM      3  C   UNL     1      -1.118  10.499  18.414  0.00  0.00    +0.000 A 
ATOM      4  C   UNL     1      -1.681   9.767  17.341  0.00  0.00    +0.000 A 
ATOM      5  C   UNL     1      -2.898  10.170  16.763  0.00  0.00    +0.000 A 
ATOM      6  C   UNL     1      -3.497  11.351  17.205  0.00  0.00    +0.000 A 
ATOM      7  C   UNL     1      -2.936  12.117  18.236  0.00  0.00    +0.000 A 
ATOM      8  C   UNL     1      -1.777  11.639  18.875  0.00  0.00    +0.000 A 
ATOM      9  N   UNL     1      -1.102  12.083  20.008  0.00  0.00    +0.000 N 
ENDROOT
BRANCH   2  10
ATOM     10  C   UNL     1       1.080   9.373  18.993  0.00  0.00    +0.000 A 
ATOM     11  C   UNL     1       1.887   9.350  17.908  0.00  0.00    +0.000 A 
ATOM     12  C   UNL     1       2.856   8.300  17.696  0.00  0.00    +0.000 A 
ATOM     13  C   UNL     1       2.987   7.316  18.590  0.00  0.00    +0.000 A 
ATOM     14  N   UNL     1       2.200   7.307  19.711  0.00  0.00    +0.000 N 
ATOM     15  C   UNL     1       1.248   8.261  19.998  0.00  0.00    +0.000 A 
ATOM     16  O   UNL     1       0.571   8.188  21.029  0.00  0.00    +0.000 OA
ATOM     17  H   UNL     1       2.300   6.570  20.398  0.00  0.00    +0.000 HD
ENDBRANCH   2  10
BRANCH   1  19
ATOM     18  O   UNL     1       1.887  12.410  21.252  0.00  0.00    +0.000 OA
ATOM     19  C   UNL     1       1.057  11.520  21.240  0.00  0.00    +0.000 C 
BRANCH  19  20
ATOM     20  O   UNL     1       1.001  10.603  22.240  0.00  0.00    +0.000 OA
ATOM     21  H   UNL     1       1.730  10.682  22.877  0.00  0.00    +0.000 HD
ENDBRANCH  19  20
ENDBRANCH   1  19
BRANCH   5  22
ATOM     22  C   UNL     1      -3.542   9.354  15.662  0.00  0.00    +0.000 C 
BRANCH  22  23
ATOM     23  C   UNL     1      -3.520   9.992  14.278  0.00  0.00    +0.000 C 
ATOM     24  F   UNL     1      -2.459   9.626  13.531  0.00  0.00    +0.000 F 
ATOM     25  F   UNL     1      -4.636   9.666  13.584  0.00  0.00    +0.000 F 
ATOM     26  F   UNL     1      -3.496  11.343  14.377  0.00  0.00    +0.000 F 
ENDBRANCH  22  23
ENDBRANCH   5  22
BRANCH   9  27
ATOM     27  C   UNL     1      -1.542  13.214  20.838  0.00  0.00    +0.000 C 
BRANCH  27  28
ATOM     28  C   UNL     1      -2.717  12.889  21.746  0.00  0.00    +0.000 A 
ATOM     29  C   UNL     1      -4.053  13.072  21.358  0.00  0.00    +0.000 A 
ATOM     30  C   UNL     1      -5.081  12.963  22.294  0.00  0.00    +0.000 A 
ATOM     31  F   UNL     1      -6.337  13.235  21.919  0.00  0.00    +0.000 F 
ATOM     32  C   UNL     1      -4.820  12.622  23.615  0.00  0.00    +0.000 A 
ATOM     33  C   UNL     1      -3.512  12.345  23.999  0.00  0.00    +0.000 A 
ATOM     34  C   UNL     1      -2.477  12.487  23.071  0.00  0.00    +0.000 A 
ATOM     35  F   UNL     1      -1.224  12.232  23.470  0.00  0.00    +0.000 F 
ENDBRANCH  27  28
ENDBRANCH   9  27
TORSDOF 7
ENDMDL
MODEL 4
REMARK VINA RESULT:      -7.5      2.035      2.989
REMARK  Name = 
REMARK  7 active torsions:
REMARK  status: ('A' for Active; 'I' for Inactive)
REMARK    1  A    between atoms: C_2  and  O_3
REMARK    2  A    between atoms: C_2  and  C_4
REMARK    3  A    between atoms: C_5  and  C_6
REMARK    4  A    between atoms: C_15  and  C_16
REMARK    5  A    between atoms: C_16  and  C_17
REMARK    6  A    between atoms: N_24  and  C_25
REMARK    7  A    between atoms: C_25  and  C_26
REMARK                            x       y       z     vdW  Elec       q    Type
REMARK                         _______ _______ _______ _____ _____    ______ ____
ROOT
ATOM      1  C   UNL     1       4.239   5.290  18.336  0.00  0.00    +0.000 A 
ATOM      2  C   UNL     1       3.021   5.476  18.990  0.00  0.00    +0.000 A 
ATOM      3  C   UNL     1       2.593   6.825  18.800  0.00  0.00    +0.000 A 
ATOM      4  C   UNL     1       1.517   7.600  19.296  0.00  0.00    +0.000 A 
ATOM      5  C   UNL     1       1.368   8.943  18.907  0.00  0.00    +0.000 A 
ATOM      6  C   UNL     1       2.245   9.474  17.959  0.00  0.00    +0.000 A 
ATOM      7  C   UNL     1       3.292   8.713  17.421  0.00  0.00    +0.000 A 
ATOM      8  C   UNL     1       3.490   7.406  17.904  0.00  0.00    +0.000 A 
ATOM      9  N   UNL     1       4.516   6.491  17.687  0.00  0.00    +0.000 N 
ENDROOT
BRANCH   2  10
ATOM     10  C   UNL     1       2.319   4.494  19.765  0.00  0.00    +0.000 A 
ATOM     11  C   UNL     1       2.530   4.299  21.087  0.00  0.00    +0.000 A 
ATOM     12  C   UNL     1       1.853   3.257  21.824  0.00  0.00    +0.000 A 
ATOM     13  C   UNL     1       0.980   2.456  21.207  0.00  0.00    +0.000 A 
ATOM     14  N   UNL     1       0.726   2.627  19.873  0.00  0.00    +0.000 N 
ATOM     15  C   UNL     1       1.323   3.588  19.087  0.00  0.00    +0.000 A 
ATOM     16  O   UNL     1       1.047   3.683  17.885  0.00  0.00    +0.000 OA
ATOM     17  H   UNL     1       0.059   2.030  19.400  0.00  0.00    +0.000 HD
ENDBRANCH   2  10
BRANCH   1  19
ATOM     18  O   UNL     1       5.628   3.570  19.212  0.00  0.00    +0.000 OA
ATOM     19  C   UNL     1       5.016   4.064  18.283  0.00  0.00    +0.000 C 
BRANCH  19  20
ATOM     20  O   UNL     1       5.002   3.470  17.062  0.00  0.00    +0.000 OA
ATOM     21  H   UNL     1       5.522   3.947  16.395  0.00  0.00    +0.000 HD
ENDBRANCH  19  20
ENDBRANCH   1  19
BRANCH   5  22
ATOM     22  C   UNL     1       0.261   9.800  19.486  0.00  0.00    +0.000 C 
BRANCH  22  23
ATOM     23  C   UNL     1      -0.708  10.389  18.468  0.00  0.00    +0.000 C 
ATOM     24  F   UNL     1      -1.975  10.485  18.921  0.00  0.00    +0.000 F 
ATOM     25  F   UNL     1      -0.315  11.631  18.098  0.00  0.00    +0.000 F 
ATOM     26  F   UNL     1      -0.738   9.632  17.345  0.00  0.00    +0.000 F 
ENDBRANCH  22  23
ENDBRANCH   5  22
BRANCH   9  27
ATOM     27  C   UNL     1       5.706   6.767  16.866  0.00  0.00    +0.000 C 
BRANCH  27  28
ATOM     28  C   UNL     1       6.746   7.628  17.564  0.00  0.00    +0.000 A 
ATOM     29  C   UNL     1       6.876   9.006  17.330  0.00  0.00    +0.000 A 
ATOM     30  C   UNL     1       7.975   9.705  17.829  0.00  0.00    +0.000 A 
ATOM     31  F   UNL     1       8.124  10.997  17.512  0.00  0.00    +0.000 F 
ATOM     32  C   UNL     1       8.938   9.076  18.607  0.00  0.00    +0.000 A 
ATOM     33  C   UNL     1       8.778   7.731  18.929  0.00  0.00    +0.000 A 
ATOM     34  C   UNL     1       7.697   7.021  18.402  0.00  0.00    +0.000 A 
ATOM     35  F   UNL     1       7.576   5.723  18.711  0.00  0.00    +0.000 F 
ENDBRANCH  27  28
ENDBRANCH   9  27
TORSDOF 7
ENDMDL
MODEL 5
REMARK VINA RESULT:      -7.5      1.699      2.681
REMARK  Name = 
REMARK  7 active torsions:
REMARK  status: ('A' for Active; 'I' for Inactive)
REMARK    1  A    between atoms: C_2  and  O_3
REMARK    2  A    between atoms: C_2  and  C_4
REMARK    3  A    between atoms: C_5  and  C_6
REMARK    4  A    between atoms: C_15  and  C_16
REMARK    5  A    between atoms: C_16  and  C_17
REMARK    6  A    between atoms: N_24  and  C_25
REMARK    7  A    between atoms: C_25  and  C_26
REMARK                            x       y       z     vdW  Elec       q    Type
REMARK                         _______ _______ _______ _____ _____    ______ ____
ROOT
ATOM      1  C   UNL     1       4.257   5.300  18.340  0.00  0.00    +0.000 A 
ATOM      2  C   UNL     1       3.031   5.479  18.982  0.00  0.00    +0.000 A 
ATOM      3  C   UNL     1       2.587   6.820  18.770  0.00  0.00    +0.000 A 
ATOM      4  C   UNL     1       1.497   7.587  19.246  0.00  0.00    +0.000 A 
ATOM      5  C   UNL     1       1.333   8.923  18.836  0.00  0.00    +0.000 A 
ATOM      6  C   UNL     1       2.211   9.451  17.888  0.00  0.00    +0.000 A 
ATOM      7  C   UNL     1       3.271   8.696  17.369  0.00  0.00    +0.000 A 
ATOM      8  C   UNL     1       3.483   7.400  17.872  0.00  0.00    +0.000 A 
ATOM      9  N   UNL     1       4.523   6.496  17.676  0.00  0.00    +0.000 N 
ENDROOT
BRANCH   2  10
ATOM     10  C   UNL     1       2.337   4.500  19.766  0.00  0.00    +0.000 A 
ATOM     11  C   UNL     1       2.561   4.306  21.086  0.00  0.00    +0.000 A 
ATOM     12  C   UNL     1       1.891   3.267  21.832  0.00  0.00    +0.000 A 
ATOM     13  C   UNL     1       1.011   2.466  21.226  0.00  0.00    +0.000 A 
ATOM     14  N   UNL     1       0.742   2.635  19.894  0.00  0.00    +0.000 N 
ATOM     15  C   UNL     1       1.332   3.594  19.100  0.00  0.00    +0.000 A 
ATOM     16  O   UNL     1       1.043   3.688  17.902  0.00  0.00    +0.000 OA
ATOM     17  H   UNL     1       0.069   2.038  19.430  0.00  0.00    +0.000 HD
ENDBRANCH   2  10
BRANCH   1  19
ATOM     18  O   UNL     1       5.622   3.586  19.264  0.00  0.00    +0.000 OA
ATOM     19  C   UNL     1       5.051   4.084  18.311  0.00  0.00    +0.000 C 
BRANCH  19  20
ATOM     20  O   UNL     1       5.103   3.505  17.084  0.00  0.00    +0.000 OA
ATOM     21  H   UNL     1       4.941   4.128  16.356  0.00  0.00    +0.000 HD
ENDBRANCH  19  20
ENDBRANCH   1  19
BRANCH   5  22
ATOM     22  C   UNL     1       0.211   9.773  19.395  0.00  0.00    +0.000 C 
BRANCH  22  23
ATOM     23  C   UNL     1       0.148   9.853  20.916  0.00  0.00    +0.000 C 
ATOM     24  F   UNL     1       1.360   9.855  21.507  0.00  0.00    +0.000 F 
ATOM     25  F   UNL     1      -0.497  10.977  21.308  0.00  0.00    +0.000 F 
ATOM     26  F   UNL     1      -0.545   8.803  21.419  0.00  0.00    +0.000 F 
ENDBRANCH  22  23
ENDBRANCH   5  22
BRANCH   9  27
ATOM     27  C   UNL     1       5.715   6.775  16.861  0.00  0.00    +0.000 C 
BRANCH  27  28
ATOM     28  C   UNL     1       6.752   7.635  17.565  0.00  0.00    +0.000 A 
ATOM     29  C   UNL     1       6.883   9.013  17.336  0.00  0.00    +0.000 A 
ATOM     30  C   UNL     1       7.980   9.711  17.840  0.00  0.00    +0.000 A 
ATOM     31  F   UNL     1       8.130  11.004  17.528  0.00  0.00    +0.000 F 
ATOM     32  C   UNL     1       8.939   9.080  18.621  0.00  0.00    +0.000 A 
ATOM     33  C   UNL     1       8.779   7.735  18.938  0.00  0.00    +0.000 A 
ATOM     34  C   UNL     1       7.700   7.026  18.405  0.00  0.00    +0.000 A 
ATOM     35  F   UNL     1       7.577   5.727  18.710  0.00  0.00    +0.000 F 
ENDBRANCH  27  28
ENDBRANCH   9  27
TORSDOF 7
ENDMDL
MODEL 6
REMARK VINA RESULT:      -7.4      7.584      9.907
REMARK  Name = 
REMARK  7 active torsions:
REMARK  status: ('A' for Active; 'I' for Inactive)
REMARK    1  A    between atoms: C_2  and  O_3
REMARK    2  A    between atoms: C_2  and  C_4
REMARK    3  A    between atoms: C_5  and  C_6
REMARK    4  A    between atoms: C_15  and  C_16
REMARK    5  A    between atoms: C_16  and  C_17
REMARK    6  A    between atoms: N_24  and  C_25
REMARK    7  A    between atoms: C_25  and  C_26
REMARK                            x       y       z     vdW  Elec       q    Type
REMARK                         _______ _______ _______ _____ _____    ______ ____
ROOT
ATOM      1  C   UNL     1      -0.819  13.406  21.384  0.00  0.00    +0.000 A 
ATOM      2  C   UNL     1      -2.020  12.873  20.913  0.00  0.00    +0.000 A 
ATOM      3  C   UNL     1      -1.739  11.958  19.854  0.00  0.00    +0.000 A 
ATOM      4  C   UNL     1      -2.537  11.213  18.953  0.00  0.00    +0.000 A 
ATOM      5  C   UNL     1      -1.938  10.376  17.995  0.00  0.00    +0.000 A 
ATOM      6  C   UNL     1      -0.550  10.225  18.003  0.00  0.00    +0.000 A 
ATOM      7  C   UNL     1       0.258  10.919  18.913  0.00  0.00    +0.000 A 
ATOM      8  C   UNL     1      -0.351  11.834  19.791  0.00  0.00    +0.000 A 
ATOM      9  N   UNL     1       0.192  12.764  20.672  0.00  0.00    +0.000 N 
ENDROOT
BRANCH   2  10
ATOM     10  C   UNL     1      -3.333  13.210  21.378  0.00  0.00    +0.000 A 
ATOM     11  C   UNL     1      -4.161  14.058  20.725  0.00  0.00    +0.000 A 
ATOM     12  C   UNL     1      -5.453  14.427  21.255  0.00  0.00    +0.000 A 
ATOM     13  C   UNL     1      -5.872  13.921  22.418  0.00  0.00    +0.000 A 
ATOM     14  N   UNL     1      -5.073  13.048  23.107  0.00  0.00    +0.000 N 
ATOM     15  C   UNL     1      -3.826  12.640  22.685  0.00  0.00    +0.000 A 
ATOM     16  O   UNL     1      -3.157  11.850  23.360  0.00  0.00    +0.000 OA
ATOM     17  H   UNL     1      -5.387  12.653  23.985  0.00  0.00    +0.000 HD
ENDBRANCH   2  10
BRANCH   1  19
ATOM     18  O   UNL     1      -0.518  15.575  22.309  0.00  0.00    +0.000 OA
ATOM     19  C   UNL     1      -0.661  14.375  22.454  0.00  0.00    +0.000 C 
BRANCH  19  20
ATOM     20  O   UNL     1      -0.698  13.820  23.692  0.00  0.00    +0.000 OA
ATOM     21  H   UNL     1      -1.477  14.083  24.210  0.00  0.00    +0.000 HD
ENDBRANCH  19  20
ENDBRANCH   1  19
BRANCH   5  22
ATOM     22  C   UNL     1      -2.781   9.629  16.982  0.00  0.00    +0.000 C 
BRANCH  22  23
ATOM     23  C   UNL     1      -3.090  10.393  15.700  0.00  0.00    +0.000 C 
ATOM     24  F   UNL     1      -4.393  10.710  15.561  0.00  0.00    +0.000 F 
ATOM     25  F   UNL     1      -2.385  11.549  15.652  0.00  0.00    +0.000 F 
ATOM     26  F   UNL     1      -2.734   9.666  14.614  0.00  0.00    +0.000 F 
ENDBRANCH  22  23
ENDBRANCH   5  22
BRANCH   9  27
ATOM     27  C   UNL     1       1.635  13.005  20.830  0.00  0.00    +0.000 C 
BRANCH  27  28
ATOM     28  C   UNL     1       2.177  14.099  19.924  0.00  0.00    +0.000 A 
ATOM     29  C   UNL     1       2.063  15.465  20.226  0.00  0.00    +0.000 A 
ATOM     30  C   UNL     1       2.382  16.428  19.270  0.00  0.00    +0.000 A 
ATOM     31  F   UNL     1       2.174  17.720  19.550  0.00  0.00    +0.000 F 
ATOM     32  C   UNL     1       2.867  16.069  18.019  0.00  0.00    +0.000 A 
ATOM     33  C   UNL     1       3.076  14.723  17.732  0.00  0.00    +0.000 A 
ATOM     34  C   UNL     1       2.725  13.756  18.676  0.00  0.00    +0.000 A 
ATOM     35  F   UNL     1       2.918  12.466  18.369  0.00  0.00    +0.000 F 
ENDBRANCH  27  28
ENDBRANCH   9  27
TORSDOF 7
ENDMDL
MODEL 7
REMARK VINA RESULT:      -7.4      2.119      6.815
REMARK  Name = 
REMARK  7 active torsions:
REMARK  status: ('A' for Active; 'I' for Inactive)
REMARK    1  A    between atoms: C_2  and  O_3
REMARK    2  A    between atoms: C_2  and  C_4
REMARK    3  A    between atoms: C_5  and  C_6
REMARK    4  A    between atoms: C_15  and  C_16
REMARK    5  A    between atoms: C_16  and  C_17
REMARK    6  A    between atoms: N_24  and  C_25
REMARK    7  A    between atoms: C_25  and  C_26
REMARK                            x       y       z     vdW  Elec       q    Type
REMARK                         _______ _______ _______ _____ _____    ______ ____
ROOT
ATOM      1  C   UNL     1       2.005   7.217  19.705  0.00  0.00    +0.000 A 
ATOM      2  C   UNL     1       2.424   5.915  19.434  0.00  0.00    +0.000 A 
ATOM      3  C   UNL     1       3.227   5.921  18.253  0.00  0.00    +0.000 A 
ATOM      4  C   UNL     1       3.828   4.914  17.461  0.00  0.00    +0.000 A 
ATOM      5  C   UNL     1       4.580   5.257  16.323  0.00  0.00    +0.000 A 
ATOM      6  C   UNL     1       4.797   6.606  16.037  0.00  0.00    +0.000 A 
ATOM      7  C   UNL     1       4.248   7.621  16.832  0.00  0.00    +0.000 A 
ATOM      8  C   UNL     1       3.409   7.259  17.901  0.00  0.00    +0.000 A 
ATOM      9  N   UNL     1       2.610   8.025  18.744  0.00  0.00    +0.000 N 
ENDROOT
BRANCH   2  10
ATOM     10  C   UNL     1       2.079   4.743  20.184  0.00  0.00    +0.000 A 
ATOM     11  C   UNL     1       2.548   4.489  21.428  0.00  0.00    +0.000 A 
ATOM     12  C   UNL     1       2.233   3.267  22.130  0.00  0.00    +0.000 A 
ATOM     13  C   UNL     1       1.448   2.348  21.561  0.00  0.00    +0.000 A 
ATOM     14  N   UNL     1       0.939   2.569  20.310  0.00  0.00    +0.000 N 
ATOM     15  C   UNL     1       1.185   3.700  19.561  0.00  0.00    +0.000 A 
ATOM     16  O   UNL     1       0.693   3.832  18.435  0.00  0.00    +0.000 OA
ATOM     17  H   UNL     1       0.335   1.882  19.876  0.00  0.00    +0.000 HD
ENDBRANCH   2  10
BRANCH   1  19
ATOM     18  O   UNL     1      -0.036   7.499  20.892  0.00  0.00    +0.000 OA
ATOM     19  C   UNL     1       1.170   7.647  20.813  0.00  0.00    +0.000 C 
BRANCH  19  20
ATOM     20  O   UNL     1       1.868   8.245  21.812  0.00  0.00    +0.000 OA
ATOM     21  H   UNL     1       1.734   7.829  22.679  0.00  0.00    +0.000 HD
ENDBRANCH  19  20
ENDBRANCH   1  19
BRANCH   5  22
ATOM     22  C   UNL     1       5.168   4.184  15.430  0.00  0.00    +0.000 C 
BRANCH  22  23
ATOM     23  C   UNL     1       6.583   4.454  14.930  0.00  0.00    +0.000 C 
ATOM     24  F   UNL     1       6.728   5.662  14.348  0.00  0.00    +0.000 F 
ATOM     25  F   UNL     1       7.471   4.387  15.950  0.00  0.00    +0.000 F 
ATOM     26  F   UNL     1       6.952   3.521  14.020  0.00  0.00    +0.000 F 
ENDBRANCH  22  23
ENDBRANCH   5  22
BRANCH   9  27
ATOM     27  C   UNL     1       2.457   9.484  18.632  0.00  0.00    +0.000 C 
BRANCH  27  28
ATOM     28  C   UNL     1       1.010   9.949  18.610  0.00  0.00    +0.000 A 
ATOM     29  C   UNL     1       0.069   9.469  17.687  0.00  0.00    +0.000 A 
ATOM     30  C   UNL     1      -1.180  10.079  17.570  0.00  0.00    +0.000 A 
ATOM     31  F   UNL     1      -2.023   9.662  16.619  0.00  0.00    +0.000 F 
ATOM     32  C   UNL     1      -1.545  11.138  18.392  0.00  0.00    +0.000 A 
ATOM     33  C   UNL     1      -0.661  11.569  19.376  0.00  0.00    +0.000 A 
ATOM     34  C   UNL     1       0.603  10.982  19.472  0.00  0.00    +0.000 A 
ATOM     35  F   UNL     1       1.442  11.427  20.417  0.00  0.00    +0.000 F 
ENDBRANCH  27  28
ENDBRANCH   9  27
TORSDOF 7
ENDMDL
MODEL 8
REMARK VINA RESULT:      -7.3      7.647      9.889
REMARK  Name = 
REMARK  7 active torsions:
REMARK  status: ('A' for Active; 'I' for Inactive)
REMARK    1  A    between atoms: C_2  and  O_3
REMARK    2  A    between atoms: C_2  and  C_4
REMARK    3  A    between atoms: C_5  and  C_6
REMARK    4  A    between atoms: C_15  and  C_16
REMARK    5  A    between atoms: C_16  and  C_17
REMARK    6  A    between atoms: N_24  and  C_25
REMARK    7  A    between atoms: C_25  and  C_26
REMARK                            x       y       z     vdW  Elec       q    Type
REMARK                         _______ _______ _______ _____ _____    ______ ____
ROOT
ATOM      1  C   UNL     1      -0.833  13.289  21.344  0.00  0.00    +0.000 A 
ATOM      2  C   UNL     1      -2.005  12.739  20.824  0.00  0.00    +0.000 A 
ATOM      3  C   UNL     1      -1.668  11.848  19.760  0.00  0.00    +0.000 A 
ATOM      4  C   UNL     1      -2.419  11.101  18.821  0.00  0.00    +0.000 A 
ATOM      5  C   UNL     1      -1.769  10.293  17.871  0.00  0.00    +0.000 A 
ATOM      6  C   UNL     1      -0.379  10.172  17.924  0.00  0.00    +0.000 A 
ATOM      7  C   UNL     1       0.382  10.868  18.872  0.00  0.00    +0.000 A 
ATOM      8  C   UNL     1      -0.276  11.755  19.744  0.00  0.00    +0.000 A 
ATOM      9  N   UNL     1       0.216  12.682  20.657  0.00  0.00    +0.000 N 
ENDROOT
BRANCH   2  10
ATOM     10  C   UNL     1      -3.341  13.040  21.249  0.00  0.00    +0.000 A 
ATOM     11  C   UNL     1      -4.195  13.810  20.536  0.00  0.00    +0.000 A 
ATOM     12  C   UNL     1      -5.512  14.147  21.024  0.00  0.00    +0.000 A 
ATOM     13  C   UNL     1      -5.927  13.689  22.208  0.00  0.00    +0.000 A 
ATOM     14  N   UNL     1      -5.102  12.894  22.957  0.00  0.00    +0.000 N 
ATOM     15  C   UNL     1      -3.830  12.521  22.578  0.00  0.00    +0.000 A 
ATOM     16  O   UNL     1      -3.138  11.802  23.307  0.00  0.00    +0.000 OA
ATOM     17  H   UNL     1      -5.413  12.534  23.851  0.00  0.00    +0.000 HD
ENDBRANCH   2  10
BRANCH   1  19
ATOM     18  O   UNL     1      -0.702  15.455  22.317  0.00  0.00    +0.000 OA
ATOM     19  C   UNL     1      -0.733  14.244  22.434  0.00  0.00    +0.000 C 
BRANCH  19  20
ATOM     20  O   UNL     1      -0.687  13.659  23.658  0.00  0.00    +0.000 OA
ATOM     21  H   UNL     1      -1.038  14.221  24.368  0.00  0.00    +0.000 HD
ENDBRANCH  19  20
ENDBRANCH   1  19
BRANCH   5  22
ATOM     22  C   UNL     1      -2.560   9.545  16.818  0.00  0.00    +0.000 C 
BRANCH  22  23
ATOM     23  C   UNL     1      -3.215  10.417  15.753  0.00  0.00    +0.000 C 
ATOM     24  F   UNL     1      -4.454  10.835  16.084  0.00  0.00    +0.000 F 
ATOM     25  F   UNL     1      -2.467  11.520  15.512  0.00  0.00    +0.000 F 
ATOM     26  F   UNL     1      -3.317   9.743  14.582  0.00  0.00    +0.000 F 
ENDBRANCH  22  23
ENDBRANCH   5  22
BRANCH   9  27
ATOM     27  C   UNL     1       1.647  12.951  20.868  0.00  0.00    +0.000 C 
BRANCH  27  28
ATOM     28  C   UNL     1       2.145  14.204  20.169  0.00  0.00    +0.000 A 
ATOM     29  C   UNL     1       2.293  14.292  18.776  0.00  0.00    +0.000 A 
ATOM     30  C   UNL     1       2.952  15.381  18.204  0.00  0.00    +0.000 A 
ATOM     31  F   UNL     1       3.163  15.394  16.882  0.00  0.00    +0.000 F 
ATOM     32  C   UNL     1       3.430  16.426  18.983  0.00  0.00    +0.000 A 
ATOM     33  C   UNL     1       3.210  16.403  20.358  0.00  0.00    +0.000 A 
ATOM     34  C   UNL     1       2.582  15.298  20.936  0.00  0.00    +0.000 A 
ATOM     35  F   UNL     1       2.398  15.291  22.263  0.00  0.00    +0.000 F 
ENDBRANCH  27  28
ENDBRANCH   9  27
TORSDOF 7
ENDMDL
MODEL 9
REMARK VINA RESULT:      -7.3      5.296      8.345
REMARK  Name = 
REMARK  7 active torsions:
REMARK  status: ('A' for Active; 'I' for Inactive)
REMARK    1  A    between atoms: C_2  and  O_3
REMARK    2  A    between atoms: C_2  and  C_4
REMARK    3  A    between atoms: C_5  and  C_6
REMARK    4  A    between atoms: C_15  and  C_16
REMARK    5  A    between atoms: C_16  and  C_17
REMARK    6  A    between atoms: N_24  and  C_25
REMARK    7  A    between atoms: C_25  and  C_26
REMARK                            x       y       z     vdW  Elec       q    Type
REMARK                         _______ _______ _______ _____ _____    ______ ____
ROOT
ATOM      1  C   UNL     1       0.348  12.338  19.518  0.00  0.00    +0.000 A 
ATOM      2  C   UNL     1      -0.945  12.779  19.805  0.00  0.00    +0.000 A 
ATOM      3  C   UNL     1      -1.876  12.023  19.030  0.00  0.00    +0.000 A 
ATOM      4  C   UNL     1      -3.276  12.087  18.829  0.00  0.00    +0.000 A 
ATOM      5  C   UNL     1      -3.915  11.170  17.975  0.00  0.00    +0.000 A 
ATOM      6  C   UNL     1      -3.162  10.145  17.398  0.00  0.00    +0.000 A 
ATOM      7  C   UNL     1      -1.783  10.036  17.618  0.00  0.00    +0.000 A 
ATOM      8  C   UNL     1      -1.143  11.026  18.386  0.00  0.00    +0.000 A 
ATOM      9  N   UNL     1       0.204  11.270  18.635  0.00  0.00    +0.000 N 
ENDROOT
BRANCH   2  10
ATOM     10  C   UNL     1      -1.295  13.843  20.699  0.00  0.00    +0.000 A 
ATOM     11  C   UNL     1      -1.591  15.097  20.285  0.00  0.00    +0.000 A 
ATOM     12  C   UNL     1      -1.877  16.163  21.217  0.00  0.00    +0.000 A 
ATOM     13  C   UNL     1      -1.865  15.928  22.531  0.00  0.00    +0.000 A 
ATOM     14  N   UNL     1      -1.584  14.671  22.995  0.00  0.00    +0.000 N 
ATOM     15  C   UNL     1      -1.297  13.592  22.186  0.00  0.00    +0.000 A 
ATOM     16  O   UNL     1      -1.050  12.484  22.674  0.00  0.00    +0.000 OA
ATOM     17  H   UNL     1      -1.583  14.482  23.989  0.00  0.00    +0.000 HD
ENDBRANCH   2  10
BRANCH   1  19
ATOM     18  O   UNL     1       2.366  13.594  19.537  0.00  0.00    +0.000 OA
ATOM     19  C   UNL     1       1.583  12.844  20.090  0.00  0.00    +0.000 C 
BRANCH  19  20
ATOM     20  O   UNL     1       1.808  12.408  21.356  0.00  0.00    +0.000 OA
ATOM     21  H   UNL     1       2.001  13.125  21.982  0.00  0.00    +0.000 HD
ENDBRANCH  19  20
ENDBRANCH   1  19
BRANCH   5  22
ATOM     22  C   UNL     1      -5.400  11.273  17.699  0.00  0.00    +0.000 C 
BRANCH  22  23
ATOM     23  C   UNL     1      -6.308  10.906  18.867  0.00  0.00    +0.000 C 
ATOM     24  F   UNL     1      -5.877  11.377  20.055  0.00  0.00    +0.000 F 
ATOM     25  F   UNL     1      -7.558  11.389  18.670  0.00  0.00    +0.000 F 
ATOM     26  F   UNL     1      -6.416   9.561  18.981  0.00  0.00    +0.000 F 
ENDBRANCH  22  23
ENDBRANCH   5  22
BRANCH   9  27
ATOM     27  C   UNL     1       1.304  10.486  18.053  0.00  0.00    +0.000 C 
BRANCH  27  28
ATOM     28  C   UNL     1       1.534   9.149  18.739  0.00  0.00    +0.000 A 
ATOM     29  C   UNL     1       1.105   8.880  20.048  0.00  0.00    +0.000 A 
ATOM     30  C   UNL     1       1.525   7.724  20.704  0.00  0.00    +0.000 A 
ATOM     31  F   UNL     1       1.179   7.537  21.984  0.00  0.00    +0.000 F 
ATOM     32  C   UNL     1       2.331   6.787  20.071  0.00  0.00    +0.000 A 
ATOM     33  C   UNL     1       2.691   6.989  18.742  0.00  0.00    +0.000 A 
ATOM     34  C   UNL     1       2.300   8.163  18.093  0.00  0.00    +0.000 A 
ATOM     35  F   UNL     1       2.674   8.343  16.820  0.00  0.00    +0.000 F 
ENDBRANCH  27  28
ENDBRANCH   9  27
TORSDOF 7
ENDMDL
