MODEL 1
REMARK VINA RESULT:      -6.2      0.000      0.000
REMARK  Name = 
REMARK  5 active torsions:
REMARK  status: ('A' for Active; 'I' for Inactive)
REMARK    1  A    between atoms: C_1  and  N_2
REMARK    2  A    between atoms: N_5  and  C_6
REMARK    3  A    between atoms: C_6  and  C_7
REMARK    4  A    between atoms: N_9  and  C_10
REMARK    5  A    between atoms: C_10  and  C_11
REMARK                            x       y       z     vdW  Elec       q    Type
REMARK                         _______ _______ _______ _____ _____    ______ ____
ROOT
ATOM      1  C   UNL     1       0.673  13.915  20.471  0.00  0.00    +0.000 C 
ATOM      2  C   UNL     1      -0.107  15.076  19.712  0.00  0.00    +0.000 C 
ATOM      3  O   UNL     1      -0.087  16.276  19.925  0.00  0.00    +0.000 OA
ATOM      4  N   UNL     1      -0.940  14.470  18.774  0.00  0.00    +0.000 N 
ATOM      5  C   UNL     1      -0.865  13.088  18.838  0.00  0.00    +0.000 A 
ATOM      6  C   UNL     1      -1.674  12.207  18.148  0.00  0.00    +0.000 A 
ATOM      7  C   UNL     1      -1.528  10.851  18.434  0.00  0.00    +0.000 A 
ATOM      8 CL   UNL     1      -2.565   9.709  17.671  0.00  0.00    +0.000 Cl
ATOM      9  C   UNL     1      -0.594  10.408  19.382  0.00  0.00    +0.000 A 
ATOM     10  C   UNL     1       0.197  11.328  20.083  0.00  0.00    +0.000 A 
ATOM     11 CL   UNL     1       1.228  10.739  21.327  0.00  0.00    +0.000 Cl
ATOM     12  C   UNL     1       0.068  12.684  19.804  0.00  0.00    +0.000 A 
ATOM     13  H   UNL     1      -1.589  15.007  18.214  0.00  0.00    +0.000 HD
ENDROOT
BRANCH   1  14
ATOM     14  C   UNL     1       2.191  14.129  20.267  0.00  0.00    +0.000 A 
ATOM     15  C   UNL     1       3.099  14.335  21.320  0.00  0.00    +0.000 A 
ATOM     16  C   UNL     1       4.430  14.690  21.066  0.00  0.00    +0.000 A 
ATOM     17  C   UNL     1       4.886  14.809  19.758  0.00  0.00    +0.000 A 
ATOM     18 CL   UNL     1       6.504  15.301  19.453  0.00  0.00    +0.000 Cl
ATOM     19  C   UNL     1       4.030  14.544  18.696  0.00  0.00    +0.000 A 
ATOM     20  C   UNL     1       2.699  14.205  18.950  0.00  0.00    +0.000 A 
ENDBRANCH   1  14
BRANCH   1  23
ATOM     21  C   UNL     1      -0.772  14.114  22.631  0.00  0.00    +0.000 C 
ATOM     22  O   UNL     1      -0.677  14.347  23.835  0.00  0.00    +0.000 OA
ATOM     23  N   UNL     1       0.393  14.005  21.921  0.00  0.00    +0.000 N 
ATOM     24  H   UNL     1       1.193  14.150  22.523  0.00  0.00    +0.000 HD
BRANCH  21  25
ATOM     25  C   UNL     1      -2.098  13.939  21.884  0.00  0.00    +0.000 C 
BRANCH  25  30
ATOM     26  C   UNL     1      -6.397  13.397  23.873  0.00  0.00    +0.000 C 
ATOM     27  N   UNL     1      -5.323  12.691  23.185  0.00  0.00    +0.000 NA
ATOM     28  C   UNL     1      -4.072  12.704  23.961  0.00  0.00    +0.000 C 
ATOM     29  C   UNL     1      -2.868  12.074  23.202  0.00  0.00    +0.000 C 
ATOM     30  N   UNL     1      -2.656  12.571  21.817  0.00  0.00    +0.000 NA
ATOM     31  C   UNL     1      -3.954  12.501  21.114  0.00  0.00    +0.000 C 
ATOM     32  C   UNL     1      -5.112  13.230  21.832  0.00  0.00    +0.000 C 
ENDBRANCH  25  30
ENDBRANCH  21  25
ENDBRANCH   1  23
TORSDOF 4
ENDMDL
MODEL 2
REMARK VINA RESULT:      -6.0      0.689      1.083
REMARK  Name = 
REMARK  5 active torsions:
REMARK  status: ('A' for Active; 'I' for Inactive)
REMARK    1  A    between atoms: C_1  and  N_2
REMARK    2  A    between atoms: N_5  and  C_6
REMARK    3  A    between atoms: C_6  and  C_7
REMARK    4  A    between atoms: N_9  and  C_10
REMARK    5  A    between atoms: C_10  and  C_11
REMARK                            x       y       z     vdW  Elec       q    Type
REMARK                         _______ _______ _______ _____ _____    ______ ____
ROOT
ATOM      1  C   UNL     1       0.597  13.734  20.479  0.00  0.00    +0.000 C 
ATOM      2  C   UNL     1      -0.206  14.913  19.773  0.00  0.00    +0.000 C 
ATOM      3  O   UNL     1      -0.214  16.102  20.043  0.00  0.00    +0.000 OA
ATOM      4  N   UNL     1      -1.022  14.334  18.804  0.00  0.00    +0.000 N 
ATOM      5  C   UNL     1      -0.916  12.953  18.801  0.00  0.00    +0.000 A 
ATOM      6  C   UNL     1      -1.702  12.088  18.066  0.00  0.00    +0.000 A 
ATOM      7  C   UNL     1      -1.527  10.724  18.288  0.00  0.00    +0.000 A 
ATOM      8 CL   UNL     1      -2.535   9.597  17.467  0.00  0.00    +0.000 Cl
ATOM      9  C   UNL     1      -0.587  10.257  19.218  0.00  0.00    +0.000 A 
ATOM     10  C   UNL     1       0.180  11.159  19.966  0.00  0.00    +0.000 A 
ATOM     11 CL   UNL     1       1.220  10.535  21.185  0.00  0.00    +0.000 Cl
ATOM     12  C   UNL     1       0.022  12.524  19.751  0.00  0.00    +0.000 A 
ATOM     13  H   UNL     1      -1.681  14.882  18.266  0.00  0.00    +0.000 HD
ENDROOT
BRANCH   1  14
ATOM     14  C   UNL     1       2.110  13.992  20.293  0.00  0.00    +0.000 A 
ATOM     15  C   UNL     1       3.004  14.200  21.358  0.00  0.00    +0.000 A 
ATOM     16  C   UNL     1       4.327  14.594  21.123  0.00  0.00    +0.000 A 
ATOM     17  C   UNL     1       4.790  14.752  19.822  0.00  0.00    +0.000 A 
ATOM     18 CL   UNL     1       6.398  15.292  19.542  0.00  0.00    +0.000 Cl
ATOM     19  C   UNL     1       3.951  14.487  18.748  0.00  0.00    +0.000 A 
ATOM     20  C   UNL     1       2.627  14.109  18.983  0.00  0.00    +0.000 A 
ENDBRANCH   1  14
BRANCH   1  23
ATOM     21  C   UNL     1      -0.847  13.586  22.644  0.00  0.00    +0.000 C 
ATOM     22  O   UNL     1      -0.803  13.826  23.849  0.00  0.00    +0.000 OA
ATOM     23  N   UNL     1       0.309  13.749  21.930  0.00  0.00    +0.000 N 
ATOM     24  H   UNL     1       1.057  14.068  22.532  0.00  0.00    +0.000 HD
BRANCH  21  25
ATOM     25  C   UNL     1      -2.101  13.118  21.899  0.00  0.00    +0.000 C 
BRANCH  25  30
ATOM     26  C   UNL     1      -6.533  12.830  23.635  0.00  0.00    +0.000 C 
ATOM     27  N   UNL     1      -5.667  13.591  22.742  0.00  0.00    +0.000 NA
ATOM     28  C   UNL     1      -5.189  12.775  21.613  0.00  0.00    +0.000 C 
ATOM     29  C   UNL     1      -4.160  13.514  20.709  0.00  0.00    +0.000 C 
ATOM     30  N   UNL     1      -3.033  14.165  21.427  0.00  0.00    +0.000 NA
ATOM     31  C   UNL     1      -3.609  14.973  22.523  0.00  0.00    +0.000 C 
ATOM     32  C   UNL     1      -4.541  14.191  23.474  0.00  0.00    +0.000 C 
ENDBRANCH  25  30
ENDBRANCH  21  25
ENDBRANCH   1  23
TORSDOF 4
ENDMDL
MODEL 3
REMARK VINA RESULT:      -6.0      2.434      6.808
REMARK  Name = 
REMARK  5 active torsions:
REMARK  status: ('A' for Active; 'I' for Inactive)
REMARK    1  A    between atoms: C_1  and  N_2
REMARK    2  A    between atoms: N_5  and  C_6
REMARK    3  A    between atoms: C_6  and  C_7
REMARK    4  A    between atoms: N_9  and  C_10
REMARK    5  A    between atoms: C_10  and  C_11
REMARK                            x       y       z     vdW  Elec       q    Type
REMARK                         _______ _______ _______ _____ _____    ______ ____
ROOT
ATOM      1  C   UNL     1      -0.996  13.443  20.738  0.00  0.00    +0.000 C 
ATOM      2  C   UNL     1       0.349  13.706  21.547  0.00  0.00    +0.000 C 
ATOM      3  O   UNL     1       0.638  14.650  22.264  0.00  0.00    +0.000 OA
ATOM      4  N   UNL     1       1.236  12.684  21.218  0.00  0.00    +0.000 N 
ATOM      5  C   UNL     1       0.698  11.820  20.278  0.00  0.00    +0.000 A 
ATOM      6  C   UNL     1       1.378  10.802  19.641  0.00  0.00    +0.000 A 
ATOM      7  C   UNL     1       0.701  10.116  18.635  0.00  0.00    +0.000 A 
ATOM      8 CL   UNL     1       1.522   8.893  17.745  0.00  0.00    +0.000 Cl
ATOM      9  C   UNL     1      -0.617  10.450  18.292  0.00  0.00    +0.000 A 
ATOM     10  C   UNL     1      -1.273  11.505  18.940  0.00  0.00    +0.000 A 
ATOM     11 CL   UNL     1      -2.838  11.956  18.389  0.00  0.00    +0.000 Cl
ATOM     12  C   UNL     1      -0.614  12.194  19.952  0.00  0.00    +0.000 A 
ATOM     13  H   UNL     1       2.188  12.675  21.561  0.00  0.00    +0.000 HD
ENDROOT
BRANCH   1  14
ATOM     14  C   UNL     1      -2.156  13.289  21.750  0.00  0.00    +0.000 A 
ATOM     15  C   UNL     1      -2.111  12.436  22.865  0.00  0.00    +0.000 A 
ATOM     16  C   UNL     1      -3.250  12.212  23.649  0.00  0.00    +0.000 A 
ATOM     17  C   UNL     1      -4.442  12.864  23.354  0.00  0.00    +0.000 A 
ATOM     18 CL   UNL     1      -5.850  12.541  24.284  0.00  0.00    +0.000 Cl
ATOM     19  C   UNL     1      -4.499  13.767  22.300  0.00  0.00    +0.000 A 
ATOM     20  C   UNL     1      -3.367  13.978  21.509  0.00  0.00    +0.000 A 
ENDBRANCH   1  14
BRANCH   1  23
ATOM     21  C   UNL     1      -0.484  15.514  19.238  0.00  0.00    +0.000 C 
ATOM     22  O   UNL     1      -1.025  16.499  18.741  0.00  0.00    +0.000 OA
ATOM     23  N   UNL     1      -1.291  14.617  19.886  0.00  0.00    +0.000 N 
ATOM     24  H   UNL     1      -2.255  14.924  19.865  0.00  0.00    +0.000 HD
BRANCH  21  25
ATOM     25  C   UNL     1       1.019  15.226  19.178  0.00  0.00    +0.000 C 
BRANCH  25  30
ATOM     26  C   UNL     1       5.524  14.433  17.830  0.00  0.00    +0.000 C 
ATOM     27  N   UNL     1       4.621  15.437  18.379  0.00  0.00    +0.000 NA
ATOM     28  C   UNL     1       4.091  15.040  19.694  0.00  0.00    +0.000 C 
ATOM     29  C   UNL     1       3.023  16.025  20.253  0.00  0.00    +0.000 C 
ATOM     30  N   UNL     1       1.930  16.383  19.311  0.00  0.00    +0.000 NA
ATOM     31  C   UNL     1       2.557  16.786  18.033  0.00  0.00    +0.000 C 
ATOM     32  C   UNL     1       3.530  15.743  17.440  0.00  0.00    +0.000 C 
ENDBRANCH  25  30
ENDBRANCH  21  25
ENDBRANCH   1  23
TORSDOF 4
ENDMDL
MODEL 4
REMARK VINA RESULT:      -6.0      2.347      6.863
REMARK  Name = 
REMARK  5 active torsions:
REMARK  status: ('A' for Active; 'I' for Inactive)
REMARK    1  A    between atoms: C_1  and  N_2
REMARK    2  A    between atoms: N_5  and  C_6
REMARK    3  A    between atoms: C_6  and  C_7
REMARK    4  A    between atoms: N_9  and  C_10
REMARK    5  A    between atoms: C_10  and  C_11
REMARK                            x       y       z     vdW  Elec       q    Type
REMARK                         _______ _______ _______ _____ _____    ______ ____
ROOT
ATOM      1  C   UNL     1      -1.432  13.189  20.774  0.00  0.00    +0.000 C 
ATOM      2  C   UNL     1      -0.221  13.389  21.787  0.00  0.00    +0.000 C 
ATOM      3  O   UNL     1      -0.046  14.278  22.604  0.00  0.00    +0.000 OA
ATOM      4  N   UNL     1       0.713  12.391  21.518  0.00  0.00    +0.000 N 
ATOM      5  C   UNL     1       0.325  11.599  20.449  0.00  0.00    +0.000 A 
ATOM      6  C   UNL     1       1.098  10.628  19.847  0.00  0.00    +0.000 A 
ATOM      7  C   UNL     1       0.580  10.018  18.706  0.00  0.00    +0.000 A 
ATOM      8 CL   UNL     1       1.531   8.861  17.859  0.00  0.00    +0.000 Cl
ATOM      9  C   UNL     1      -0.677  10.380  18.200  0.00  0.00    +0.000 A 
ATOM     10  C   UNL     1      -1.429  11.386  18.820  0.00  0.00    +0.000 A 
ATOM     11 CL   UNL     1      -2.901  11.881  18.081  0.00  0.00    +0.000 Cl
ATOM     12  C   UNL     1      -0.929  11.999  19.964  0.00  0.00    +0.000 A 
ATOM     13  H   UNL     1       1.605  12.355  21.993  0.00  0.00    +0.000 HD
ENDROOT
BRANCH   1  14
ATOM     14  C   UNL     1      -2.724  12.965  21.593  0.00  0.00    +0.000 A 
ATOM     15  C   UNL     1      -3.994  13.408  21.185  0.00  0.00    +0.000 A 
ATOM     16  C   UNL     1      -5.098  13.325  22.043  0.00  0.00    +0.000 A 
ATOM     17  C   UNL     1      -4.960  12.766  23.309  0.00  0.00    +0.000 A 
ATOM     18 CL   UNL     1      -6.304  12.720  24.378  0.00  0.00    +0.000 Cl
ATOM     19  C   UNL     1      -3.734  12.256  23.715  0.00  0.00    +0.000 A 
ATOM     20  C   UNL     1      -2.630  12.354  22.864  0.00  0.00    +0.000 A 
ENDBRANCH   1  14
BRANCH   1  23
ATOM     21  C   UNL     1      -0.716  15.307  19.434  0.00  0.00    +0.000 C 
ATOM     22  O   UNL     1      -1.172  16.347  18.962  0.00  0.00    +0.000 OA
ATOM     23  N   UNL     1      -1.609  14.422  19.975  0.00  0.00    +0.000 N 
ATOM     24  H   UNL     1      -2.552  14.782  19.911  0.00  0.00    +0.000 HD
BRANCH  21  25
ATOM     25  C   UNL     1       0.771  14.942  19.451  0.00  0.00    +0.000 C 
BRANCH  25  30
ATOM     26  C   UNL     1       5.245  14.636  17.829  0.00  0.00    +0.000 C 
ATOM     27  N   UNL     1       4.367  15.381  18.724  0.00  0.00    +0.000 NA
ATOM     28  C   UNL     1       3.844  14.536  19.810  0.00  0.00    +0.000 C 
ATOM     29  C   UNL     1       2.802  15.261  20.710  0.00  0.00    +0.000 C 
ATOM     30  N   UNL     1       1.706  15.955  19.984  0.00  0.00    +0.000 NA
ATOM     31  C   UNL     1       2.326  16.791  18.934  0.00  0.00    +0.000 C 
ATOM     32  C   UNL     1       3.272  16.026  17.982  0.00  0.00    +0.000 C 
ENDBRANCH  25  30
ENDBRANCH  21  25
ENDBRANCH   1  23
TORSDOF 4
ENDMDL
MODEL 5
REMARK VINA RESULT:      -5.9      5.498      8.683
REMARK  Name = 
REMARK  5 active torsions:
REMARK  status: ('A' for Active; 'I' for Inactive)
REMARK    1  A    between atoms: C_1  and  N_2
REMARK    2  A    between atoms: N_5  and  C_6
REMARK    3  A    between atoms: C_6  and  C_7
REMARK    4  A    between atoms: N_9  and  C_10
REMARK    5  A    between atoms: C_10  and  C_11
REMARK                            x       y       z     vdW  Elec       q    Type
REMARK                         _______ _______ _______ _____ _____    ______ ____
ROOT
ATOM      1  C   UNL     1       3.699  15.552  19.342  0.00  0.00    +0.000 C 
ATOM      2  C   UNL     1       3.608  14.156  18.583  0.00  0.00    +0.000 C 
ATOM      3  O   UNL     1       2.730  13.311  18.641  0.00  0.00    +0.000 OA
ATOM      4  N   UNL     1       4.797  13.990  17.877  0.00  0.00    +0.000 N 
ATOM      5  C   UNL     1       5.675  15.039  18.098  0.00  0.00    +0.000 A 
ATOM      6  C   UNL     1       6.984  15.095  17.664  0.00  0.00    +0.000 A 
ATOM      7  C   UNL     1       7.750  16.179  18.087  0.00  0.00    +0.000 A 
ATOM      8 CL   UNL     1       9.412  16.263  17.651  0.00  0.00    +0.000 Cl
ATOM      9  C   UNL     1       7.204  17.170  18.917  0.00  0.00    +0.000 A 
ATOM     10  C   UNL     1       5.879  17.074  19.360  0.00  0.00    +0.000 A 
ATOM     11 CL   UNL     1       5.304  18.245  20.481  0.00  0.00    +0.000 Cl
ATOM     12  C   UNL     1       5.099  16.001  18.940  0.00  0.00    +0.000 A 
ATOM     13  H   UNL     1       4.999  13.140  17.368  0.00  0.00    +0.000 HD
ENDROOT
BRANCH   1  14
ATOM     14  C   UNL     1       2.529  16.445  18.868  0.00  0.00    +0.000 A 
ATOM     15  C   UNL     1       1.361  16.666  19.617  0.00  0.00    +0.000 A 
ATOM     16  C   UNL     1       0.267  17.346  19.067  0.00  0.00    +0.000 A 
ATOM     17  C   UNL     1       0.335  17.848  17.772  0.00  0.00    +0.000 A 
ATOM     18 CL   UNL     1      -1.030  18.631  17.082  0.00  0.00    +0.000 Cl
ATOM     19  C   UNL     1       1.501  17.707  17.031  0.00  0.00    +0.000 A 
ATOM     20  C   UNL     1       2.586  17.015  17.575  0.00  0.00    +0.000 A 
ENDBRANCH   1  14
BRANCH   1  23
ATOM     21  C   UNL     1       4.321  14.697  21.725  0.00  0.00    +0.000 C 
ATOM     22  O   UNL     1       3.836  14.520  22.841  0.00  0.00    +0.000 OA
ATOM     23  N   UNL     1       3.539  15.329  20.796  0.00  0.00    +0.000 N 
ATOM     24  H   UNL     1       2.633  15.554  21.186  0.00  0.00    +0.000 HD
BRANCH  21  25
ATOM     25  C   UNL     1       5.731  14.263  21.313  0.00  0.00    +0.000 C 
BRANCH  25  30
ATOM     26  C   UNL     1       9.590  11.488  20.928  0.00  0.00    +0.000 C 
ATOM     27  N   UNL     1       9.012  12.603  21.670  0.00  0.00    +0.000 NA
ATOM     28  C   UNL     1       7.803  12.204  22.409  0.00  0.00    +0.000 C 
ATOM     29  C   UNL     1       7.085  13.395  23.108  0.00  0.00    +0.000 C 
ATOM     30  N   UNL     1       6.832  14.580  22.247  0.00  0.00    +0.000 NA
ATOM     31  C   UNL     1       8.101  14.917  21.566  0.00  0.00    +0.000 C 
ATOM     32  C   UNL     1       8.739  13.746  20.786  0.00  0.00    +0.000 C 
ENDBRANCH  25  30
ENDBRANCH  21  25
ENDBRANCH   1  23
TORSDOF 4
ENDMDL
MODEL 6
REMARK VINA RESULT:      -5.9      3.530      5.221
REMARK  Name = 
REMARK  5 active torsions:
REMARK  status: ('A' for Active; 'I' for Inactive)
REMARK    1  A    between atoms: C_1  and  N_2
REMARK    2  A    between atoms: N_5  and  C_6
REMARK    3  A    between atoms: C_6  and  C_7
REMARK    4  A    between atoms: N_9  and  C_10
REMARK    5  A    between atoms: C_10  and  C_11
REMARK                            x       y       z     vdW  Elec       q    Type
REMARK                         _______ _______ _______ _____ _____    ______ ____
ROOT
ATOM      1  C   UNL     1      -1.807  13.163  22.149  0.00  0.00    +0.000 C 
ATOM      2  C   UNL     1      -1.347  14.055  20.914  0.00  0.00    +0.000 C 
ATOM      3  O   UNL     1      -0.219  14.384  20.587  0.00  0.00    +0.000 OA
ATOM      4  N   UNL     1      -2.501  14.512  20.281  0.00  0.00    +0.000 N 
ATOM      5  C   UNL     1      -3.646  14.099  20.942  0.00  0.00    +0.000 A 
ATOM      6  C   UNL     1      -4.932  14.509  20.653  0.00  0.00    +0.000 A 
ATOM      7  C   UNL     1      -5.945  14.078  21.507  0.00  0.00    +0.000 A 
ATOM      8 CL   UNL     1      -7.557  14.624  21.251  0.00  0.00    +0.000 Cl
ATOM      9  C   UNL     1      -5.662  13.260  22.610  0.00  0.00    +0.000 A 
ATOM     10  C   UNL     1      -4.344  12.879  22.892  0.00  0.00    +0.000 A 
ATOM     11 CL   UNL     1      -4.039  11.987  24.330  0.00  0.00    +0.000 Cl
ATOM     12  C   UNL     1      -3.322  13.295  22.044  0.00  0.00    +0.000 A 
ATOM     13  H   UNL     1      -2.461  15.158  19.504  0.00  0.00    +0.000 HD
ENDROOT
BRANCH   1  14
ATOM     14  C   UNL     1      -1.228  11.740  21.969  0.00  0.00    +0.000 A 
ATOM     15  C   UNL     1      -0.893  10.892  23.038  0.00  0.00    +0.000 A 
ATOM     16  C   UNL     1      -0.218   9.685  22.818  0.00  0.00    +0.000 A 
ATOM     17  C   UNL     1       0.102   9.287  21.524  0.00  0.00    +0.000 A 
ATOM     18 CL   UNL     1       0.981   7.834  21.265  0.00  0.00    +0.000 Cl
ATOM     19  C   UNL     1      -0.277  10.071  20.442  0.00  0.00    +0.000 A 
ATOM     20  C   UNL     1      -0.937  11.283  20.663  0.00  0.00    +0.000 A 
ENDBRANCH   1  14
BRANCH   1  23
ATOM     21  C   UNL     1      -1.381  14.947  24.001  0.00  0.00    +0.000 C 
ATOM     22  O   UNL     1      -0.643  15.188  24.954  0.00  0.00    +0.000 OA
ATOM     23  N   UNL     1      -1.244  13.727  23.395  0.00  0.00    +0.000 N 
ATOM     24  H   UNL     1      -0.512  13.188  23.840  0.00  0.00    +0.000 HD
BRANCH  21  25
ATOM     25  C   UNL     1      -2.436  15.915  23.455  0.00  0.00    +0.000 C 
BRANCH  25  30
ATOM     26  C   UNL     1      -6.646  17.891  22.405  0.00  0.00    +0.000 C 
ATOM     27  N   UNL     1      -5.507  17.964  23.312  0.00  0.00    +0.000 NA
ATOM     28  C   UNL     1      -4.261  18.298  22.604  0.00  0.00    +0.000 C 
ATOM     29  C   UNL     1      -3.001  18.257  23.517  0.00  0.00    +0.000 C 
ATOM     30  N   UNL     1      -2.849  17.027  24.338  0.00  0.00    +0.000 NA
ATOM     31  C   UNL     1      -4.136  16.785  25.023  0.00  0.00    +0.000 C 
ATOM     32  C   UNL     1      -5.360  16.719  24.083  0.00  0.00    +0.000 C 
ENDBRANCH  25  30
ENDBRANCH  21  25
ENDBRANCH   1  23
TORSDOF 4
ENDMDL
MODEL 7
REMARK VINA RESULT:      -5.8      2.844      4.425
REMARK  Name = 
REMARK  5 active torsions:
REMARK  status: ('A' for Active; 'I' for Inactive)
REMARK    1  A    between atoms: C_1  and  N_2
REMARK    2  A    between atoms: N_5  and  C_6
REMARK    3  A    between atoms: C_6  and  C_7
REMARK    4  A    between atoms: N_9  and  C_10
REMARK    5  A    between atoms: C_10  and  C_11
REMARK                            x       y       z     vdW  Elec       q    Type
REMARK                         _______ _______ _______ _____ _____    ______ ____
ROOT
ATOM      1  C   UNL     1      -0.024  13.172  20.235  0.00  0.00    +0.000 C 
ATOM      2  C   UNL     1       0.146  13.729  18.754  0.00  0.00    +0.000 C 
ATOM      3  O   UNL     1      -0.236  14.788  18.287  0.00  0.00    +0.000 OA
ATOM      4  N   UNL     1       0.748  12.723  18.001  0.00  0.00    +0.000 N 
ATOM      5  C   UNL     1       0.951  11.574  18.748  0.00  0.00    +0.000 A 
ATOM      6  C   UNL     1       1.386  10.361  18.253  0.00  0.00    +0.000 A 
ATOM      7  C   UNL     1       1.415   9.286  19.138  0.00  0.00    +0.000 A 
ATOM      8 CL   UNL     1       1.865   7.728  18.563  0.00  0.00    +0.000 Cl
ATOM      9  C   UNL     1       1.019   9.438  20.475  0.00  0.00    +0.000 A 
ATOM     10  C   UNL     1       0.559  10.676  20.942  0.00  0.00    +0.000 A 
ATOM     11 CL   UNL     1      -0.038  10.773  22.552  0.00  0.00    +0.000 Cl
ATOM     12  C   UNL     1       0.532  11.762  20.073  0.00  0.00    +0.000 A 
ATOM     13  H   UNL     1       0.897  12.821  17.005  0.00  0.00    +0.000 HD
ENDROOT
BRANCH   1  14
ATOM     14  C   UNL     1       0.743  14.105  21.201  0.00  0.00    +0.000 A 
ATOM     15  C   UNL     1       0.119  15.036  22.049  0.00  0.00    +0.000 A 
ATOM     16  C   UNL     1       0.870  15.968  22.776  0.00  0.00    +0.000 A 
ATOM     17  C   UNL     1       2.258  15.963  22.697  0.00  0.00    +0.000 A 
ATOM     18 CL   UNL     1       3.172  17.145  23.546  0.00  0.00    +0.000 Cl
ATOM     19  C   UNL     1       2.908  15.010  21.922  0.00  0.00    +0.000 A 
ATOM     20  C   UNL     1       2.157  14.091  21.185  0.00  0.00    +0.000 A 
ENDBRANCH   1  14
BRANCH   1  23
ATOM     21  C   UNL     1      -2.591  12.817  19.955  0.00  0.00    +0.000 C 
ATOM     22  O   UNL     1      -3.667  13.137  20.456  0.00  0.00    +0.000 OA
ATOM     23  N   UNL     1      -1.454  13.209  20.610  0.00  0.00    +0.000 N 
ATOM     24  H   UNL     1      -1.686  13.738  21.441  0.00  0.00    +0.000 HD
BRANCH  21  25
ATOM     25  C   UNL     1      -2.442  12.013  18.659  0.00  0.00    +0.000 C 
BRANCH  25  30
ATOM     26  C   UNL     1      -3.136  10.268  14.277  0.00  0.00    +0.000 C 
ATOM     27  N   UNL     1      -3.356  10.007  15.694  0.00  0.00    +0.000 NA
ATOM     28  C   UNL     1      -4.235  11.015  16.309  0.00  0.00    +0.000 C 
ATOM     29  C   UNL     1      -4.388  10.845  17.849  0.00  0.00    +0.000 C 
ATOM     30  N   UNL     1      -3.115  10.698  18.603  0.00  0.00    +0.000 NA
ATOM     31  C   UNL     1      -2.313   9.656  17.927  0.00  0.00    +0.000 C 
ATOM     32  C   UNL     1      -2.080   9.904  16.420  0.00  0.00    +0.000 C 
ENDBRANCH  25  30
ENDBRANCH  21  25
ENDBRANCH   1  23
TORSDOF 4
ENDMDL
MODEL 8
REMARK VINA RESULT:      -5.8      3.568      4.833
REMARK  Name = 
REMARK  5 active torsions:
REMARK  status: ('A' for Active; 'I' for Inactive)
REMARK    1  A    between atoms: C_1  and  N_2
REMARK    2  A    between atoms: N_5  and  C_6
REMARK    3  A    between atoms: C_6  and  C_7
REMARK    4  A    between atoms: N_9  and  C_10
REMARK    5  A    between atoms: C_10  and  C_11
REMARK                            x       y       z     vdW  Elec       q    Type
REMARK                         _______ _______ _______ _____ _____    ______ ____
ROOT
ATOM      1  C   UNL     1      -2.855  13.815  22.507  0.00  0.00    +0.000 C 
ATOM      2  C   UNL     1      -3.562  14.794  21.470  0.00  0.00    +0.000 C 
ATOM      3  O   UNL     1      -4.352  15.697  21.688  0.00  0.00    +0.000 OA
ATOM      4  N   UNL     1      -3.197  14.376  20.193  0.00  0.00    +0.000 N 
ATOM      5  C   UNL     1      -2.401  13.243  20.231  0.00  0.00    +0.000 A 
ATOM      6  C   UNL     1      -2.003  12.504  19.135  0.00  0.00    +0.000 A 
ATOM      7  C   UNL     1      -1.303  11.324  19.383  0.00  0.00    +0.000 A 
ATOM      8 CL   UNL     1      -0.854  10.315  18.064  0.00  0.00    +0.000 Cl
ATOM      9  C   UNL     1      -1.017  10.914  20.693  0.00  0.00    +0.000 A 
ATOM     10  C   UNL     1      -1.455  11.673  21.786  0.00  0.00    +0.000 A 
ATOM     11 CL   UNL     1      -1.192  11.055  23.369  0.00  0.00    +0.000 Cl
ATOM     12  C   UNL     1      -2.148  12.857  21.556  0.00  0.00    +0.000 A 
ATOM     13  H   UNL     1      -3.580  14.808  19.362  0.00  0.00    +0.000 HD
ENDROOT
BRANCH   1  14
ATOM     14  C   UNL     1      -1.947  14.656  23.435  0.00  0.00    +0.000 A 
ATOM     15  C   UNL     1      -2.185  14.836  24.808  0.00  0.00    +0.000 A 
ATOM     16  C   UNL     1      -1.426  15.742  25.560  0.00  0.00    +0.000 A 
ATOM     17  C   UNL     1      -0.394  16.456  24.961  0.00  0.00    +0.000 A 
ATOM     18 CL   UNL     1       0.496  17.608  25.875  0.00  0.00    +0.000 Cl
ATOM     19  C   UNL     1      -0.089  16.249  23.622  0.00  0.00    +0.000 A 
ATOM     20  C   UNL     1      -0.857  15.357  22.869  0.00  0.00    +0.000 A 
ENDBRANCH   1  14
BRANCH   1  23
ATOM     21  C   UNL     1      -5.104  12.617  23.055  0.00  0.00    +0.000 C 
ATOM     22  O   UNL     1      -5.823  12.305  24.003  0.00  0.00    +0.000 OA
ATOM     23  N   UNL     1      -3.885  13.167  23.348  0.00  0.00    +0.000 N 
ATOM     24  H   UNL     1      -3.762  13.248  24.349  0.00  0.00    +0.000 HD
BRANCH  21  25
ATOM     25  C   UNL     1      -5.480  12.428  21.582  0.00  0.00    +0.000 C 
BRANCH  25  30
ATOM     26  C   UNL     1      -6.955  13.014  17.086  0.00  0.00    +0.000 C 
ATOM     27  N   UNL     1      -7.350  12.514  18.397  0.00  0.00    +0.000 NA
ATOM     28  C   UNL     1      -7.391  13.586  19.405  0.00  0.00    +0.000 C 
ATOM     29  C   UNL     1      -7.683  13.070  20.844  0.00  0.00    +0.000 C 
ATOM     30  N   UNL     1      -6.842  11.930  21.295  0.00  0.00    +0.000 NA
ATOM     31  C   UNL     1      -6.879  10.901  20.234  0.00  0.00    +0.000 C 
ATOM     32  C   UNL     1      -6.478  11.412  18.832  0.00  0.00    +0.000 C 
ENDBRANCH  25  30
ENDBRANCH  21  25
ENDBRANCH   1  23
TORSDOF 4
ENDMDL
MODEL 9
REMARK VINA RESULT:      -5.8      2.822      4.508
REMARK  Name = 
REMARK  5 active torsions:
REMARK  status: ('A' for Active; 'I' for Inactive)
REMARK    1  A    between atoms: C_1  and  N_2
REMARK    2  A    between atoms: N_5  and  C_6
REMARK    3  A    between atoms: C_6  and  C_7
REMARK    4  A    between atoms: N_9  and  C_10
REMARK    5  A    between atoms: C_10  and  C_11
REMARK                            x       y       z     vdW  Elec       q    Type
REMARK                         _______ _______ _______ _____ _____    ______ ____
ROOT
ATOM      1  C   UNL     1      -0.589  13.325  20.675  0.00  0.00    +0.000 C 
ATOM      2  C   UNL     1      -1.091  14.529  19.762  0.00  0.00    +0.000 C 
ATOM      3  O   UNL     1      -0.452  15.214  18.981  0.00  0.00    +0.000 OA
ATOM      4  N   UNL     1      -2.427  14.760  20.081  0.00  0.00    +0.000 N 
ATOM      5  C   UNL     1      -2.864  13.927  21.098  0.00  0.00    +0.000 A 
ATOM      6  C   UNL     1      -4.084  14.012  21.737  0.00  0.00    +0.000 A 
ATOM      7  C   UNL     1      -4.296  13.162  22.821  0.00  0.00    +0.000 A 
ATOM      8 CL   UNL     1      -5.763  13.278  23.713  0.00  0.00    +0.000 Cl
ATOM      9  C   UNL     1      -3.307  12.259  23.236  0.00  0.00    +0.000 A 
ATOM     10  C   UNL     1      -2.069  12.212  22.583  0.00  0.00    +0.000 A 
ATOM     11 CL   UNL     1      -0.847  11.181  23.217  0.00  0.00    +0.000 Cl
ATOM     12  C   UNL     1      -1.844  13.049  21.494  0.00  0.00    +0.000 A 
ATOM     13  H   UNL     1      -2.945  15.528  19.675  0.00  0.00    +0.000 HD
ENDROOT
BRANCH   1  14
ATOM     14  C   UNL     1      -0.105  12.181  19.754  0.00  0.00    +0.000 A 
ATOM     15  C   UNL     1      -0.914  11.103  19.356  0.00  0.00    +0.000 A 
ATOM     16  C   UNL     1      -0.375  10.012  18.662  0.00  0.00    +0.000 A 
ATOM     17  C   UNL     1       0.973   9.997  18.321  0.00  0.00    +0.000 A 
ATOM     18 CL   UNL     1       1.641   8.632  17.520  0.00  0.00    +0.000 Cl
ATOM     19  C   UNL     1       1.783  11.080  18.639  0.00  0.00    +0.000 A 
ATOM     20  C   UNL     1       1.248  12.159  19.345  0.00  0.00    +0.000 A 
ENDBRANCH   1  14
BRANCH   1  23
ATOM     21  C   UNL     1       0.741  14.834  22.333  0.00  0.00    +0.000 C 
ATOM     22  O   UNL     1       1.883  15.049  22.735  0.00  0.00    +0.000 OA
ATOM     23  N   UNL     1       0.565  13.774  21.484  0.00  0.00    +0.000 N 
ATOM     24  H   UNL     1       1.447  13.315  21.300  0.00  0.00    +0.000 HD
BRANCH  21  25
ATOM     25  C   UNL     1      -0.486  15.665  22.721  0.00  0.00    +0.000 C 
BRANCH  25  30
ATOM     26  C   UNL     1      -4.695  16.629  24.743  0.00  0.00    +0.000 C 
ATOM     27  N   UNL     1      -3.255  16.804  24.886  0.00  0.00    +0.000 NA
ATOM     28  C   UNL     1      -2.687  17.603  23.787  0.00  0.00    +0.000 C 
ATOM     29  C   UNL     1      -1.134  17.702  23.835  0.00  0.00    +0.000 C 
ATOM     30  N   UNL     1      -0.418  16.410  23.996  0.00  0.00    +0.000 NA
ATOM     31  C   UNL     1      -1.041  15.692  25.128  0.00  0.00    +0.000 C 
ATOM     32  C   UNL     1      -2.570  15.507  25.006  0.00  0.00    +0.000 C 
ENDBRANCH  25  30
ENDBRANCH  21  25
ENDBRANCH   1  23
TORSDOF 4
ENDMDL
