MODEL 1
REMARK VINA RESULT:      -9.3      0.000      0.000
REMARK  Name = 
REMARK  4 active torsions:
REMARK  status: ('A' for Active; 'I' for Inactive)
REMARK    1  A    between atoms: C_2  and  C_3
REMARK    2  A    between atoms: C_8  and  C_9
REMARK    3  A    between atoms: C_9  and  N_10
REMARK    4  A    between atoms: C_12  and  C_13
REMARK                            x       y       z     vdW  Elec       q    Type
REMARK                         _______ _______ _______ _____ _____    ______ ____
ROOT
ATOM      1  N   UNL     1       2.001   6.407  20.188  0.00  0.00    +0.000 N 
ATOM      2  C   UNL     1       3.027   6.903  19.422  0.00  0.00    +0.000 A 
ATOM      3  C   UNL     1       3.797   5.834  19.004  0.00  0.00    +0.000 A 
ATOM      4  C   UNL     1       3.249   4.642  19.612  0.00  0.00    +0.000 A 
ATOM      5  C   UNL     1       3.588   3.273  19.740  0.00  0.00    +0.000 A 
ATOM      6  N   UNL     1       4.771   2.684  19.363  0.00  0.00    +0.000 N 
ATOM      7  N   UNL     1       2.704   2.439  20.322  0.00  0.00    +0.000 NA
ATOM      8  C   UNL     1       1.571   2.951  20.824  0.00  0.00    +0.000 A 
ATOM      9  N   UNL     1       1.184   4.235  20.856  0.00  0.00    +0.000 NA
ATOM     10  C   UNL     1       2.069   5.036  20.234  0.00  0.00    +0.000 A 
ATOM     11  H   UNL     1       5.437   3.173  18.790  0.00  0.00    +0.000 HD
ATOM     12  H   UNL     1       4.726   1.673  19.286  0.00  0.00    +0.000 HD
ENDROOT
BRANCH   3  13
ATOM     13  C   UNL     1       4.984   5.962  18.169  0.00  0.00    +0.000 A 
ATOM     14  C   UNL     1       6.267   5.657  18.680  0.00  0.00    +0.000 A 
ATOM     15  C   UNL     1       7.305   5.294  17.815  0.00  0.00    +0.000 A 
ATOM     16  C   UNL     1       6.985   5.180  16.482  0.00  0.00    +0.000 A 
ATOM     17  C   UNL     1       5.779   5.620  15.983  0.00  0.00    +0.000 A 
ATOM     18  C   UNL     1       4.795   6.125  16.794  0.00  0.00    +0.000 A 
ATOM     19  O   UNL     1       5.588   5.232  14.689  0.00  0.00    +0.000 OA
ATOM     20  C   UNL     1       6.599   4.207  14.624  0.00  0.00    +0.000 C 
ATOM     21  O   UNL     1       7.679   4.467  15.548  0.00  0.00    +0.000 OA
ENDBRANCH   3  13
BRANCH   1  22
ATOM     22  C   UNL     1       0.985   7.210  20.850  0.00  0.00    +0.000 C 
BRANCH  22  28
ATOM     23  C   UNL     1      -1.199  11.243  21.617  0.00  0.00    +0.000 C 
ATOM     24  O   UNL     1      -1.577  11.700  20.541  0.00  0.00    +0.000 OA
ATOM     25  N   UNL     1      -0.397  10.127  21.708  0.00  0.00    +0.000 N 
ATOM     26  C   UNL     1       0.060   9.424  22.894  0.00  0.00    +0.000 C 
ATOM     27  C   UNL     1       1.498   9.112  22.530  0.00  0.00    +0.000 C 
ATOM     28  C   UNL     1       1.389   8.680  21.059  0.00  0.00    +0.000 C 
ATOM     29  C   UNL     1       0.295   9.628  20.524  0.00  0.00    +0.000 C 
BRANCH  23  31
ATOM     30  C   UNL     1      -2.798  12.114  23.282  0.00  0.00    +0.000 C 
ATOM     31  C   UNL     1      -1.530  11.933  22.895  0.00  0.00    +0.000 C 
ENDBRANCH  23  31
ENDBRANCH  22  28
ENDBRANCH   1  22
TORSDOF 4
ENDMDL
MODEL 2
REMARK VINA RESULT:      -8.5      1.217      1.824
REMARK  Name = 
REMARK  4 active torsions:
REMARK  status: ('A' for Active; 'I' for Inactive)
REMARK    1  A    between atoms: C_2  and  C_3
REMARK    2  A    between atoms: C_8  and  C_9
REMARK    3  A    between atoms: C_9  and  N_10
REMARK    4  A    between atoms: C_12  and  C_13
REMARK                            x       y       z     vdW  Elec       q    Type
REMARK                         _______ _______ _______ _____ _____    ______ ____
ROOT
ATOM      1  N   UNL     1       1.835   6.179  20.299  0.00  0.00    +0.000 N 
ATOM      2  C   UNL     1       2.919   6.614  19.576  0.00  0.00    +0.000 A 
ATOM      3  C   UNL     1       3.568   5.500  19.077  0.00  0.00    +0.000 A 
ATOM      4  C   UNL     1       2.883   4.334  19.588  0.00  0.00    +0.000 A 
ATOM      5  C   UNL     1       3.063   2.930  19.609  0.00  0.00    +0.000 A 
ATOM      6  N   UNL     1       4.177   2.241  19.190  0.00  0.00    +0.000 N 
ATOM      7  N   UNL     1       2.085   2.158  20.123  0.00  0.00    +0.000 NA
ATOM      8  C   UNL     1       1.011   2.755  20.661  0.00  0.00    +0.000 A 
ATOM      9  N   UNL     1       0.772   4.068  20.792  0.00  0.00    +0.000 NA
ATOM     10  C   UNL     1       1.748   4.810  20.237  0.00  0.00    +0.000 A 
ATOM     11  H   UNL     1       4.899   2.695  18.658  0.00  0.00    +0.000 HD
ATOM     12  H   UNL     1       4.018   1.251  19.034  0.00  0.00    +0.000 HD
ENDROOT
BRANCH   3  13
ATOM     13  C   UNL     1       4.771   5.556  18.257  0.00  0.00    +0.000 A 
ATOM     14  C   UNL     1       4.698   5.886  16.884  0.00  0.00    +0.000 A 
ATOM     15  C   UNL     1       5.811   6.421  16.225  0.00  0.00    +0.000 A 
ATOM     16  C   UNL     1       6.922   6.671  16.995  0.00  0.00    +0.000 A 
ATOM     17  C   UNL     1       7.029   6.210  18.289  0.00  0.00    +0.000 A 
ATOM     18  C   UNL     1       6.005   5.545  18.913  0.00  0.00    +0.000 A 
ATOM     19  O   UNL     1       8.112   6.735  18.933  0.00  0.00    +0.000 OA
ATOM     20  C   UNL     1       8.382   7.829  18.033  0.00  0.00    +0.000 C 
ATOM     21  O   UNL     1       7.933   7.536  16.691  0.00  0.00    +0.000 OA
ENDBRANCH   3  13
BRANCH   1  22
ATOM     22  C   UNL     1       0.910   7.038  21.020  0.00  0.00    +0.000 C 
BRANCH  22  28
ATOM     23  C   UNL     1      -1.121  11.190  21.531  0.00  0.00    +0.000 C 
ATOM     24  O   UNL     1      -1.498  11.585  20.429  0.00  0.00    +0.000 OA
ATOM     25  N   UNL     1      -0.358  10.055  21.689  0.00  0.00    +0.000 N 
ATOM     26  C   UNL     1       0.092   9.419  22.916  0.00  0.00    +0.000 C 
ATOM     27  C   UNL     1       1.512   9.032  22.557  0.00  0.00    +0.000 C 
ATOM     28  C   UNL     1       1.368   8.504  21.121  0.00  0.00    +0.000 C 
ATOM     29  C   UNL     1       0.301   9.451  20.534  0.00  0.00    +0.000 C 
BRANCH  23  31
ATOM     30  C   UNL     1      -2.660  12.139  23.209  0.00  0.00    +0.000 C 
ATOM     31  C   UNL     1      -1.410  11.978  22.761  0.00  0.00    +0.000 C 
ENDBRANCH  23  31
ENDBRANCH  22  28
ENDBRANCH   1  22
TORSDOF 4
ENDMDL
MODEL 3
REMARK VINA RESULT:      -8.3      1.714      1.971
REMARK  Name = 
REMARK  4 active torsions:
REMARK  status: ('A' for Active; 'I' for Inactive)
REMARK    1  A    between atoms: C_2  and  C_3
REMARK    2  A    between atoms: C_8  and  C_9
REMARK    3  A    between atoms: C_9  and  N_10
REMARK    4  A    between atoms: C_12  and  C_13
REMARK                            x       y       z     vdW  Elec       q    Type
REMARK                         _______ _______ _______ _____ _____    ______ ____
ROOT
ATOM      1  N   UNL     1       2.229   7.208  19.659  0.00  0.00    +0.000 N 
ATOM      2  C   UNL     1       3.145   7.570  18.701  0.00  0.00    +0.000 A 
ATOM      3  C   UNL     1       3.895   6.452  18.391  0.00  0.00    +0.000 A 
ATOM      4  C   UNL     1       3.459   5.382  19.260  0.00  0.00    +0.000 A 
ATOM      5  C   UNL     1       3.853   4.062  19.587  0.00  0.00    +0.000 A 
ATOM      6  N   UNL     1       5.004   3.428  19.183  0.00  0.00    +0.000 N 
ATOM      7  N   UNL     1       3.069   3.336  20.409  0.00  0.00    +0.000 NA
ATOM      8  C   UNL     1       1.986   3.918  20.942  0.00  0.00    +0.000 A 
ATOM      9  N   UNL     1       1.564   5.183  20.792  0.00  0.00    +0.000 NA
ATOM     10  C   UNL     1       2.346   5.868  19.938  0.00  0.00    +0.000 A 
ATOM     11  H   UNL     1       5.584   3.814  18.458  0.00  0.00    +0.000 HD
ATOM     12  H   UNL     1       4.983   2.419  19.292  0.00  0.00    +0.000 HD
ENDROOT
BRANCH   3  13
ATOM     13  C   UNL     1       4.974   6.440  17.412  0.00  0.00    +0.000 A 
ATOM     14  C   UNL     1       6.327   6.421  17.822  0.00  0.00    +0.000 A 
ATOM     15  C   UNL     1       7.318   5.919  16.971  0.00  0.00    +0.000 A 
ATOM     16  C   UNL     1       6.893   5.390  15.775  0.00  0.00    +0.000 A 
ATOM     17  C   UNL     1       5.600   5.550  15.327  0.00  0.00    +0.000 A 
ATOM     18  C   UNL     1       4.639   6.175  16.081  0.00  0.00    +0.000 A 
ATOM     19  O   UNL     1       5.339   4.784  14.228  0.00  0.00    +0.000 OA
ATOM     20  C   UNL     1       6.462   3.884  14.328  0.00  0.00    +0.000 C 
ATOM     21  O   UNL     1       7.581   4.504  14.998  0.00  0.00    +0.000 OA
ENDBRANCH   3  13
BRANCH   1  22
ATOM     22  C   UNL     1       1.271   8.106  20.284  0.00  0.00    +0.000 C 
BRANCH  22  28
ATOM     23  C   UNL     1      -1.873  10.819  18.191  0.00  0.00    +0.000 C 
ATOM     24  O   UNL     1      -1.938  10.507  17.004  0.00  0.00    +0.000 OA
ATOM     25  N   UNL     1      -0.931  10.291  19.045  0.00  0.00    +0.000 N 
ATOM     26  C   UNL     1      -0.778  10.493  20.476  0.00  0.00    +0.000 C 
ATOM     27  C   UNL     1       0.727  10.616  20.608  0.00  0.00    +0.000 C 
ATOM     28  C   UNL     1       1.242   9.515  19.667  0.00  0.00    +0.000 C 
ATOM     29  C   UNL     1       0.227   9.582  18.507  0.00  0.00    +0.000 C 
BRANCH  23  31
ATOM     30  C   UNL     1      -4.106  11.770  18.635  0.00  0.00    +0.000 C 
ATOM     31  C   UNL     1      -2.777  11.860  18.755  0.00  0.00    +0.000 C 
ENDBRANCH  23  31
ENDBRANCH  22  28
ENDBRANCH   1  22
TORSDOF 4
ENDMDL
MODEL 4
REMARK VINA RESULT:      -8.2      2.467      8.175
REMARK  Name = 
REMARK  4 active torsions:
REMARK  status: ('A' for Active; 'I' for Inactive)
REMARK    1  A    between atoms: C_2  and  C_3
REMARK    2  A    between atoms: C_8  and  C_9
REMARK    3  A    between atoms: C_9  and  N_10
REMARK    4  A    between atoms: C_12  and  C_13
REMARK                            x       y       z     vdW  Elec       q    Type
REMARK                         _______ _______ _______ _____ _____    ______ ____
ROOT
ATOM      1  N   UNL     1       5.240   5.059  18.240  0.00  0.00    +0.000 N 
ATOM      2  C   UNL     1       4.494   6.209  18.152  0.00  0.00    +0.000 A 
ATOM      3  C   UNL     1       3.379   6.050  18.953  0.00  0.00    +0.000 A 
ATOM      4  C   UNL     1       3.419   4.709  19.491  0.00  0.00    +0.000 A 
ATOM      5  C   UNL     1       2.579   3.847  20.238  0.00  0.00    +0.000 A 
ATOM      6  N   UNL     1       1.265   4.073  20.574  0.00  0.00    +0.000 N 
ATOM      7  N   UNL     1       3.067   2.657  20.641  0.00  0.00    +0.000 NA
ATOM      8  C   UNL     1       4.302   2.306  20.258  0.00  0.00    +0.000 A 
ATOM      9  N   UNL     1       5.151   2.985  19.472  0.00  0.00    +0.000 NA
ATOM     10  C   UNL     1       4.650   4.182  19.117  0.00  0.00    +0.000 A 
ATOM     11  H   UNL     1       0.846   4.980  20.456  0.00  0.00    +0.000 HD
ATOM     12  H   UNL     1       0.921   3.481  21.323  0.00  0.00    +0.000 HD
ENDROOT
BRANCH   3  13
ATOM     13  C   UNL     1       2.343   7.062  19.119  0.00  0.00    +0.000 A 
ATOM     14  C   UNL     1       1.830   7.374  20.399  0.00  0.00    +0.000 A 
ATOM     15  C   UNL     1       1.244   8.621  20.643  0.00  0.00    +0.000 A 
ATOM     16  C   UNL     1       1.269   9.525  19.608  0.00  0.00    +0.000 A 
ATOM     17  C   UNL     1       1.634   9.160  18.330  0.00  0.00    +0.000 A 
ATOM     18  C   UNL     1       2.071   7.896  18.030  0.00  0.00    +0.000 A 
ATOM     19  O   UNL     1       1.782  10.242  17.510  0.00  0.00    +0.000 OA
ATOM     20  C   UNL     1       1.858  11.265  18.523  0.00  0.00    +0.000 C 
ATOM     21  O   UNL     1       1.149  10.880  19.721  0.00  0.00    +0.000 OA
ENDBRANCH   3  13
BRANCH   1  22
ATOM     22  C   UNL     1       6.477   4.806  17.518  0.00  0.00    +0.000 C 
BRANCH  22  28
ATOM     23  C   UNL     1       6.185   3.735  13.002  0.00  0.00    +0.000 C 
ATOM     24  O   UNL     1       7.273   3.303  12.627  0.00  0.00    +0.000 OA
ATOM     25  N   UNL     1       5.994   4.269  14.257  0.00  0.00    +0.000 N 
ATOM     26  C   UNL     1       4.764   4.739  14.873  0.00  0.00    +0.000 C 
ATOM     27  C   UNL     1       5.238   5.994  15.580  0.00  0.00    +0.000 C 
ATOM     28  C   UNL     1       6.584   5.558  16.180  0.00  0.00    +0.000 C 
ATOM     29  C   UNL     1       7.144   4.634  15.079  0.00  0.00    +0.000 C 
BRANCH  23  31
ATOM     30  C   UNL     1       4.626   2.687  11.403  0.00  0.00    +0.000 C 
ATOM     31  C   UNL     1       5.021   3.775  12.075  0.00  0.00    +0.000 C 
ENDBRANCH  23  31
ENDBRANCH  22  28
ENDBRANCH   1  22
TORSDOF 4
ENDMDL
MODEL 5
REMARK VINA RESULT:      -8.0      2.291      8.783
REMARK  Name = 
REMARK  4 active torsions:
REMARK  status: ('A' for Active; 'I' for Inactive)
REMARK    1  A    between atoms: C_2  and  C_3
REMARK    2  A    between atoms: C_8  and  C_9
REMARK    3  A    between atoms: C_9  and  N_10
REMARK    4  A    between atoms: C_12  and  C_13
REMARK                            x       y       z     vdW  Elec       q    Type
REMARK                         _______ _______ _______ _____ _____    ______ ____
ROOT
ATOM      1  N   UNL     1       4.315   6.206  17.488  0.00  0.00    +0.000 N 
ATOM      2  C   UNL     1       3.560   7.320  17.765  0.00  0.00    +0.000 A 
ATOM      3  C   UNL     1       2.744   7.021  18.839  0.00  0.00    +0.000 A 
ATOM      4  C   UNL     1       2.965   5.633  19.178  0.00  0.00    +0.000 A 
ATOM      5  C   UNL     1       2.406   4.654  20.036  0.00  0.00    +0.000 A 
ATOM      6  N   UNL     1       1.254   4.777  20.775  0.00  0.00    +0.000 N 
ATOM      7  N   UNL     1       3.011   3.454  20.131  0.00  0.00    +0.000 NA
ATOM      8  C   UNL     1       4.076   3.208  19.356  0.00  0.00    +0.000 A 
ATOM      9  N   UNL     1       4.636   4.010  18.437  0.00  0.00    +0.000 NA
ATOM     10  C   UNL     1       4.033   5.211  18.393  0.00  0.00    +0.000 A 
ATOM     11  H   UNL     1       0.805   5.669  20.896  0.00  0.00    +0.000 HD
ATOM     12  H   UNL     1       1.162   4.091  21.518  0.00  0.00    +0.000 HD
ENDROOT
BRANCH   3  13
ATOM     13  C   UNL     1       1.793   7.955  19.426  0.00  0.00    +0.000 A 
ATOM     14  C   UNL     1       1.522   7.940  20.814  0.00  0.00    +0.000 A 
ATOM     15  C   UNL     1       1.035   9.086  21.453  0.00  0.00    +0.000 A 
ATOM     16  C   UNL     1       0.915  10.218  20.681  0.00  0.00    +0.000 A 
ATOM     17  C   UNL     1       1.040  10.179  19.309  0.00  0.00    +0.000 A 
ATOM     18  C   UNL     1       1.369   9.030  18.638  0.00  0.00    +0.000 A 
ATOM     19  O   UNL     1       1.086  11.430  18.763  0.00  0.00    +0.000 OA
ATOM     20  C   UNL     1       1.375  12.173  19.964  0.00  0.00    +0.000 C 
ATOM     21  O   UNL     1       0.870  11.502  21.139  0.00  0.00    +0.000 OA
ENDBRANCH   3  13
BRANCH   1  22
ATOM     22  C   UNL     1       5.277   6.094  16.404  0.00  0.00    +0.000 C 
BRANCH  22  28
ATOM     23  C   UNL     1       5.851   3.576  12.537  0.00  0.00    +0.000 C 
ATOM     24  O   UNL     1       4.753   3.170  12.162  0.00  0.00    +0.000 OA
ATOM     25  N   UNL     1       6.028   4.233  13.734  0.00  0.00    +0.000 N 
ATOM     26  C   UNL     1       7.233   4.841  14.273  0.00  0.00    +0.000 C 
ATOM     27  C   UNL     1       7.151   4.439  15.732  0.00  0.00    +0.000 C 
ATOM     28  C   UNL     1       5.663   4.645  16.058  0.00  0.00    +0.000 C 
ATOM     29  C   UNL     1       4.981   4.196  14.750  0.00  0.00    +0.000 C 
BRANCH  23  31
ATOM     30  C   UNL     1       7.277   2.118  11.148  0.00  0.00    +0.000 C 
ATOM     31  C   UNL     1       7.077   3.302  11.737  0.00  0.00    +0.000 C 
ENDBRANCH  23  31
ENDBRANCH  22  28
ENDBRANCH   1  22
TORSDOF 4
ENDMDL
MODEL 6
REMARK VINA RESULT:      -7.9      1.101      1.262
REMARK  Name = 
REMARK  4 active torsions:
REMARK  status: ('A' for Active; 'I' for Inactive)
REMARK    1  A    between atoms: C_2  and  C_3
REMARK    2  A    between atoms: C_8  and  C_9
REMARK    3  A    between atoms: C_9  and  N_10
REMARK    4  A    between atoms: C_12  and  C_13
REMARK                            x       y       z     vdW  Elec       q    Type
REMARK                         _______ _______ _______ _____ _____    ______ ____
ROOT
ATOM      1  N   UNL     1       2.198   6.495  20.249  0.00  0.00    +0.000 N 
ATOM      2  C   UNL     1       3.225   7.005  19.492  0.00  0.00    +0.000 A 
ATOM      3  C   UNL     1       3.703   5.988  18.688  0.00  0.00    +0.000 A 
ATOM      4  C   UNL     1       2.976   4.786  19.032  0.00  0.00    +0.000 A 
ATOM      5  C   UNL     1       3.025   3.403  18.734  0.00  0.00    +0.000 A 
ATOM      6  N   UNL     1       4.011   2.751  18.032  0.00  0.00    +0.000 N 
ATOM      7  N   UNL     1       2.046   2.604  19.203  0.00  0.00    +0.000 NA
ATOM      8  C   UNL     1       1.105   3.138  19.994  0.00  0.00    +0.000 A 
ATOM      9  N   UNL     1       1.007   4.403  20.429  0.00  0.00    +0.000 NA
ATOM     10  C   UNL     1       1.976   5.182  19.914  0.00  0.00    +0.000 A 
ATOM     11  H   UNL     1       4.706   3.261  17.514  0.00  0.00    +0.000 HD
ATOM     12  H   UNL     1       3.743   1.832  17.695  0.00  0.00    +0.000 HD
ENDROOT
BRANCH   3  13
ATOM     13  C   UNL     1       4.800   6.143  17.742  0.00  0.00    +0.000 A 
ATOM     14  C   UNL     1       6.143   6.162  18.185  0.00  0.00    +0.000 A 
ATOM     15  C   UNL     1       7.181   5.813  17.313  0.00  0.00    +0.000 A 
ATOM     16  C   UNL     1       6.814   5.387  16.058  0.00  0.00    +0.000 A 
ATOM     17  C   UNL     1       5.523   5.515  15.595  0.00  0.00    +0.000 A 
ATOM     18  C   UNL     1       4.510   5.998  16.383  0.00  0.00    +0.000 A 
ATOM     19  O   UNL     1       5.333   4.853  14.416  0.00  0.00    +0.000 OA
ATOM     20  C   UNL     1       6.507   4.017  14.453  0.00  0.00    +0.000 C 
ATOM     21  O   UNL     1       7.572   4.629  15.213  0.00  0.00    +0.000 OA
ENDBRANCH   3  13
BRANCH   1  22
ATOM     22  C   UNL     1       1.450   7.234  21.252  0.00  0.00    +0.000 C 
BRANCH  22  28
ATOM     23  C   UNL     1      -0.789  11.105  22.529  0.00  0.00    +0.000 C 
ATOM     24  O   UNL     1      -1.703  10.801  23.293  0.00  0.00    +0.000 OA
ATOM     25  N   UNL     1      -0.032  10.164  21.868  0.00  0.00    +0.000 N 
ATOM     26  C   UNL     1       1.123  10.360  21.007  0.00  0.00    +0.000 C 
ATOM     27  C   UNL     1       0.852   9.360  19.901  0.00  0.00    +0.000 C 
ATOM     28  C   UNL     1       0.342   8.131  20.671  0.00  0.00    +0.000 C 
ATOM     29  C   UNL     1      -0.485   8.778  21.800  0.00  0.00    +0.000 C 
BRANCH  23  31
ATOM     30  C   UNL     1      -1.310  13.248  21.422  0.00  0.00    +0.000 C 
ATOM     31  C   UNL     1      -0.504  12.532  22.215  0.00  0.00    +0.000 C 
ENDBRANCH  23  31
ENDBRANCH  22  28
ENDBRANCH   1  22
TORSDOF 4
ENDMDL
MODEL 7
REMARK VINA RESULT:      -7.7      1.737      2.034
REMARK  Name = 
REMARK  4 active torsions:
REMARK  status: ('A' for Active; 'I' for Inactive)
REMARK    1  A    between atoms: C_2  and  C_3
REMARK    2  A    between atoms: C_8  and  C_9
REMARK    3  A    between atoms: C_9  and  N_10
REMARK    4  A    between atoms: C_12  and  C_13
REMARK                            x       y       z     vdW  Elec       q    Type
REMARK                         _______ _______ _______ _____ _____    ______ ____
ROOT
ATOM      1  N   UNL     1       2.217   7.699  19.256  0.00  0.00    +0.000 N 
ATOM      2  C   UNL     1       3.142   7.941  18.270  0.00  0.00    +0.000 A 
ATOM      3  C   UNL     1       3.904   6.798  18.117  0.00  0.00    +0.000 A 
ATOM      4  C   UNL     1       3.464   5.847  19.112  0.00  0.00    +0.000 A 
ATOM      5  C   UNL     1       3.862   4.584  19.613  0.00  0.00    +0.000 A 
ATOM      6  N   UNL     1       5.023   3.912  19.308  0.00  0.00    +0.000 N 
ATOM      7  N   UNL     1       3.073   3.965  20.513  0.00  0.00    +0.000 NA
ATOM      8  C   UNL     1       1.979   4.602  20.953  0.00  0.00    +0.000 A 
ATOM      9  N   UNL     1       1.551   5.833  20.635  0.00  0.00    +0.000 NA
ATOM     10  C   UNL     1       2.339   6.408  19.709  0.00  0.00    +0.000 A 
ATOM     11  H   UNL     1       5.609   4.205  18.546  0.00  0.00    +0.000 HD
ATOM     12  H   UNL     1       5.006   2.926  19.547  0.00  0.00    +0.000 HD
ENDROOT
BRANCH   3  13
ATOM     13  C   UNL     1       4.995   6.668  17.160  0.00  0.00    +0.000 A 
ATOM     14  C   UNL     1       6.341   6.644  17.593  0.00  0.00    +0.000 A 
ATOM     15  C   UNL     1       7.327   6.040  16.805  0.00  0.00    +0.000 A 
ATOM     16  C   UNL     1       6.902   5.422  15.653  0.00  0.00    +0.000 A 
ATOM     17  C   UNL     1       5.621   5.581  15.172  0.00  0.00    +0.000 A 
ATOM     18  C   UNL     1       4.670   6.298  15.852  0.00  0.00    +0.000 A 
ATOM     19  O   UNL     1       5.352   4.729  14.139  0.00  0.00    +0.000 OA
ATOM     20  C   UNL     1       6.444   3.809  14.335  0.00  0.00    +0.000 C 
ATOM     21  O   UNL     1       7.572   4.450  14.968  0.00  0.00    +0.000 OA
ENDBRANCH   3  13
BRANCH   1  22
ATOM     22  C   UNL     1       1.245   8.663  19.748  0.00  0.00    +0.000 C 
BRANCH  22  28
ATOM     23  C   UNL     1      -1.475  12.433  19.645  0.00  0.00    +0.000 C 
ATOM     24  O   UNL     1      -2.642  12.076  19.501  0.00  0.00    +0.000 OA
ATOM     25  N   UNL     1      -0.417  11.555  19.572  0.00  0.00    +0.000 N 
ATOM     26  C   UNL     1       0.997  11.805  19.801  0.00  0.00    +0.000 C 
ATOM     27  C   UNL     1       1.634  10.994  18.690  0.00  0.00    +0.000 C 
ATOM     28  C   UNL     1       0.806   9.698  18.698  0.00  0.00    +0.000 C 
ATOM     29  C   UNL     1      -0.611  10.223  19.008  0.00  0.00    +0.000 C 
BRANCH  23  31
ATOM     30  C   UNL     1      -1.282  14.476  21.016  0.00  0.00    +0.000 C 
ATOM     31  C   UNL     1      -1.136  13.872  19.831  0.00  0.00    +0.000 C 
ENDBRANCH  23  31
ENDBRANCH  22  28
ENDBRANCH   1  22
TORSDOF 4
ENDMDL
MODEL 8
REMARK VINA RESULT:      -7.7      2.228      2.763
REMARK  Name = 
REMARK  4 active torsions:
REMARK  status: ('A' for Active; 'I' for Inactive)
REMARK    1  A    between atoms: C_2  and  C_3
REMARK    2  A    between atoms: C_8  and  C_9
REMARK    3  A    between atoms: C_9  and  N_10
REMARK    4  A    between atoms: C_12  and  C_13
REMARK                            x       y       z     vdW  Elec       q    Type
REMARK                         _______ _______ _______ _____ _____    ______ ____
ROOT
ATOM      1  N   UNL     1       2.921   6.602  18.916  0.00  0.00    +0.000 N 
ATOM      2  C   UNL     1       3.764   6.375  17.855  0.00  0.00    +0.000 A 
ATOM      3  C   UNL     1       4.187   5.062  17.926  0.00  0.00    +0.000 A 
ATOM      4  C   UNL     1       3.630   4.491  19.132  0.00  0.00    +0.000 A 
ATOM      5  C   UNL     1       3.745   3.297  19.885  0.00  0.00    +0.000 A 
ATOM      6  N   UNL     1       4.655   2.287  19.682  0.00  0.00    +0.000 N 
ATOM      7  N   UNL     1       2.927   3.115  20.940  0.00  0.00    +0.000 NA
ATOM      8  C   UNL     1       2.086   4.102  21.279  0.00  0.00    +0.000 A 
ATOM      9  N   UNL     1       1.955   5.311  20.713  0.00  0.00    +0.000 NA
ATOM     10  C   UNL     1       2.758   5.448  19.642  0.00  0.00    +0.000 A 
ATOM     11  H   UNL     1       5.210   2.246  18.844  0.00  0.00    +0.000 HD
ATOM     12  H   UNL     1       4.413   1.413  20.138  0.00  0.00    +0.000 HD
ENDROOT
BRANCH   3  13
ATOM     13  C   UNL     1       5.098   4.446  16.970  0.00  0.00    +0.000 A 
ATOM     14  C   UNL     1       4.638   3.473  16.052  0.00  0.00    +0.000 A 
ATOM     15  C   UNL     1       5.325   3.250  14.854  0.00  0.00    +0.000 A 
ATOM     16  C   UNL     1       6.400   4.069  14.598  0.00  0.00    +0.000 A 
ATOM     17  C   UNL     1       6.922   4.905  15.560  0.00  0.00    +0.000 A 
ATOM     18  C   UNL     1       6.356   5.032  16.803  0.00  0.00    +0.000 A 
ATOM     19  O   UNL     1       7.846   5.767  15.044  0.00  0.00    +0.000 OA
ATOM     20  C   UNL     1       7.515   5.619  13.648  0.00  0.00    +0.000 C 
ATOM     21  O   UNL     1       6.945   4.321  13.373  0.00  0.00    +0.000 OA
ENDBRANCH   3  13
BRANCH   1  22
ATOM     22  C   UNL     1       2.287   7.874  19.225  0.00  0.00    +0.000 C 
BRANCH  22  28
ATOM     23  C   UNL     1      -1.341  10.436  17.847  0.00  0.00    +0.000 C 
ATOM     24  O   UNL     1      -2.196   9.690  17.375  0.00  0.00    +0.000 OA
ATOM     25  N   UNL     1      -0.091   9.991  18.213  0.00  0.00    +0.000 N 
ATOM     26  C   UNL     1       0.989  10.722  18.855  0.00  0.00    +0.000 C 
ATOM     27  C   UNL     1       2.198  10.205  18.102  0.00  0.00    +0.000 C 
ATOM     28  C   UNL     1       1.907   8.700  17.984  0.00  0.00    +0.000 C 
ATOM     29  C   UNL     1       0.380   8.684  17.764  0.00  0.00    +0.000 C 
BRANCH  23  31
ATOM     30  C   UNL     1      -2.168  12.415  19.067  0.00  0.00    +0.000 C 
ATOM     31  C   UNL     1      -1.593  11.898  17.974  0.00  0.00    +0.000 C 
ENDBRANCH  23  31
ENDBRANCH  22  28
ENDBRANCH   1  22
TORSDOF 4
ENDMDL
MODEL 9
REMARK VINA RESULT:      -7.6      1.955      3.053
REMARK  Name = 
REMARK  4 active torsions:
REMARK  status: ('A' for Active; 'I' for Inactive)
REMARK    1  A    between atoms: C_2  and  C_3
REMARK    2  A    between atoms: C_8  and  C_9
REMARK    3  A    between atoms: C_9  and  N_10
REMARK    4  A    between atoms: C_12  and  C_13
REMARK                            x       y       z     vdW  Elec       q    Type
REMARK                         _______ _______ _______ _____ _____    ______ ____
ROOT
ATOM      1  N   UNL     1       3.639   6.772  17.740  0.00  0.00    +0.000 N 
ATOM      2  C   UNL     1       4.530   6.563  16.716  0.00  0.00    +0.000 A 
ATOM      3  C   UNL     1       4.649   5.199  16.531  0.00  0.00    +0.000 A 
ATOM      4  C   UNL     1       3.846   4.553  17.545  0.00  0.00    +0.000 A 
ATOM      5  C   UNL     1       3.612   3.242  18.029  0.00  0.00    +0.000 A 
ATOM      6  N   UNL     1       4.299   2.105  17.676  0.00  0.00    +0.000 N 
ATOM      7  N   UNL     1       2.657   3.056  18.961  0.00  0.00    +0.000 NA
ATOM      8  C   UNL     1       2.016   4.129  19.447  0.00  0.00    +0.000 A 
ATOM      9  N   UNL     1       2.215   5.421  19.146  0.00  0.00    +0.000 NA
ATOM     10  C   UNL     1       3.147   5.570  18.187  0.00  0.00    +0.000 A 
ATOM     11  H   UNL     1       4.925   2.098  16.889  0.00  0.00    +0.000 HD
ATOM     12  H   UNL     1       3.823   1.241  17.916  0.00  0.00    +0.000 HD
ENDROOT
BRANCH   3  13
ATOM     13  C   UNL     1       5.510   4.583  15.530  0.00  0.00    +0.000 A 
ATOM     14  C   UNL     1       4.966   3.784  14.497  0.00  0.00    +0.000 A 
ATOM     15  C   UNL     1       5.662   3.612  13.295  0.00  0.00    +0.000 A 
ATOM     16  C   UNL     1       6.838   4.312  13.158  0.00  0.00    +0.000 A 
ATOM     17  C   UNL     1       7.425   4.962  14.220  0.00  0.00    +0.000 A 
ATOM     18  C   UNL     1       6.835   5.020  15.457  0.00  0.00    +0.000 A 
ATOM     19  O   UNL     1       8.466   5.753  13.826  0.00  0.00    +0.000 OA
ATOM     20  C   UNL     1       8.168   5.804  12.416  0.00  0.00    +0.000 C 
ATOM     21  O   UNL     1       7.452   4.627  11.981  0.00  0.00    +0.000 OA
ENDBRANCH   3  13
BRANCH   1  22
ATOM     22  C   UNL     1       3.263   8.072  18.271  0.00  0.00    +0.000 C 
BRANCH  22  28
ATOM     23  C   UNL     1       0.580  10.709  21.005  0.00  0.00    +0.000 C 
ATOM     24  O   UNL     1       0.549  10.212  22.128  0.00  0.00    +0.000 OA
ATOM     25  N   UNL     1       1.178  10.083  19.934  0.00  0.00    +0.000 N 
ATOM     26  C   UNL     1       1.368  10.572  18.578  0.00  0.00    +0.000 C 
ATOM     27  C   UNL     1       1.060   9.333  17.761  0.00  0.00    +0.000 C 
ATOM     28  C   UNL     1       1.758   8.219  18.557  0.00  0.00    +0.000 C 
ATOM     29  C   UNL     1       1.521   8.666  20.015  0.00  0.00    +0.000 C 
BRANCH  23  31
ATOM     30  C   UNL     1      -1.423  12.049  20.476  0.00  0.00    +0.000 C 
ATOM     31  C   UNL     1      -0.110  11.999  20.725  0.00  0.00    +0.000 C 
ENDBRANCH  23  31
ENDBRANCH  22  28
ENDBRANCH   1  22
TORSDOF 4
ENDMDL
