MODEL 1
REMARK VINA RESULT:     -10.4      0.000      0.000
REMARK  Name = 
REMARK  12 active torsions:
REMARK  status: ('A' for Active; 'I' for Inactive)
REMARK    1  A    between atoms: C_1  and  C_2
REMARK    2  A    between atoms: C_2  and  O_3
REMARK    3  A    between atoms: O_3  and  C_4
REMARK    4  A    between atoms: C_4  and  C_6
REMARK    5  A    between atoms: C_7  and  C_8
REMARK    6  A    between atoms: C_10  and  C_11
REMARK    7  A    between atoms: C_12  and  C_13
REMARK    8  A    between atoms: C_13  and  O_15
REMARK    9  A    between atoms: O_15  and  C_16
REMARK   10  A    between atoms: C_17  and  C_18
REMARK   11  A    between atoms: C_21  and  C_22
REMARK   12  A    between atoms: C_27  and  C_28
REMARK                            x       y       z     vdW  Elec       q    Type
REMARK                         _______ _______ _______ _____ _____    ______ ____
ROOT
ATOM      1  C   UNL     1       3.252   6.542  18.117  0.00  0.00    +0.000 A 
ATOM      2  C   UNL     1       2.834   6.548  19.450  0.00  0.00    +0.000 A 
ATOM      3  C   UNL     1       2.003   7.569  19.917  0.00  0.00    +0.000 A 
ATOM      4  C   UNL     1       1.595   8.621  19.078  0.00  0.00    +0.000 A 
ATOM      5  C   UNL     1       2.035   8.623  17.754  0.00  0.00    +0.000 A 
ATOM      6  C   UNL     1       2.856   7.603  17.282  0.00  0.00    +0.000 A 
ENDROOT
BRANCH   1  14
ATOM      7  C   UNL     1       3.726   4.082  18.278  0.00  0.00    +0.000 C 
ATOM      8  C   UNL     1       4.541   3.594  19.247  0.00  0.00    +0.000 C 
ATOM      9  C   UNL     1       4.351   2.345  20.075  0.00  0.00    +0.000 C 
ATOM     10  N   UNL     1       5.729   4.262  19.525  0.00  0.00    +0.000 N 
ATOM     11  C   UNL     1       6.316   5.194  18.686  0.00  0.00    +0.000 C 
ATOM     12  C   UNL     1       7.760   5.518  18.974  0.00  0.00    +0.000 C 
ATOM     13  C   UNL     1       5.588   5.745  17.685  0.00  0.00    +0.000 C 
ATOM     14  C   UNL     1       4.101   5.393  17.561  0.00  0.00    +0.000 C 
ATOM     15  H   UNL     1       6.317   3.865  20.255  0.00  0.00    +0.000 HD
BRANCH   7  16
ATOM     16  C   UNL     1       2.491   3.380  17.824  0.00  0.00    +0.000 C 
ATOM     17  O   UNL     1       2.430   2.578  16.906  0.00  0.00    +0.000 OA
BRANCH  16  18
ATOM     18  O   UNL     1       1.406   3.871  18.483  0.00  0.00    +0.000 OA
BRANCH  18  20
ATOM     19  C   UNL     1       1.061   3.506  20.816  0.00  0.00    +0.000 C 
ATOM     20  C   UNL     1       0.799   2.967  19.419  0.00  0.00    +0.000 C 
ENDBRANCH  18  20
ENDBRANCH  16  18
ENDBRANCH   7  16
BRANCH  13  21
ATOM     21  C   UNL     1       6.196   6.737  16.757  0.00  0.00    +0.000 C 
ATOM     22  O   UNL     1       6.745   7.769  17.115  0.00  0.00    +0.000 OA
BRANCH  21  23
ATOM     23  O   UNL     1       6.103   6.349  15.456  0.00  0.00    +0.000 OA
ATOM     24  C   UNL     1       6.869   5.167  15.173  0.00  0.00    +0.000 C 
ENDBRANCH  21  23
ENDBRANCH  13  21
ENDBRANCH   1  14
BRANCH   4  25
ATOM     25  C   UNL     1       0.704   9.693  19.559  0.00  0.00    +0.000 A 
ATOM     26  C   UNL     1       0.940  10.329  20.712  0.00  0.00    +0.000 A 
ATOM     27  C   UNL     1      -0.003  11.362  21.159  0.00  0.00    +0.000 A 
ATOM     28  O   UNL     1       0.161  11.952  22.220  0.00  0.00    +0.000 OA
ATOM     29  C   UNL     1      -1.152  11.646  20.289  0.00  0.00    +0.000 A 
ATOM     30  C   UNL     1      -1.277  10.950  19.151  0.00  0.00    +0.000 A 
ATOM     31  O   UNL     1      -0.386   9.978  18.740  0.00  0.00    +0.000 OA
BRANCH  30  32
ATOM     32  C   UNL     1      -2.411  11.202  18.262  0.00  0.00    +0.000 A 
ATOM     33  C   UNL     1      -3.607  11.723  18.770  0.00  0.00    +0.000 A 
ATOM     34  C   UNL     1      -4.730  11.835  17.948  0.00  0.00    +0.000 A 
ATOM     35  C   UNL     1      -4.660  11.445  16.612  0.00  0.00    +0.000 A 
ATOM     36  C   UNL     1      -3.464  10.950  16.092  0.00  0.00    +0.000 A 
ATOM     37  C   UNL     1      -2.343  10.826  16.914  0.00  0.00    +0.000 A 
ENDBRANCH  30  32
ENDBRANCH   4  25
TORSDOF 8
ENDMDL
MODEL 2
REMARK VINA RESULT:      -9.8      2.152      2.713
REMARK  Name = 
REMARK  12 active torsions:
REMARK  status: ('A' for Active; 'I' for Inactive)
REMARK    1  A    between atoms: C_1  and  C_2
REMARK    2  A    between atoms: C_2  and  O_3
REMARK    3  A    between atoms: O_3  and  C_4
REMARK    4  A    between atoms: C_4  and  C_6
REMARK    5  A    between atoms: C_7  and  C_8
REMARK    6  A    between atoms: C_10  and  C_11
REMARK    7  A    between atoms: C_12  and  C_13
REMARK    8  A    between atoms: C_13  and  O_15
REMARK    9  A    between atoms: O_15  and  C_16
REMARK   10  A    between atoms: C_17  and  C_18
REMARK   11  A    between atoms: C_21  and  C_22
REMARK   12  A    between atoms: C_27  and  C_28
REMARK                            x       y       z     vdW  Elec       q    Type
REMARK                         _______ _______ _______ _____ _____    ______ ____
ROOT
ATOM      1  C   UNL     1       3.062   6.327  18.311  0.00  0.00    +0.000 A 
ATOM      2  C   UNL     1       2.628   7.462  17.622  0.00  0.00    +0.000 A 
ATOM      3  C   UNL     1       1.968   8.485  18.305  0.00  0.00    +0.000 A 
ATOM      4  C   UNL     1       1.698   8.389  19.682  0.00  0.00    +0.000 A 
ATOM      5  C   UNL     1       2.112   7.243  20.361  0.00  0.00    +0.000 A 
ATOM      6  C   UNL     1       2.778   6.224  19.685  0.00  0.00    +0.000 A 
ENDROOT
BRANCH   1  14
ATOM      7  C   UNL     1       3.583   3.871  18.282  0.00  0.00    +0.000 C 
ATOM      8  C   UNL     1       4.512   3.349  19.122  0.00  0.00    +0.000 C 
ATOM      9  C   UNL     1       4.436   2.054  19.897  0.00  0.00    +0.000 C 
ATOM     10  N   UNL     1       5.715   4.023  19.298  0.00  0.00    +0.000 N 
ATOM     11  C   UNL     1       6.188   5.010  18.448  0.00  0.00    +0.000 C 
ATOM     12  C   UNL     1       7.651   5.346  18.586  0.00  0.00    +0.000 C 
ATOM     13  C   UNL     1       5.342   5.599  17.570  0.00  0.00    +0.000 C 
ATOM     14  C   UNL     1       3.855   5.225  17.599  0.00  0.00    +0.000 C 
ATOM     15  H   UNL     1       6.389   3.600  19.932  0.00  0.00    +0.000 HD
BRANCH   7  16
ATOM     16  C   UNL     1       2.313   3.170  17.935  0.00  0.00    +0.000 C 
ATOM     17  O   UNL     1       2.167   2.387  17.011  0.00  0.00    +0.000 OA
BRANCH  16  18
ATOM     18  O   UNL     1       1.295   3.639  18.707  0.00  0.00    +0.000 OA
BRANCH  18  20
ATOM     19  C   UNL     1       1.210   3.177  21.047  0.00  0.00    +0.000 C 
ATOM     20  C   UNL     1       0.777   2.707  19.668  0.00  0.00    +0.000 C 
ENDBRANCH  18  20
ENDBRANCH  16  18
ENDBRANCH   7  16
BRANCH  13  21
ATOM     21  C   UNL     1       5.824   6.650  16.634  0.00  0.00    +0.000 C 
ATOM     22  O   UNL     1       6.435   7.651  16.978  0.00  0.00    +0.000 OA
BRANCH  21  23
ATOM     23  O   UNL     1       5.538   6.355  15.337  0.00  0.00    +0.000 OA
ATOM     24  C   UNL     1       6.243   5.196  14.862  0.00  0.00    +0.000 C 
ENDBRANCH  21  23
ENDBRANCH  13  21
ENDBRANCH   1  14
BRANCH   4  25
ATOM     25  C   UNL     1       1.017   9.473  20.414  0.00  0.00    +0.000 A 
ATOM     26  C   UNL     1       0.355   9.236  21.552  0.00  0.00    +0.000 A 
ATOM     27  C   UNL     1      -0.335  10.348  22.218  0.00  0.00    +0.000 A 
ATOM     28  O   UNL     1      -0.973  10.171  23.248  0.00  0.00    +0.000 OA
ATOM     29  C   UNL     1      -0.238  11.672  21.589  0.00  0.00    +0.000 A 
ATOM     30  C   UNL     1       0.463  11.788  20.453  0.00  0.00    +0.000 A 
ATOM     31  O   UNL     1       1.107  10.736  19.833  0.00  0.00    +0.000 OA
BRANCH  30  32
ATOM     32  C   UNL     1       0.577  13.091  19.796  0.00  0.00    +0.000 A 
ATOM     33  C   UNL     1       1.788  13.488  19.217  0.00  0.00    +0.000 A 
ATOM     34  C   UNL     1       1.934  14.782  18.712  0.00  0.00    +0.000 A 
ATOM     35  C   UNL     1       0.867  15.678  18.766  0.00  0.00    +0.000 A 
ATOM     36  C   UNL     1      -0.351  15.279  19.317  0.00  0.00    +0.000 A 
ATOM     37  C   UNL     1      -0.496  13.990  19.833  0.00  0.00    +0.000 A 
ENDBRANCH  30  32
ENDBRANCH   4  25
TORSDOF 8
ENDMDL
MODEL 3
REMARK VINA RESULT:      -9.6      2.197      2.526
REMARK  Name = 
REMARK  12 active torsions:
REMARK  status: ('A' for Active; 'I' for Inactive)
REMARK    1  A    between atoms: C_1  and  C_2
REMARK    2  A    between atoms: C_2  and  O_3
REMARK    3  A    between atoms: O_3  and  C_4
REMARK    4  A    between atoms: C_4  and  C_6
REMARK    5  A    between atoms: C_7  and  C_8
REMARK    6  A    between atoms: C_10  and  C_11
REMARK    7  A    between atoms: C_12  and  C_13
REMARK    8  A    between atoms: C_13  and  O_15
REMARK    9  A    between atoms: O_15  and  C_16
REMARK   10  A    between atoms: C_17  and  C_18
REMARK   11  A    between atoms: C_21  and  C_22
REMARK   12  A    between atoms: C_27  and  C_28
REMARK                            x       y       z     vdW  Elec       q    Type
REMARK                         _______ _______ _______ _____ _____    ______ ____
ROOT
ATOM      1  C   UNL     1       3.109   6.377  18.428  0.00  0.00    +0.000 A 
ATOM      2  C   UNL     1       2.862   6.244  19.797  0.00  0.00    +0.000 A 
ATOM      3  C   UNL     1       2.180   7.249  20.486  0.00  0.00    +0.000 A 
ATOM      4  C   UNL     1       1.755   8.422  19.835  0.00  0.00    +0.000 A 
ATOM      5  C   UNL     1       2.024   8.561  18.474  0.00  0.00    +0.000 A 
ATOM      6  C   UNL     1       2.696   7.557  17.781  0.00  0.00    +0.000 A 
ENDROOT
BRANCH   1  14
ATOM      7  C   UNL     1       3.493   3.899  18.305  0.00  0.00    +0.000 C 
ATOM      8  C   UNL     1       4.450   3.307  19.063  0.00  0.00    +0.000 C 
ATOM      9  C   UNL     1       4.360   1.999  19.813  0.00  0.00    +0.000 C 
ATOM     10  N   UNL     1       5.698   3.913  19.164  0.00  0.00    +0.000 N 
ATOM     11  C   UNL     1       6.160   4.895  18.304  0.00  0.00    +0.000 C 
ATOM     12  C   UNL     1       7.646   5.150  18.340  0.00  0.00    +0.000 C 
ATOM     13  C   UNL     1       5.286   5.551  17.505  0.00  0.00    +0.000 C 
ATOM     14  C   UNL     1       3.787   5.255  17.635  0.00  0.00    +0.000 C 
ATOM     15  H   UNL     1       6.392   3.438  19.737  0.00  0.00    +0.000 HD
BRANCH   7  16
ATOM     16  C   UNL     1       2.164   3.276  18.038  0.00  0.00    +0.000 C 
ATOM     17  O   UNL     1       1.905   2.537  17.102  0.00  0.00    +0.000 OA
BRANCH  16  18
ATOM     18  O   UNL     1       1.236   3.764  18.906  0.00  0.00    +0.000 OA
BRANCH  18  20
ATOM     19  C   UNL     1       1.308   3.101  21.197  0.00  0.00    +0.000 C 
ATOM     20  C   UNL     1       0.704   2.807  19.834  0.00  0.00    +0.000 C 
ENDBRANCH  18  20
ENDBRANCH  16  18
ENDBRANCH   7  16
BRANCH  13  21
ATOM     21  C   UNL     1       5.756   6.599  16.559  0.00  0.00    +0.000 C 
ATOM     22  O   UNL     1       6.343   7.617  16.895  0.00  0.00    +0.000 OA
BRANCH  21  23
ATOM     23  O   UNL     1       5.488   6.281  15.264  0.00  0.00    +0.000 OA
ATOM     24  C   UNL     1       6.298   5.199  14.778  0.00  0.00    +0.000 C 
ENDBRANCH  21  23
ENDBRANCH  13  21
ENDBRANCH   1  14
BRANCH   4  25
ATOM     25  C   UNL     1       1.019   9.480  20.552  0.00  0.00    +0.000 A 
ATOM     26  C   UNL     1       0.278   9.203  21.631  0.00  0.00    +0.000 A 
ATOM     27  C   UNL     1      -0.463  10.292  22.282  0.00  0.00    +0.000 A 
ATOM     28  O   UNL     1      -1.173  10.080  23.257  0.00  0.00    +0.000 OA
ATOM     29  C   UNL     1      -0.326  11.637  21.706  0.00  0.00    +0.000 A 
ATOM     30  C   UNL     1       0.455  11.791  20.628  0.00  0.00    +0.000 A 
ATOM     31  O   UNL     1       1.146  10.762  20.021  0.00  0.00    +0.000 OA
BRANCH  30  32
ATOM     32  C   UNL     1       0.611  13.115  20.025  0.00  0.00    +0.000 A 
ATOM     33  C   UNL     1      -0.492  13.968  19.892  0.00  0.00    +0.000 A 
ATOM     34  C   UNL     1      -0.369  15.172  19.196  0.00  0.00    +0.000 A 
ATOM     35  C   UNL     1       0.857  15.539  18.644  0.00  0.00    +0.000 A 
ATOM     36  C   UNL     1       1.967  14.706  18.796  0.00  0.00    +0.000 A 
ATOM     37  C   UNL     1       1.845  13.497  19.482  0.00  0.00    +0.000 A 
ENDBRANCH  30  32
ENDBRANCH   4  25
TORSDOF 8
ENDMDL
MODEL 4
REMARK VINA RESULT:      -9.6      0.554      1.473
REMARK  Name = 
REMARK  12 active torsions:
REMARK  status: ('A' for Active; 'I' for Inactive)
REMARK    1  A    between atoms: C_1  and  C_2
REMARK    2  A    between atoms: C_2  and  O_3
REMARK    3  A    between atoms: O_3  and  C_4
REMARK    4  A    between atoms: C_4  and  C_6
REMARK    5  A    between atoms: C_7  and  C_8
REMARK    6  A    between atoms: C_10  and  C_11
REMARK    7  A    between atoms: C_12  and  C_13
REMARK    8  A    between atoms: C_13  and  O_15
REMARK    9  A    between atoms: O_15  and  C_16
REMARK   10  A    between atoms: C_17  and  C_18
REMARK   11  A    between atoms: C_21  and  C_22
REMARK   12  A    between atoms: C_27  and  C_28
REMARK                            x       y       z     vdW  Elec       q    Type
REMARK                         _______ _______ _______ _____ _____    ______ ____
ROOT
ATOM      1  C   UNL     1       3.383   6.387  18.067  0.00  0.00    +0.000 A 
ATOM      2  C   UNL     1       3.029   7.396  17.167  0.00  0.00    +0.000 A 
ATOM      3  C   UNL     1       2.223   8.455  17.588  0.00  0.00    +0.000 A 
ATOM      4  C   UNL     1       1.725   8.519  18.903  0.00  0.00    +0.000 A 
ATOM      5  C   UNL     1       2.062   7.496  19.789  0.00  0.00    +0.000 A 
ATOM      6  C   UNL     1       2.873   6.443  19.377  0.00  0.00    +0.000 A 
ENDROOT
BRANCH   1  14
ATOM      7  C   UNL     1       3.907   3.947  18.348  0.00  0.00    +0.000 C 
ATOM      8  C   UNL     1       4.608   3.508  19.424  0.00  0.00    +0.000 C 
ATOM      9  C   UNL     1       4.352   2.272  20.253  0.00  0.00    +0.000 C 
ATOM     10  N   UNL     1       5.731   4.220  19.831  0.00  0.00    +0.000 N 
ATOM     11  C   UNL     1       6.390   5.153  19.048  0.00  0.00    +0.000 C 
ATOM     12  C   UNL     1       7.776   5.530  19.506  0.00  0.00    +0.000 C 
ATOM     13  C   UNL     1       5.777   5.658  17.951  0.00  0.00    +0.000 C 
ATOM     14  C   UNL     1       4.329   5.255  17.650  0.00  0.00    +0.000 C 
ATOM     15  H   UNL     1       6.234   3.859  20.639  0.00  0.00    +0.000 HD
BRANCH   7  16
ATOM     16  C   UNL     1       2.760   3.196  17.761  0.00  0.00    +0.000 C 
ATOM     17  O   UNL     1       2.843   2.345  16.889  0.00  0.00    +0.000 OA
BRANCH  16  18
ATOM     18  O   UNL     1       1.584   3.696  18.231  0.00  0.00    +0.000 OA
BRANCH  18  20
ATOM     19  C   UNL     1       0.936   3.420  20.510  0.00  0.00    +0.000 C 
ATOM     20  C   UNL     1       0.860   2.827  19.114  0.00  0.00    +0.000 C 
ENDBRANCH  18  20
ENDBRANCH  16  18
ENDBRANCH   7  16
BRANCH  13  21
ATOM     21  C   UNL     1       6.467   6.650  17.081  0.00  0.00    +0.000 C 
ATOM     22  O   UNL     1       6.950   6.390  15.989  0.00  0.00    +0.000 OA
BRANCH  21  23
ATOM     23  O   UNL     1       6.471   7.897  17.625  0.00  0.00    +0.000 OA
ATOM     24  C   UNL     1       7.775   8.499  17.625  0.00  0.00    +0.000 C 
ENDBRANCH  21  23
ENDBRANCH  13  21
ENDBRANCH   1  14
BRANCH   4  25
ATOM     25  C   UNL     1       0.887   9.643  19.359  0.00  0.00    +0.000 A 
ATOM     26  C   UNL     1       1.243  10.397  20.405  0.00  0.00    +0.000 A 
ATOM     27  C   UNL     1       0.350  11.480  20.837  0.00  0.00    +0.000 A 
ATOM     28  O   UNL     1       0.625  12.178  21.804  0.00  0.00    +0.000 OA
ATOM     29  C   UNL     1      -0.887  11.678  20.069  0.00  0.00    +0.000 A 
ATOM     30  C   UNL     1      -1.130  10.865  19.033  0.00  0.00    +0.000 A 
ATOM     31  O   UNL     1      -0.286   9.847  18.635  0.00  0.00    +0.000 OA
BRANCH  30  32
ATOM     32  C   UNL     1      -2.354  11.029  18.248  0.00  0.00    +0.000 A 
ATOM     33  C   UNL     1      -2.390  10.648  16.902  0.00  0.00    +0.000 A 
ATOM     34  C   UNL     1      -3.512  10.930  16.121  0.00  0.00    +0.000 A 
ATOM     35  C   UNL     1      -4.611  11.578  16.684  0.00  0.00    +0.000 A 
ATOM     36  C   UNL     1      -4.593  11.936  18.032  0.00  0.00    +0.000 A 
ATOM     37  C   UNL     1      -3.468  11.665  18.813  0.00  0.00    +0.000 A 
ENDBRANCH  30  32
ENDBRANCH   4  25
TORSDOF 8
ENDMDL
MODEL 5
REMARK VINA RESULT:      -9.3      1.782      4.363
REMARK  Name = 
REMARK  12 active torsions:
REMARK  status: ('A' for Active; 'I' for Inactive)
REMARK    1  A    between atoms: C_1  and  C_2
REMARK    2  A    between atoms: C_2  and  O_3
REMARK    3  A    between atoms: O_3  and  C_4
REMARK    4  A    between atoms: C_4  and  C_6
REMARK    5  A    between atoms: C_7  and  C_8
REMARK    6  A    between atoms: C_10  and  C_11
REMARK    7  A    between atoms: C_12  and  C_13
REMARK    8  A    between atoms: C_13  and  O_15
REMARK    9  A    between atoms: O_15  and  C_16
REMARK   10  A    between atoms: C_17  and  C_18
REMARK   11  A    between atoms: C_21  and  C_22
REMARK   12  A    between atoms: C_27  and  C_28
REMARK                            x       y       z     vdW  Elec       q    Type
REMARK                         _______ _______ _______ _____ _____    ______ ____
ROOT
ATOM      1  C   UNL     1       2.829   6.552  19.222  0.00  0.00    +0.000 A 
ATOM      2  C   UNL     1       2.858   7.163  17.965  0.00  0.00    +0.000 A 
ATOM      3  C   UNL     1       2.258   8.410  17.781  0.00  0.00    +0.000 A 
ATOM      4  C   UNL     1       1.590   9.063  18.833  0.00  0.00    +0.000 A 
ATOM      5  C   UNL     1       1.543   8.438  20.079  0.00  0.00    +0.000 A 
ATOM      6  C   UNL     1       2.149   7.199  20.269  0.00  0.00    +0.000 A 
ENDROOT
BRANCH   1  14
ATOM      7  C   UNL     1       4.691   5.054  18.450  0.00  0.00    +0.000 C 
ATOM      8  C   UNL     1       4.522   4.230  17.385  0.00  0.00    +0.000 C 
ATOM      9  C   UNL     1       5.503   3.942  16.273  0.00  0.00    +0.000 C 
ATOM     10  N   UNL     1       3.339   3.508  17.274  0.00  0.00    +0.000 N 
ATOM     11  C   UNL     1       2.450   3.302  18.316  0.00  0.00    +0.000 C 
ATOM     12  C   UNL     1       1.442   2.200  18.108  0.00  0.00    +0.000 C 
ATOM     13  C   UNL     1       2.530   4.073  19.426  0.00  0.00    +0.000 C 
ATOM     14  C   UNL     1       3.547   5.220  19.469  0.00  0.00    +0.000 C 
ATOM     15  H   UNL     1       3.250   2.898  16.465  0.00  0.00    +0.000 HD
BRANCH   7  16
ATOM     16  C   UNL     1       5.964   5.783  18.723  0.00  0.00    +0.000 C 
ATOM     17  O   UNL     1       6.707   5.578  19.670  0.00  0.00    +0.000 OA
BRANCH  16  18
ATOM     18  O   UNL     1       6.110   6.813  17.846  0.00  0.00    +0.000 OA
BRANCH  18  20
ATOM     19  C   UNL     1       7.902   8.383  17.723  0.00  0.00    +0.000 C 
ATOM     20  C   UNL     1       7.436   6.992  17.328  0.00  0.00    +0.000 C 
ENDBRANCH  18  20
ENDBRANCH  16  18
ENDBRANCH   7  16
BRANCH  13  21
ATOM     21  C   UNL     1       1.599   3.865  20.568  0.00  0.00    +0.000 C 
ATOM     22  O   UNL     1       0.384   3.968  20.494  0.00  0.00    +0.000 OA
BRANCH  21  23
ATOM     23  O   UNL     1       2.253   3.509  21.707  0.00  0.00    +0.000 OA
ATOM     24  C   UNL     1       2.890   2.225  21.605  0.00  0.00    +0.000 C 
ENDBRANCH  21  23
ENDBRANCH  13  21
ENDBRANCH   1  14
BRANCH   4  25
ATOM     25  C   UNL     1       0.969  10.388  18.649  0.00  0.00    +0.000 A 
ATOM     26  C   UNL     1       1.689  11.512  18.731  0.00  0.00    +0.000 A 
ATOM     27  C   UNL     1       1.009  12.805  18.577  0.00  0.00    +0.000 A 
ATOM     28  O   UNL     1       1.625  13.858  18.669  0.00  0.00    +0.000 OA
ATOM     29  C   UNL     1      -0.438  12.777  18.322  0.00  0.00    +0.000 A 
ATOM     30  C   UNL     1      -1.049  11.587  18.252  0.00  0.00    +0.000 A 
ATOM     31  O   UNL     1      -0.402  10.377  18.400  0.00  0.00    +0.000 OA
BRANCH  30  32
ATOM     32  C   UNL     1      -2.490  11.521  18.005  0.00  0.00    +0.000 A 
ATOM     33  C   UNL     1      -2.977  11.136  16.750  0.00  0.00    +0.000 A 
ATOM     34  C   UNL     1      -4.345  11.204  16.476  0.00  0.00    +0.000 A 
ATOM     35  C   UNL     1      -5.233  11.640  17.457  0.00  0.00    +0.000 A 
ATOM     36  C   UNL     1      -4.758  12.000  18.718  0.00  0.00    +0.000 A 
ATOM     37  C   UNL     1      -3.390  11.943  18.992  0.00  0.00    +0.000 A 
ENDBRANCH  30  32
ENDBRANCH   4  25
TORSDOF 8
ENDMDL
MODEL 6
REMARK VINA RESULT:      -9.2      2.303      2.775
REMARK  Name = 
REMARK  12 active torsions:
REMARK  status: ('A' for Active; 'I' for Inactive)
REMARK    1  A    between atoms: C_1  and  C_2
REMARK    2  A    between atoms: C_2  and  O_3
REMARK    3  A    between atoms: O_3  and  C_4
REMARK    4  A    between atoms: C_4  and  C_6
REMARK    5  A    between atoms: C_7  and  C_8
REMARK    6  A    between atoms: C_10  and  C_11
REMARK    7  A    between atoms: C_12  and  C_13
REMARK    8  A    between atoms: C_13  and  O_15
REMARK    9  A    between atoms: O_15  and  C_16
REMARK   10  A    between atoms: C_17  and  C_18
REMARK   11  A    between atoms: C_21  and  C_22
REMARK   12  A    between atoms: C_27  and  C_28
REMARK                            x       y       z     vdW  Elec       q    Type
REMARK                         _______ _______ _______ _____ _____    ______ ____
ROOT
ATOM      1  C   UNL     1       3.100   6.295  18.394  0.00  0.00    +0.000 A 
ATOM      2  C   UNL     1       2.676   7.443  17.719  0.00  0.00    +0.000 A 
ATOM      3  C   UNL     1       2.002   8.451  18.411  0.00  0.00    +0.000 A 
ATOM      4  C   UNL     1       1.708   8.327  19.781  0.00  0.00    +0.000 A 
ATOM      5  C   UNL     1       2.113   7.169  20.445  0.00  0.00    +0.000 A 
ATOM      6  C   UNL     1       2.793   6.165  19.761  0.00  0.00    +0.000 A 
ENDROOT
BRANCH   1  14
ATOM      7  C   UNL     1       3.593   3.835  18.296  0.00  0.00    +0.000 C 
ATOM      8  C   UNL     1       4.480   3.270  19.154  0.00  0.00    +0.000 C 
ATOM      9  C   UNL     1       4.356   1.950  19.877  0.00  0.00    +0.000 C 
ATOM     10  N   UNL     1       5.683   3.921  19.402  0.00  0.00    +0.000 N 
ATOM     11  C   UNL     1       6.202   4.932  18.610  0.00  0.00    +0.000 C 
ATOM     12  C   UNL     1       7.663   5.243  18.818  0.00  0.00    +0.000 C 
ATOM     13  C   UNL     1       5.400   5.564  17.720  0.00  0.00    +0.000 C 
ATOM     14  C   UNL     1       3.909   5.209  17.675  0.00  0.00    +0.000 C 
ATOM     15  H   UNL     1       6.325   3.466  20.047  0.00  0.00    +0.000 HD
BRANCH   7  16
ATOM     16  C   UNL     1       2.329   3.165  17.872  0.00  0.00    +0.000 C 
ATOM     17  O   UNL     1       2.210   2.425  16.909  0.00  0.00    +0.000 OA
BRANCH  16  18
ATOM     18  O   UNL     1       1.289   3.610  18.628  0.00  0.00    +0.000 OA
BRANCH  18  20
ATOM     19  C   UNL     1       1.128   3.126  20.959  0.00  0.00    +0.000 C 
ATOM     20  C   UNL     1       0.759   2.657  19.561  0.00  0.00    +0.000 C 
ENDBRANCH  18  20
ENDBRANCH  16  18
ENDBRANCH   7  16
BRANCH  13  21
ATOM     21  C   UNL     1       5.933   6.642  16.844  0.00  0.00    +0.000 C 
ATOM     22  O   UNL     1       6.077   6.538  15.635  0.00  0.00    +0.000 OA
BRANCH  21  23
ATOM     23  O   UNL     1       6.214   7.778  17.538  0.00  0.00    +0.000 OA
ATOM     24  C   UNL     1       7.588   8.181  17.411  0.00  0.00    +0.000 C 
ENDBRANCH  21  23
ENDBRANCH  13  21
ENDBRANCH   1  14
BRANCH   4  25
ATOM     25  C   UNL     1       1.011   9.395  20.522  0.00  0.00    +0.000 A 
ATOM     26  C   UNL     1       0.279   9.125  21.608  0.00  0.00    +0.000 A 
ATOM     27  C   UNL     1      -0.423  10.224  22.284  0.00  0.00    +0.000 A 
ATOM     28  O   UNL     1      -1.124  10.019  23.266  0.00  0.00    +0.000 OA
ATOM     29  C   UNL     1      -0.257  11.573  21.723  0.00  0.00    +0.000 A 
ATOM     30  C   UNL     1       0.512  11.720  20.636  0.00  0.00    +0.000 A 
ATOM     31  O   UNL     1       1.166  10.680  20.006  0.00  0.00    +0.000 OA
BRANCH  30  32
ATOM     32  C   UNL     1       0.696  13.047  20.047  0.00  0.00    +0.000 A 
ATOM     33  C   UNL     1      -0.307  14.017  20.160  0.00  0.00    +0.000 A 
ATOM     34  C   UNL     1      -0.188  15.233  19.484  0.00  0.00    +0.000 A 
ATOM     35  C   UNL     1       0.940  15.493  18.708  0.00  0.00    +0.000 A 
ATOM     36  C   UNL     1       1.956  14.542  18.613  0.00  0.00    +0.000 A 
ATOM     37  C   UNL     1       1.834  13.321  19.278  0.00  0.00    +0.000 A 
ENDBRANCH  30  32
ENDBRANCH   4  25
TORSDOF 8
ENDMDL
MODEL 7
REMARK VINA RESULT:      -9.2      2.110      2.681
REMARK  Name = 
REMARK  12 active torsions:
REMARK  status: ('A' for Active; 'I' for Inactive)
REMARK    1  A    between atoms: C_1  and  C_2
REMARK    2  A    between atoms: C_2  and  O_3
REMARK    3  A    between atoms: O_3  and  C_4
REMARK    4  A    between atoms: C_4  and  C_6
REMARK    5  A    between atoms: C_7  and  C_8
REMARK    6  A    between atoms: C_10  and  C_11
REMARK    7  A    between atoms: C_12  and  C_13
REMARK    8  A    between atoms: C_13  and  O_15
REMARK    9  A    between atoms: O_15  and  C_16
REMARK   10  A    between atoms: C_17  and  C_18
REMARK   11  A    between atoms: C_21  and  C_22
REMARK   12  A    between atoms: C_27  and  C_28
REMARK                            x       y       z     vdW  Elec       q    Type
REMARK                         _______ _______ _______ _____ _____    ______ ____
ROOT
ATOM      1  C   UNL     1       3.192   6.314  18.387  0.00  0.00    +0.000 A 
ATOM      2  C   UNL     1       2.916   6.186  19.751  0.00  0.00    +0.000 A 
ATOM      3  C   UNL     1       2.215   7.191  20.419  0.00  0.00    +0.000 A 
ATOM      4  C   UNL     1       1.799   8.359  19.754  0.00  0.00    +0.000 A 
ATOM      5  C   UNL     1       2.097   8.492  18.399  0.00  0.00    +0.000 A 
ATOM      6  C   UNL     1       2.788   7.488  17.726  0.00  0.00    +0.000 A 
ENDROOT
BRANCH   1  14
ATOM      7  C   UNL     1       3.529   3.830  18.240  0.00  0.00    +0.000 C 
ATOM      8  C   UNL     1       4.427   3.203  19.042  0.00  0.00    +0.000 C 
ATOM      9  C   UNL     1       4.264   1.884  19.760  0.00  0.00    +0.000 C 
ATOM     10  N   UNL     1       5.679   3.778  19.228  0.00  0.00    +0.000 N 
ATOM     11  C   UNL     1       6.213   4.765  18.416  0.00  0.00    +0.000 C 
ATOM     12  C   UNL     1       7.699   4.986  18.545  0.00  0.00    +0.000 C 
ATOM     13  C   UNL     1       5.402   5.455  17.579  0.00  0.00    +0.000 C 
ATOM     14  C   UNL     1       3.892   5.190  17.614  0.00  0.00    +0.000 C 
ATOM     15  H   UNL     1       6.327   3.278  19.832  0.00  0.00    +0.000 HD
BRANCH   7  16
ATOM     16  C   UNL     1       2.206   3.241  17.883  0.00  0.00    +0.000 C 
ATOM     17  O   UNL     1       1.985   2.532  16.914  0.00  0.00    +0.000 OA
BRANCH  16  18
ATOM     18  O   UNL     1       1.240   3.727  18.710  0.00  0.00    +0.000 OA
BRANCH  18  20
ATOM     19  C   UNL     1       1.168   3.198  21.036  0.00  0.00    +0.000 C 
ATOM     20  C   UNL     1       0.708   2.780  19.649  0.00  0.00    +0.000 C 
ENDBRANCH  18  20
ENDBRANCH  16  18
ENDBRANCH   7  16
BRANCH  13  21
ATOM     21  C   UNL     1       5.950   6.509  16.682  0.00  0.00    +0.000 C 
ATOM     22  O   UNL     1       6.132   6.366  15.483  0.00  0.00    +0.000 OA
BRANCH  21  23
ATOM     23  O   UNL     1       6.196   7.671  17.346  0.00  0.00    +0.000 OA
ATOM     24  C   UNL     1       7.592   8.011  17.371  0.00  0.00    +0.000 C 
ENDBRANCH  21  23
ENDBRANCH  13  21
ENDBRANCH   1  14
BRANCH   4  25
ATOM     25  C   UNL     1       1.043   9.417  20.450  0.00  0.00    +0.000 A 
ATOM     26  C   UNL     1       0.330   9.154  21.551  0.00  0.00    +0.000 A 
ATOM     27  C   UNL     1      -0.433  10.240  22.180  0.00  0.00    +0.000 A 
ATOM     28  O   UNL     1      -1.118  10.039  23.174  0.00  0.00    +0.000 OA
ATOM     29  C   UNL     1      -0.348  11.569  21.557  0.00  0.00    +0.000 A 
ATOM     30  C   UNL     1       0.408  11.711  20.460  0.00  0.00    +0.000 A 
ATOM     31  O   UNL     1       1.120  10.684  19.875  0.00  0.00    +0.000 OA
BRANCH  30  32
ATOM     32  C   UNL     1       0.511  13.019  19.811  0.00  0.00    +0.000 A 
ATOM     33  C   UNL     1       1.757  13.512  19.407  0.00  0.00    +0.000 A 
ATOM     34  C   UNL     1       1.871  14.813  18.912  0.00  0.00    +0.000 A 
ATOM     35  C   UNL     1       0.740  15.620  18.802  0.00  0.00    +0.000 A 
ATOM     36  C   UNL     1      -0.509  15.125  19.178  0.00  0.00    +0.000 A 
ATOM     37  C   UNL     1      -0.624  13.829  19.683  0.00  0.00    +0.000 A 
ENDBRANCH  30  32
ENDBRANCH   4  25
TORSDOF 8
ENDMDL
MODEL 8
REMARK VINA RESULT:      -8.9      1.788      4.315
REMARK  Name = 
REMARK  12 active torsions:
REMARK  status: ('A' for Active; 'I' for Inactive)
REMARK    1  A    between atoms: C_1  and  C_2
REMARK    2  A    between atoms: C_2  and  O_3
REMARK    3  A    between atoms: O_3  and  C_4
REMARK    4  A    between atoms: C_4  and  C_6
REMARK    5  A    between atoms: C_7  and  C_8
REMARK    6  A    between atoms: C_10  and  C_11
REMARK    7  A    between atoms: C_12  and  C_13
REMARK    8  A    between atoms: C_13  and  O_15
REMARK    9  A    between atoms: O_15  and  C_16
REMARK   10  A    between atoms: C_17  and  C_18
REMARK   11  A    between atoms: C_21  and  C_22
REMARK   12  A    between atoms: C_27  and  C_28
REMARK                            x       y       z     vdW  Elec       q    Type
REMARK                         _______ _______ _______ _____ _____    ______ ____
ROOT
ATOM      1  C   UNL     1       2.690   6.924  19.048  0.00  0.00    +0.000 A 
ATOM      2  C   UNL     1       2.597   7.549  17.802  0.00  0.00    +0.000 A 
ATOM      3  C   UNL     1       1.939   8.775  17.683  0.00  0.00    +0.000 A 
ATOM      4  C   UNL     1       1.334   9.392  18.793  0.00  0.00    +0.000 A 
ATOM      5  C   UNL     1       1.409   8.752  20.030  0.00  0.00    +0.000 A 
ATOM      6  C   UNL     1       2.071   7.533  20.155  0.00  0.00    +0.000 A 
ENDROOT
BRANCH   1  14
ATOM      7  C   UNL     1       4.489   5.471  18.072  0.00  0.00    +0.000 C 
ATOM      8  C   UNL     1       4.219   4.629  17.042  0.00  0.00    +0.000 C 
ATOM      9  C   UNL     1       5.068   4.355  15.823  0.00  0.00    +0.000 C 
ATOM     10  N   UNL     1       3.054   3.871  17.082  0.00  0.00    +0.000 N 
ATOM     11  C   UNL     1       2.303   3.653  18.225  0.00  0.00    +0.000 C 
ATOM     12  C   UNL     1       1.311   2.520  18.150  0.00  0.00    +0.000 C 
ATOM     13  C   UNL     1       2.492   4.440  19.310  0.00  0.00    +0.000 C 
ATOM     14  C   UNL     1       3.471   5.616  19.219  0.00  0.00    +0.000 C 
ATOM     15  H   UNL     1       2.886   3.248  16.295  0.00  0.00    +0.000 HD
BRANCH   7  16
ATOM     16  C   UNL     1       5.763   6.239  18.183  0.00  0.00    +0.000 C 
ATOM     17  O   UNL     1       6.138   7.104  17.407  0.00  0.00    +0.000 OA
BRANCH  16  18
ATOM     18  O   UNL     1       6.524   5.738  19.194  0.00  0.00    +0.000 OA
BRANCH  18  20
ATOM     19  C   UNL     1       8.038   4.435  17.890  0.00  0.00    +0.000 C 
ATOM     20  C   UNL     1       7.917   5.574  18.888  0.00  0.00    +0.000 C 
ENDBRANCH  18  20
ENDBRANCH  16  18
ENDBRANCH   7  16
BRANCH  13  21
ATOM     21  C   UNL     1       1.712   4.219  20.558  0.00  0.00    +0.000 C 
ATOM     22  O   UNL     1       0.551   4.565  20.715  0.00  0.00    +0.000 OA
BRANCH  21  23
ATOM     23  O   UNL     1       2.430   3.553  21.503  0.00  0.00    +0.000 OA
ATOM     24  C   UNL     1       1.763   2.371  21.976  0.00  0.00    +0.000 C 
ENDBRANCH  21  23
ENDBRANCH  13  21
ENDBRANCH   1  14
BRANCH   4  25
ATOM     25  C   UNL     1       0.653  10.694  18.678  0.00  0.00    +0.000 A 
ATOM     26  C   UNL     1       1.330  11.844  18.772  0.00  0.00    +0.000 A 
ATOM     27  C   UNL     1       0.592  13.112  18.687  0.00  0.00    +0.000 A 
ATOM     28  O   UNL     1       1.168  14.187  18.793  0.00  0.00    +0.000 OA
ATOM     29  C   UNL     1      -0.861  13.032  18.483  0.00  0.00    +0.000 A 
ATOM     30  C   UNL     1      -1.425  11.820  18.394  0.00  0.00    +0.000 A 
ATOM     31  O   UNL     1      -0.725  10.634  18.478  0.00  0.00    +0.000 OA
BRANCH  30  32
ATOM     32  C   UNL     1      -2.871  11.702  18.197  0.00  0.00    +0.000 A 
ATOM     33  C   UNL     1      -3.386  11.296  16.960  0.00  0.00    +0.000 A 
ATOM     34  C   UNL     1      -4.764  11.314  16.732  0.00  0.00    +0.000 A 
ATOM     35  C   UNL     1      -5.633  11.722  17.743  0.00  0.00    +0.000 A 
ATOM     36  C   UNL     1      -5.128  12.103  18.986  0.00  0.00    +0.000 A 
ATOM     37  C   UNL     1      -3.751  12.096  19.213  0.00  0.00    +0.000 A 
ENDBRANCH  30  32
ENDBRANCH   4  25
TORSDOF 8
ENDMDL
MODEL 9
REMARK VINA RESULT:      -8.9      2.774      5.297
REMARK  Name = 
REMARK  12 active torsions:
REMARK  status: ('A' for Active; 'I' for Inactive)
REMARK    1  A    between atoms: C_1  and  C_2
REMARK    2  A    between atoms: C_2  and  O_3
REMARK    3  A    between atoms: O_3  and  C_4
REMARK    4  A    between atoms: C_4  and  C_6
REMARK    5  A    between atoms: C_7  and  C_8
REMARK    6  A    between atoms: C_10  and  C_11
REMARK    7  A    between atoms: C_12  and  C_13
REMARK    8  A    between atoms: C_13  and  O_15
REMARK    9  A    between atoms: O_15  and  C_16
REMARK   10  A    between atoms: C_17  and  C_18
REMARK   11  A    between atoms: C_21  and  C_22
REMARK   12  A    between atoms: C_27  and  C_28
REMARK                            x       y       z     vdW  Elec       q    Type
REMARK                         _______ _______ _______ _____ _____    ______ ____
ROOT
ATOM      1  C   UNL     1       2.841   6.717  19.270  0.00  0.00    +0.000 A 
ATOM      2  C   UNL     1       2.191   7.333  20.343  0.00  0.00    +0.000 A 
ATOM      3  C   UNL     1       1.501   8.531  20.147  0.00  0.00    +0.000 A 
ATOM      4  C   UNL     1       1.467   9.158  18.888  0.00  0.00    +0.000 A 
ATOM      5  C   UNL     1       2.137   8.551  17.826  0.00  0.00    +0.000 A 
ATOM      6  C   UNL     1       2.819   7.352  18.015  0.00  0.00    +0.000 A 
ENDROOT
BRANCH   1  14
ATOM      7  C   UNL     1       4.652   5.220  18.386  0.00  0.00    +0.000 C 
ATOM      8  C   UNL     1       4.439   4.444  17.293  0.00  0.00    +0.000 C 
ATOM      9  C   UNL     1       5.383   4.184  16.143  0.00  0.00    +0.000 C 
ATOM     10  N   UNL     1       3.240   3.747  17.187  0.00  0.00    +0.000 N 
ATOM     11  C   UNL     1       2.376   3.515  18.244  0.00  0.00    +0.000 C 
ATOM     12  C   UNL     1       1.342   2.440  18.020  0.00  0.00    +0.000 C 
ATOM     13  C   UNL     1       2.501   4.238  19.382  0.00  0.00    +0.000 C 
ATOM     14  C   UNL     1       3.539   5.364  19.443  0.00  0.00    +0.000 C 
ATOM     15  H   UNL     1       3.117   3.172  16.356  0.00  0.00    +0.000 HD
BRANCH   7  16
ATOM     16  C   UNL     1       5.945   5.914  18.652  0.00  0.00    +0.000 C 
ATOM     17  O   UNL     1       6.676   5.706  19.608  0.00  0.00    +0.000 OA
BRANCH  16  18
ATOM     18  O   UNL     1       6.128   6.921  17.755  0.00  0.00    +0.000 OA
BRANCH  18  20
ATOM     19  C   UNL     1       7.914   8.502  17.715  0.00  0.00    +0.000 C 
ATOM     20  C   UNL     1       7.480   7.104  17.309  0.00  0.00    +0.000 C 
ENDBRANCH  18  20
ENDBRANCH  16  18
ENDBRANCH   7  16
BRANCH  13  21
ATOM     21  C   UNL     1       1.598   3.999  20.541  0.00  0.00    +0.000 C 
ATOM     22  O   UNL     1       0.391   4.190  20.525  0.00  0.00    +0.000 OA
BRANCH  21  23
ATOM     23  O   UNL     1       2.264   3.506  21.620  0.00  0.00    +0.000 OA
ATOM     24  C   UNL     1       1.876   2.162  21.947  0.00  0.00    +0.000 C 
ENDBRANCH  21  23
ENDBRANCH  13  21
ENDBRANCH   1  14
BRANCH   4  25
ATOM     25  C   UNL     1       0.726  10.415  18.669  0.00  0.00    +0.000 A 
ATOM     26  C   UNL     1      -0.590  10.414  18.434  0.00  0.00    +0.000 A 
ATOM     27  C   UNL     1      -1.269  11.693  18.187  0.00  0.00    +0.000 A 
ATOM     28  O   UNL     1      -2.468  11.737  17.943  0.00  0.00    +0.000 OA
ATOM     29  C   UNL     1      -0.446  12.910  18.232  0.00  0.00    +0.000 A 
ATOM     30  C   UNL     1       0.863  12.784  18.487  0.00  0.00    +0.000 A 
ATOM     31  O   UNL     1       1.493  11.577  18.716  0.00  0.00    +0.000 OA
BRANCH  30  32
ATOM     32  C   UNL     1       1.714  13.974  18.534  0.00  0.00    +0.000 A 
ATOM     33  C   UNL     1       1.173  15.219  18.876  0.00  0.00    +0.000 A 
ATOM     34  C   UNL     1       1.955  16.373  18.789  0.00  0.00    +0.000 A 
ATOM     35  C   UNL     1       3.284  16.287  18.378  0.00  0.00    +0.000 A 
ATOM     36  C   UNL     1       3.837  15.046  18.062  0.00  0.00    +0.000 A 
ATOM     37  C   UNL     1       3.055  13.892  18.137  0.00  0.00    +0.000 A 
ENDBRANCH  30  32
ENDBRANCH   4  25
TORSDOF 8
ENDMDL
