MODEL 1
REMARK VINA RESULT:      -7.1      0.000      0.000
REMARK  Name = 
REMARK  7 active torsions:
REMARK  status: ('A' for Active; 'I' for Inactive)
REMARK    1  A    between atoms: C_1  and  N_2
REMARK    2  A    between atoms: N_2  and  C_3
REMARK    3  A    between atoms: N_2  and  C_4
REMARK    4  A    between atoms: C_4  and  C_5
REMARK    5  A    between atoms: C_5  and  S_6
REMARK    6  A    between atoms: S_6  and  C_7
REMARK    7  A    between atoms: C_16  and  C_17
REMARK                            x       y       z     vdW  Elec       q    Type
REMARK                         _______ _______ _______ _____ _____    ______ ____
ROOT
ATOM      1  C   UNL     1       4.123   5.472  18.600  0.00  0.00    +0.000 A 
ATOM      2  N   UNL     1       3.349   6.034  19.569  0.00  0.00    +0.000 NA
ATOM      3  C   UNL     1       2.698   7.165  19.313  0.00  0.00    +0.000 A 
ATOM      4  C   UNL     1       1.828   7.661  20.274  0.00  0.00    +0.000 A 
ATOM      5  C   UNL     1       1.081   8.815  20.052  0.00  0.00    +0.000 A 
ATOM      6  C   UNL     1       1.211   9.490  18.843  0.00  0.00    +0.000 A 
ATOM      7  C   UNL     1       2.084   9.006  17.867  0.00  0.00    +0.000 A 
ATOM      8  C   UNL     1       2.831   7.833  18.089  0.00  0.00    +0.000 A 
ATOM      9  C   UNL     1       3.703   7.276  17.132  0.00  0.00    +0.000 A 
ATOM     10  C   UNL     1       4.389   6.063  17.358  0.00  0.00    +0.000 A 
ENDROOT
BRANCH  10  11
ATOM     11  C   UNL     1       5.252   5.481  16.299  0.00  0.00    +0.000 A 
ATOM     12  C   UNL     1       4.820   4.531  15.370  0.00  0.00    +0.000 A 
ATOM     13  C   UNL     1       5.681   4.083  14.369  0.00  0.00    +0.000 A 
ATOM     14  C   UNL     1       6.986   4.542  14.346  0.00  0.00    +0.000 A 
ATOM     15  C   UNL     1       7.370   5.440  15.325  0.00  0.00    +0.000 A 
ATOM     16  N   UNL     1       6.541   5.918  16.285  0.00  0.00    +0.000 NA
ENDBRANCH  10  11
BRANCH   1  17
ATOM     17  S   UNL     1       4.569   3.799  19.044  0.00  0.00    +0.000 S 
BRANCH  17  18
ATOM     18  C   UNL     1       3.028   3.039  18.461  0.00  0.00    +0.000 C 
BRANCH  18  19
ATOM     19  C   UNL     1       2.527   1.994  19.450  0.00  0.00    +0.000 C 
BRANCH  19  21
ATOM     20  C   UNL     1       2.125   2.810  21.663  0.00  0.00    +0.000 C 
ATOM     21  N   UNL     1       1.495   2.501  20.379  0.00  0.00    +0.000 NA
ATOM     22  C   UNL     1       0.786   3.671  19.858  0.00  0.00    +0.000 C 
ENDBRANCH  19  21
ENDBRANCH  18  19
ENDBRANCH  17  18
ENDBRANCH   1  17
TORSDOF 5
ENDMDL
MODEL 2
REMARK VINA RESULT:      -6.9      0.583      1.014
REMARK  Name = 
REMARK  7 active torsions:
REMARK  status: ('A' for Active; 'I' for Inactive)
REMARK    1  A    between atoms: C_1  and  N_2
REMARK    2  A    between atoms: N_2  and  C_3
REMARK    3  A    between atoms: N_2  and  C_4
REMARK    4  A    between atoms: C_4  and  C_5
REMARK    5  A    between atoms: C_5  and  S_6
REMARK    6  A    between atoms: S_6  and  C_7
REMARK    7  A    between atoms: C_16  and  C_17
REMARK                            x       y       z     vdW  Elec       q    Type
REMARK                         _______ _______ _______ _____ _____    ______ ____
ROOT
ATOM      1  C   UNL     1       4.113   5.474  18.686  0.00  0.00    +0.000 A 
ATOM      2  N   UNL     1       3.311   6.028  19.637  0.00  0.00    +0.000 NA
ATOM      3  C   UNL     1       2.671   7.163  19.374  0.00  0.00    +0.000 A 
ATOM      4  C   UNL     1       1.774   7.651  20.313  0.00  0.00    +0.000 A 
ATOM      5  C   UNL     1       1.036   8.809  20.081  0.00  0.00    +0.000 A 
ATOM      6  C   UNL     1       1.204   9.497  18.884  0.00  0.00    +0.000 A 
ATOM      7  C   UNL     1       2.106   9.021  17.931  0.00  0.00    +0.000 A 
ATOM      8  C   UNL     1       2.843   7.843  18.162  0.00  0.00    +0.000 A 
ATOM      9  C   UNL     1       3.743   7.295  17.226  0.00  0.00    +0.000 A 
ATOM     10  C   UNL     1       4.418   6.078  17.459  0.00  0.00    +0.000 A 
ENDROOT
BRANCH  10  11
ATOM     11  C   UNL     1       5.312   5.505  16.421  0.00  0.00    +0.000 A 
ATOM     12  C   UNL     1       6.694   5.708  16.378  0.00  0.00    +0.000 A 
ATOM     13  C   UNL     1       7.468   5.080  15.404  0.00  0.00    +0.000 A 
ATOM     14  C   UNL     1       6.843   4.306  14.441  0.00  0.00    +0.000 A 
ATOM     15  C   UNL     1       5.467   4.189  14.504  0.00  0.00    +0.000 A 
ATOM     16  N   UNL     1       4.699   4.758  15.463  0.00  0.00    +0.000 NA
ENDBRANCH  10  11
BRANCH   1  17
ATOM     17  S   UNL     1       4.542   3.795  19.125  0.00  0.00    +0.000 S 
BRANCH  17  18
ATOM     18  C   UNL     1       3.010   3.048  18.503  0.00  0.00    +0.000 C 
BRANCH  18  19
ATOM     19  C   UNL     1       2.488   1.991  19.468  0.00  0.00    +0.000 C 
BRANCH  19  21
ATOM     20  C   UNL     1       2.035   2.734  21.697  0.00  0.00    +0.000 C 
ATOM     21  N   UNL     1       1.439   2.488  20.383  0.00  0.00    +0.000 NA
ATOM     22  C   UNL     1       0.773   3.693  19.884  0.00  0.00    +0.000 C 
ENDBRANCH  19  21
ENDBRANCH  18  19
ENDBRANCH  17  18
ENDBRANCH   1  17
TORSDOF 5
ENDMDL
MODEL 3
REMARK VINA RESULT:      -6.8      1.516      5.308
REMARK  Name = 
REMARK  7 active torsions:
REMARK  status: ('A' for Active; 'I' for Inactive)
REMARK    1  A    between atoms: C_1  and  N_2
REMARK    2  A    between atoms: N_2  and  C_3
REMARK    3  A    between atoms: N_2  and  C_4
REMARK    4  A    between atoms: C_4  and  C_5
REMARK    5  A    between atoms: C_5  and  S_6
REMARK    6  A    between atoms: S_6  and  C_7
REMARK    7  A    between atoms: C_16  and  C_17
REMARK                            x       y       z     vdW  Elec       q    Type
REMARK                         _______ _______ _______ _____ _____    ______ ____
ROOT
ATOM      1  C   UNL     1       2.759   5.292  17.771  0.00  0.00    +0.000 A 
ATOM      2  N   UNL     1       3.497   4.368  17.097  0.00  0.00    +0.000 NA
ATOM      3  C   UNL     1       4.706   4.695  16.651  0.00  0.00    +0.000 A 
ATOM      4  C   UNL     1       5.486   3.708  16.066  0.00  0.00    +0.000 A 
ATOM      5  C   UNL     1       6.778   3.972  15.619  0.00  0.00    +0.000 A 
ATOM      6  C   UNL     1       7.300   5.254  15.756  0.00  0.00    +0.000 A 
ATOM      7  C   UNL     1       6.527   6.259  16.339  0.00  0.00    +0.000 A 
ATOM      8  C   UNL     1       5.224   5.988  16.801  0.00  0.00    +0.000 A 
ATOM      9  C   UNL     1       4.406   6.950  17.427  0.00  0.00    +0.000 A 
ATOM     10  C   UNL     1       3.130   6.633  17.939  0.00  0.00    +0.000 A 
ENDROOT
BRANCH  10  11
ATOM     11  C   UNL     1       2.327   7.663  18.645  0.00  0.00    +0.000 A 
ATOM     12  C   UNL     1       1.789   8.796  18.029  0.00  0.00    +0.000 A 
ATOM     13  C   UNL     1       0.993   9.681  18.754  0.00  0.00    +0.000 A 
ATOM     14  C   UNL     1       0.795   9.458  20.105  0.00  0.00    +0.000 A 
ATOM     15  C   UNL     1       1.399   8.350  20.669  0.00  0.00    +0.000 A 
ATOM     16  N   UNL     1       2.145   7.456  19.977  0.00  0.00    +0.000 NA
ENDBRANCH  10  11
BRANCH   1  17
ATOM     17  S   UNL     1       1.371   4.514  18.587  0.00  0.00    +0.000 S 
BRANCH  17  18
ATOM     18  C   UNL     1       1.806   2.819  18.108  0.00  0.00    +0.000 C 
BRANCH  18  19
ATOM     19  C   UNL     1       2.185   1.988  19.328  0.00  0.00    +0.000 C 
BRANCH  19  21
ATOM     20  C   UNL     1       2.571   2.551  21.621  0.00  0.00    +0.000 C 
ATOM     21  N   UNL     1       3.096   2.686  20.261  0.00  0.00    +0.000 NA
ATOM     22  C   UNL     1       4.472   2.195  20.188  0.00  0.00    +0.000 C 
ENDBRANCH  19  21
ENDBRANCH  18  19
ENDBRANCH  17  18
ENDBRANCH   1  17
TORSDOF 5
ENDMDL
MODEL 4
REMARK VINA RESULT:      -6.7      1.617      5.324
REMARK  Name = 
REMARK  7 active torsions:
REMARK  status: ('A' for Active; 'I' for Inactive)
REMARK    1  A    between atoms: C_1  and  N_2
REMARK    2  A    between atoms: N_2  and  C_3
REMARK    3  A    between atoms: N_2  and  C_4
REMARK    4  A    between atoms: C_4  and  C_5
REMARK    5  A    between atoms: C_5  and  S_6
REMARK    6  A    between atoms: S_6  and  C_7
REMARK    7  A    between atoms: C_16  and  C_17
REMARK                            x       y       z     vdW  Elec       q    Type
REMARK                         _______ _______ _______ _____ _____    ______ ____
ROOT
ATOM      1  C   UNL     1       2.753   5.231  17.777  0.00  0.00    +0.000 A 
ATOM      2  N   UNL     1       3.500   4.356  17.049  0.00  0.00    +0.000 NA
ATOM      3  C   UNL     1       4.721   4.706  16.656  0.00  0.00    +0.000 A 
ATOM      4  C   UNL     1       5.507   3.760  16.013  0.00  0.00    +0.000 A 
ATOM      5  C   UNL     1       6.811   4.046  15.616  0.00  0.00    +0.000 A 
ATOM      6  C   UNL     1       7.338   5.309  15.865  0.00  0.00    +0.000 A 
ATOM      7  C   UNL     1       6.559   6.273  16.508  0.00  0.00    +0.000 A 
ATOM      8  C   UNL     1       5.244   5.978  16.918  0.00  0.00    +0.000 A 
ATOM      9  C   UNL     1       4.420   6.896  17.600  0.00  0.00    +0.000 A 
ATOM     10  C   UNL     1       3.130   6.551  18.056  0.00  0.00    +0.000 A 
ENDROOT
BRANCH  10  11
ATOM     11  C   UNL     1       2.318   7.530  18.823  0.00  0.00    +0.000 A 
ATOM     12  C   UNL     1       2.018   7.405  20.182  0.00  0.00    +0.000 A 
ATOM     13  C   UNL     1       1.301   8.404  20.839  0.00  0.00    +0.000 A 
ATOM     14  C   UNL     1       0.836   9.488  20.115  0.00  0.00    +0.000 A 
ATOM     15  C   UNL     1       1.118   9.527  18.762  0.00  0.00    +0.000 A 
ATOM     16  N   UNL     1       1.845   8.588  18.110  0.00  0.00    +0.000 NA
ENDBRANCH  10  11
BRANCH   1  17
ATOM     17  S   UNL     1       1.342   4.404  18.499  0.00  0.00    +0.000 S 
BRANCH  17  18
ATOM     18  C   UNL     1       1.882   2.723  18.081  0.00  0.00    +0.000 C 
BRANCH  18  19
ATOM     19  C   UNL     1       2.230   1.934  19.337  0.00  0.00    +0.000 C 
BRANCH  19  21
ATOM     20  C   UNL     1       2.520   2.584  21.622  0.00  0.00    +0.000 C 
ATOM     21  N   UNL     1       3.098   2.672  20.280  0.00  0.00    +0.000 NA
ATOM     22  C   UNL     1       4.479   2.187  20.280  0.00  0.00    +0.000 C 
ENDBRANCH  19  21
ENDBRANCH  18  19
ENDBRANCH  17  18
ENDBRANCH   1  17
TORSDOF 5
ENDMDL
MODEL 5
REMARK VINA RESULT:      -6.6      1.745      6.334
REMARK  Name = 
REMARK  7 active torsions:
REMARK  status: ('A' for Active; 'I' for Inactive)
REMARK    1  A    between atoms: C_1  and  N_2
REMARK    2  A    between atoms: N_2  and  C_3
REMARK    3  A    between atoms: N_2  and  C_4
REMARK    4  A    between atoms: C_4  and  C_5
REMARK    5  A    between atoms: C_5  and  S_6
REMARK    6  A    between atoms: S_6  and  C_7
REMARK    7  A    between atoms: C_16  and  C_17
REMARK                            x       y       z     vdW  Elec       q    Type
REMARK                         _______ _______ _______ _____ _____    ______ ____
ROOT
ATOM      1  C   UNL     1       3.600   5.845  18.279  0.00  0.00    +0.000 A 
ATOM      2  N   UNL     1       4.378   6.409  17.313  0.00  0.00    +0.000 NA
ATOM      3  C   UNL     1       4.986   5.629  16.424  0.00  0.00    +0.000 A 
ATOM      4  C   UNL     1       5.681   6.228  15.384  0.00  0.00    +0.000 A 
ATOM      5  C   UNL     1       6.302   5.471  14.393  0.00  0.00    +0.000 A 
ATOM      6  C   UNL     1       6.229   4.083  14.449  0.00  0.00    +0.000 A 
ATOM      7  C   UNL     1       5.536   3.465  15.491  0.00  0.00    +0.000 A 
ATOM      8  C   UNL     1       4.899   4.233  16.486  0.00  0.00    +0.000 A 
ATOM      9  C   UNL     1       4.157   3.670  17.544  0.00  0.00    +0.000 A 
ATOM     10  C   UNL     1       3.476   4.466  18.489  0.00  0.00    +0.000 A 
ENDROOT
BRANCH  10  11
ATOM     11  C   UNL     1       2.657   3.832  19.553  0.00  0.00    +0.000 A 
ATOM     12  C   UNL     1       1.265   3.715  19.506  0.00  0.00    +0.000 A 
ATOM     13  C   UNL     1       0.579   3.049  20.520  0.00  0.00    +0.000 A 
ATOM     14  C   UNL     1       1.287   2.561  21.605  0.00  0.00    +0.000 A 
ATOM     15  C   UNL     1       2.655   2.756  21.621  0.00  0.00    +0.000 A 
ATOM     16  N   UNL     1       3.348   3.367  20.629  0.00  0.00    +0.000 NA
ENDBRANCH  10  11
BRANCH   1  17
ATOM     17  S   UNL     1       2.605   7.089  19.090  0.00  0.00    +0.000 S 
BRANCH  17  18
ATOM     18  C   UNL     1       2.647   8.278  17.719  0.00  0.00    +0.000 C 
BRANCH  18  19
ATOM     19  C   UNL     1       1.435   9.200  17.760  0.00  0.00    +0.000 C 
BRANCH  19  21
ATOM     20  C   UNL     1       1.641  11.407  18.663  0.00  0.00    +0.000 C 
ATOM     21  N   UNL     1       1.348  10.011  18.993  0.00  0.00    +0.000 NA
ATOM     22  C   UNL     1       0.048   9.900  19.657  0.00  0.00    +0.000 C 
ENDBRANCH  19  21
ENDBRANCH  18  19
ENDBRANCH  17  18
ENDBRANCH   1  17
TORSDOF 5
ENDMDL
MODEL 6
REMARK VINA RESULT:      -6.5      1.611      5.385
REMARK  Name = 
REMARK  7 active torsions:
REMARK  status: ('A' for Active; 'I' for Inactive)
REMARK    1  A    between atoms: C_1  and  N_2
REMARK    2  A    between atoms: N_2  and  C_3
REMARK    3  A    between atoms: N_2  and  C_4
REMARK    4  A    between atoms: C_4  and  C_5
REMARK    5  A    between atoms: C_5  and  S_6
REMARK    6  A    between atoms: S_6  and  C_7
REMARK    7  A    between atoms: C_16  and  C_17
REMARK                            x       y       z     vdW  Elec       q    Type
REMARK                         _______ _______ _______ _____ _____    ______ ____
ROOT
ATOM      1  C   UNL     1       2.606   5.929  18.990  0.00  0.00    +0.000 A 
ATOM      2  N   UNL     1       3.336   4.888  18.501  0.00  0.00    +0.000 NA
ATOM      3  C   UNL     1       4.215   5.106  17.528  0.00  0.00    +0.000 A 
ATOM      4  C   UNL     1       5.027   4.056  17.122  0.00  0.00    +0.000 A 
ATOM      5  C   UNL     1       6.000   4.227  16.140  0.00  0.00    +0.000 A 
ATOM      6  C   UNL     1       6.162   5.475  15.550  0.00  0.00    +0.000 A 
ATOM      7  C   UNL     1       5.351   6.541  15.945  0.00  0.00    +0.000 A 
ATOM      8  C   UNL     1       4.375   6.369  16.945  0.00  0.00    +0.000 A 
ATOM      9  C   UNL     1       3.549   7.412  17.411  0.00  0.00    +0.000 A 
ATOM     10  C   UNL     1       2.624   7.226  18.460  0.00  0.00    +0.000 A 
ENDROOT
BRANCH  10  11
ATOM     11  C   UNL     1       1.816   8.367  18.960  0.00  0.00    +0.000 A 
ATOM     12  C   UNL     1       1.276   9.363  18.142  0.00  0.00    +0.000 A 
ATOM     13  C   UNL     1       0.476  10.365  18.688  0.00  0.00    +0.000 A 
ATOM     14  C   UNL     1       0.276  10.398  20.057  0.00  0.00    +0.000 A 
ATOM     15  C   UNL     1       0.882   9.417  20.819  0.00  0.00    +0.000 A 
ATOM     16  N   UNL     1       1.632   8.412  20.308  0.00  0.00    +0.000 NA
ENDBRANCH  10  11
BRANCH   1  17
ATOM     17  S   UNL     1       1.799   5.468  20.517  0.00  0.00    +0.000 S 
BRANCH  17  18
ATOM     18  C   UNL     1       2.674   3.891  20.716  0.00  0.00    +0.000 C 
BRANCH  18  19
ATOM     19  C   UNL     1       1.691   2.733  20.834  0.00  0.00    +0.000 C 
BRANCH  19  21
ATOM     20  C   UNL     1       0.698   2.431  18.677  0.00  0.00    +0.000 C 
ATOM     21  N   UNL     1       1.648   1.866  19.637  0.00  0.00    +0.000 NA
ATOM     22  C   UNL     1       2.962   1.685  19.018  0.00  0.00    +0.000 C 
ENDBRANCH  19  21
ENDBRANCH  18  19
ENDBRANCH  17  18
ENDBRANCH   1  17
TORSDOF 5
ENDMDL
MODEL 7
REMARK VINA RESULT:      -6.5      1.037      1.465
REMARK  Name = 
REMARK  7 active torsions:
REMARK  status: ('A' for Active; 'I' for Inactive)
REMARK    1  A    between atoms: C_1  and  N_2
REMARK    2  A    between atoms: N_2  and  C_3
REMARK    3  A    between atoms: N_2  and  C_4
REMARK    4  A    between atoms: C_4  and  C_5
REMARK    5  A    between atoms: C_5  and  S_6
REMARK    6  A    between atoms: S_6  and  C_7
REMARK    7  A    between atoms: C_16  and  C_17
REMARK                            x       y       z     vdW  Elec       q    Type
REMARK                         _______ _______ _______ _____ _____    ______ ____
ROOT
ATOM      1  C   UNL     1       3.587   6.047  19.260  0.00  0.00    +0.000 A 
ATOM      2  N   UNL     1       2.733   6.732  20.069  0.00  0.00    +0.000 NA
ATOM      3  C   UNL     1       2.086   7.791  19.592  0.00  0.00    +0.000 A 
ATOM      4  C   UNL     1       1.138   8.407  20.397  0.00  0.00    +0.000 A 
ATOM      5  C   UNL     1       0.392   9.492  19.942  0.00  0.00    +0.000 A 
ATOM      6  C   UNL     1       0.603   9.973  18.655  0.00  0.00    +0.000 A 
ATOM      7  C   UNL     1       1.555   9.367  17.833  0.00  0.00    +0.000 A 
ATOM      8  C   UNL     1       2.301   8.263  18.291  0.00  0.00    +0.000 A 
ATOM      9  C   UNL     1       3.252   7.587  17.500  0.00  0.00    +0.000 A 
ATOM     10  C   UNL     1       3.937   6.444  17.962  0.00  0.00    +0.000 A 
ENDROOT
BRANCH  10  11
ATOM     11  C   UNL     1       4.887   5.727  17.074  0.00  0.00    +0.000 A 
ATOM     12  C   UNL     1       4.525   4.683  16.219  0.00  0.00    +0.000 A 
ATOM     13  C   UNL     1       5.469   4.106  15.372  0.00  0.00    +0.000 A 
ATOM     14  C   UNL     1       6.783   4.537  15.435  0.00  0.00    +0.000 A 
ATOM     15  C   UNL     1       7.091   5.535  16.341  0.00  0.00    +0.000 A 
ATOM     16  N   UNL     1       6.183   6.136  17.146  0.00  0.00    +0.000 NA
ENDBRANCH  10  11
BRANCH   1  17
ATOM     17  S   UNL     1       4.024   4.476  19.993  0.00  0.00    +0.000 S 
BRANCH  17  18
ATOM     18  C   UNL     1       2.336   4.031  20.489  0.00  0.00    +0.000 C 
BRANCH  18  19
ATOM     19  C   UNL     1       2.153   2.519  20.505  0.00  0.00    +0.000 C 
BRANCH  19  21
ATOM     20  C   UNL     1       0.980   2.904  18.455  0.00  0.00    +0.000 C 
ATOM     21  N   UNL     1       1.815   1.947  19.184  0.00  0.00    +0.000 NA
ATOM     22  C   UNL     1       2.997   1.591  18.398  0.00  0.00    +0.000 C 
ENDBRANCH  19  21
ENDBRANCH  18  19
ENDBRANCH  17  18
ENDBRANCH   1  17
TORSDOF 5
ENDMDL
MODEL 8
REMARK VINA RESULT:      -6.5      1.717      4.775
REMARK  Name = 
REMARK  7 active torsions:
REMARK  status: ('A' for Active; 'I' for Inactive)
REMARK    1  A    between atoms: C_1  and  N_2
REMARK    2  A    between atoms: N_2  and  C_3
REMARK    3  A    between atoms: N_2  and  C_4
REMARK    4  A    between atoms: C_4  and  C_5
REMARK    5  A    between atoms: C_5  and  S_6
REMARK    6  A    between atoms: S_6  and  C_7
REMARK    7  A    between atoms: C_16  and  C_17
REMARK                            x       y       z     vdW  Elec       q    Type
REMARK                         _______ _______ _______ _____ _____    ______ ____
ROOT
ATOM      1  C   UNL     1       3.485   5.705  18.003  0.00  0.00    +0.000 A 
ATOM      2  N   UNL     1       2.582   5.645  19.020  0.00  0.00    +0.000 NA
ATOM      3  C   UNL     1       2.508   4.547  19.766  0.00  0.00    +0.000 A 
ATOM      4  C   UNL     1       1.661   4.547  20.865  0.00  0.00    +0.000 A 
ATOM      5  C   UNL     1       1.571   3.447  21.714  0.00  0.00    +0.000 A 
ATOM      6  C   UNL     1       2.342   2.320  21.455  0.00  0.00    +0.000 A 
ATOM      7  C   UNL     1       3.197   2.302  20.352  0.00  0.00    +0.000 A 
ATOM      8  C   UNL     1       3.296   3.419  19.500  0.00  0.00    +0.000 A 
ATOM      9  C   UNL     1       4.163   3.476  18.391  0.00  0.00    +0.000 A 
ATOM     10  C   UNL     1       4.288   4.633  17.594  0.00  0.00    +0.000 A 
ENDROOT
BRANCH  10  11
ATOM     11  C   UNL     1       5.258   4.670  16.470  0.00  0.00    +0.000 A 
ATOM     12  C   UNL     1       4.968   4.248  15.170  0.00  0.00    +0.000 A 
ATOM     13  C   UNL     1       5.919   4.376  14.159  0.00  0.00    +0.000 A 
ATOM     14  C   UNL     1       7.175   4.865  14.473  0.00  0.00    +0.000 A 
ATOM     15  C   UNL     1       7.420   5.214  15.788  0.00  0.00    +0.000 A 
ATOM     16  N   UNL     1       6.500   5.134  16.779  0.00  0.00    +0.000 NA
ENDBRANCH  10  11
BRANCH   1  17
ATOM     17  S   UNL     1       3.656   7.384  17.414  0.00  0.00    +0.000 S 
BRANCH  17  18
ATOM     18  C   UNL     1       2.202   8.032  18.285  0.00  0.00    +0.000 C 
BRANCH  18  19
ATOM     19  C   UNL     1       1.864   9.439  17.811  0.00  0.00    +0.000 C 
BRANCH  19  21
ATOM     20  C   UNL     1       1.724  11.692  18.606  0.00  0.00    +0.000 C 
ATOM     21  N   UNL     1       1.321  10.311  18.875  0.00  0.00    +0.000 NA
ATOM     22  C   UNL     1      -0.133  10.213  19.005  0.00  0.00    +0.000 C 
ENDBRANCH  19  21
ENDBRANCH  18  19
ENDBRANCH  17  18
ENDBRANCH   1  17
TORSDOF 5
ENDMDL
MODEL 9
REMARK VINA RESULT:      -6.5      1.624      5.416
REMARK  Name = 
REMARK  7 active torsions:
REMARK  status: ('A' for Active; 'I' for Inactive)
REMARK    1  A    between atoms: C_1  and  N_2
REMARK    2  A    between atoms: N_2  and  C_3
REMARK    3  A    between atoms: N_2  and  C_4
REMARK    4  A    between atoms: C_4  and  C_5
REMARK    5  A    between atoms: C_5  and  S_6
REMARK    6  A    between atoms: S_6  and  C_7
REMARK    7  A    between atoms: C_16  and  C_17
REMARK                            x       y       z     vdW  Elec       q    Type
REMARK                         _______ _______ _______ _____ _____    ______ ____
ROOT
ATOM      1  C   UNL     1       2.611   5.863  19.117  0.00  0.00    +0.000 A 
ATOM      2  N   UNL     1       3.302   4.849  18.529  0.00  0.00    +0.000 NA
ATOM      3  C   UNL     1       4.120   5.115  17.515  0.00  0.00    +0.000 A 
ATOM      4  C   UNL     1       4.898   4.087  17.003  0.00  0.00    +0.000 A 
ATOM      5  C   UNL     1       5.809   4.307  15.973  0.00  0.00    +0.000 A 
ATOM      6  C   UNL     1       5.941   5.585  15.441  0.00  0.00    +0.000 A 
ATOM      7  C   UNL     1       5.164   6.630  15.943  0.00  0.00    +0.000 A 
ATOM      8  C   UNL     1       4.250   6.408  16.992  0.00  0.00    +0.000 A 
ATOM      9  C   UNL     1       3.462   7.426  17.563  0.00  0.00    +0.000 A 
ATOM     10  C   UNL     1       2.604   7.187  18.657  0.00  0.00    +0.000 A 
ENDROOT
BRANCH  10  11
ATOM     11  C   UNL     1       1.835   8.302  19.267  0.00  0.00    +0.000 A 
ATOM     12  C   UNL     1       1.514   8.381  20.624  0.00  0.00    +0.000 A 
ATOM     13  C   UNL     1       0.842   9.495  21.125  0.00  0.00    +0.000 A 
ATOM     14  C   UNL     1       0.442  10.491  20.251  0.00  0.00    +0.000 A 
ATOM     15  C   UNL     1       0.741  10.328  18.911  0.00  0.00    +0.000 A 
ATOM     16  N   UNL     1       1.425   9.273  18.407  0.00  0.00    +0.000 NA
ENDBRANCH  10  11
BRANCH   1  17
ATOM     17  S   UNL     1       1.898   5.323  20.665  0.00  0.00    +0.000 S 
BRANCH  17  18
ATOM     18  C   UNL     1       2.758   3.726  20.714  0.00  0.00    +0.000 C 
BRANCH  18  19
ATOM     19  C   UNL     1       1.765   2.574  20.799  0.00  0.00    +0.000 C 
BRANCH  19  21
ATOM     20  C   UNL     1       0.704   2.384  18.662  0.00  0.00    +0.000 C 
ATOM     21  N   UNL     1       1.683   1.769  19.561  0.00  0.00    +0.000 NA
ATOM     22  C   UNL     1       2.976   1.620  18.892  0.00  0.00    +0.000 C 
ENDBRANCH  19  21
ENDBRANCH  18  19
ENDBRANCH  17  18
ENDBRANCH   1  17
TORSDOF 5
ENDMDL
