MODEL 1
REMARK VINA RESULT:      -8.4      0.000      0.000
REMARK  Name = 
REMARK  6 active torsions:
REMARK  status: ('A' for Active; 'I' for Inactive)
REMARK    1  A    between atoms: C_2  and  O_3
REMARK    2  A    between atoms: C_2  and  C_4
REMARK    3  A    between atoms: N_6  and  C_7
REMARK    4  A    between atoms: C_7  and  C_8
REMARK    5  A    between atoms: C_11  and  O_12
REMARK    6  A    between atoms: O_12  and  C_13
REMARK                            x       y       z     vdW  Elec       q    Type
REMARK                         _______ _______ _______ _____ _____    ______ ____
ROOT
ATOM      1  C   UNL     1       6.181   6.350  17.865  0.00  0.00    +0.000 A 
ATOM      2  C   UNL     1       5.048   7.055  17.736  0.00  0.00    +0.000 A 
ATOM      3  N   UNL     1       3.762   6.542  17.627  0.00  0.00    +0.000 N 
ATOM      4  C   UNL     1       3.568   5.138  17.780  0.00  0.00    +0.000 A 
ATOM      5  C   UNL     1       2.318   4.487  17.790  0.00  0.00    +0.000 A 
ATOM      6  F   UNL     1       1.180   5.161  17.568  0.00  0.00    +0.000 F 
ATOM      7  C   UNL     1       2.187   3.118  18.036  0.00  0.00    +0.000 A 
ATOM      8  C   UNL     1       3.312   2.335  18.259  0.00  0.00    +0.000 A 
ATOM      9  C   UNL     1       4.570   2.924  18.204  0.00  0.00    +0.000 A 
ATOM     10  C   UNL     1       4.690   4.303  17.961  0.00  0.00    +0.000 A 
ATOM     11  C   UNL     1       6.053   4.883  17.886  0.00  0.00    +0.000 A 
ATOM     12  O   UNL     1       7.059   4.178  17.833  0.00  0.00    +0.000 OA
ENDROOT
BRANCH   1  14
ATOM     13  O   UNL     1       7.837   7.890  17.117  0.00  0.00    +0.000 OA
ATOM     14  C   UNL     1       7.473   7.059  17.940  0.00  0.00    +0.000 C 
BRANCH  14  15
ATOM     15  O   UNL     1       8.249   6.697  18.985  0.00  0.00    +0.000 OA
ATOM     16  H   UNL     1       8.015   7.148  19.833  0.00  0.00    +0.000 HD
ENDBRANCH  14  15
ENDBRANCH   1  14
BRANCH   3  17
ATOM     17  C   UNL     1       2.554   7.353  17.353  0.00  0.00    +0.000 C 
BRANCH  17  18
ATOM     18  C   UNL     1       2.008   8.152  18.520  0.00  0.00    +0.000 A 
ATOM     19  C   UNL     1       1.446   9.421  18.332  0.00  0.00    +0.000 A 
ATOM     20  C   UNL     1       0.877  10.102  19.412  0.00  0.00    +0.000 A 
ATOM     21  C   UNL     1       0.849   9.524  20.683  0.00  0.00    +0.000 A 
ATOM     22  C   UNL     1       1.490   8.306  20.892  0.00  0.00    +0.000 A 
ATOM     23  C   UNL     1       2.054   7.617  19.817  0.00  0.00    +0.000 A 
BRANCH  21  24
ATOM     24  O   UNL     1       0.240  10.262  21.651  0.00  0.00    +0.000 OA
BRANCH  24  25
ATOM     25  C   UNL     1      -0.345   9.583  22.758  0.00  0.00    +0.000 C 
ATOM     26  F   UNL     1       0.524   9.238  23.732  0.00  0.00    +0.000 F 
ATOM     27  F   UNL     1      -1.306  10.365  23.295  0.00  0.00    +0.000 F 
ATOM     28  F   UNL     1      -0.930   8.449  22.310  0.00  0.00    +0.000 F 
ENDBRANCH  24  25
ENDBRANCH  21  24
ENDBRANCH  17  18
ENDBRANCH   3  17
TORSDOF 6
ENDMDL
MODEL 2
REMARK VINA RESULT:      -8.4      0.201      1.197
REMARK  Name = 
REMARK  6 active torsions:
REMARK  status: ('A' for Active; 'I' for Inactive)
REMARK    1  A    between atoms: C_2  and  O_3
REMARK    2  A    between atoms: C_2  and  C_4
REMARK    3  A    between atoms: N_6  and  C_7
REMARK    4  A    between atoms: C_7  and  C_8
REMARK    5  A    between atoms: C_11  and  O_12
REMARK    6  A    between atoms: O_12  and  C_13
REMARK                            x       y       z     vdW  Elec       q    Type
REMARK                         _______ _______ _______ _____ _____    ______ ____
ROOT
ATOM      1  C   UNL     1       6.107   6.328  17.882  0.00  0.00    +0.000 A 
ATOM      2  C   UNL     1       4.980   7.048  17.794  0.00  0.00    +0.000 A 
ATOM      3  N   UNL     1       3.688   6.551  17.677  0.00  0.00    +0.000 N 
ATOM      4  C   UNL     1       3.484   5.143  17.775  0.00  0.00    +0.000 A 
ATOM      5  C   UNL     1       2.228   4.503  17.771  0.00  0.00    +0.000 A 
ATOM      6  F   UNL     1       1.094   5.194  17.588  0.00  0.00    +0.000 F 
ATOM      7  C   UNL     1       2.088   3.126  17.963  0.00  0.00    +0.000 A 
ATOM      8  C   UNL     1       3.208   2.325  18.142  0.00  0.00    +0.000 A 
ATOM      9  C   UNL     1       4.470   2.905  18.098  0.00  0.00    +0.000 A 
ATOM     10  C   UNL     1       4.600   4.292  17.911  0.00  0.00    +0.000 A 
ATOM     11  C   UNL     1       5.967   4.863  17.845  0.00  0.00    +0.000 A 
ATOM     12  O   UNL     1       6.966   4.153  17.753  0.00  0.00    +0.000 OA
ENDROOT
BRANCH   1  14
ATOM     13  O   UNL     1       7.777   7.871  17.169  0.00  0.00    +0.000 OA
ATOM     14  C   UNL     1       7.406   7.024  17.972  0.00  0.00    +0.000 C 
BRANCH  14  15
ATOM     15  O   UNL     1       8.179   6.629  19.008  0.00  0.00    +0.000 OA
ATOM     16  H   UNL     1       7.983   5.715  19.329  0.00  0.00    +0.000 HD
ENDBRANCH  14  15
ENDBRANCH   1  14
BRANCH   3  17
ATOM     17  C   UNL     1       2.484   7.382  17.448  0.00  0.00    +0.000 C 
BRANCH  17  18
ATOM     18  C   UNL     1       1.940   8.114  18.658  0.00  0.00    +0.000 A 
ATOM     19  C   UNL     1       2.040   7.565  19.944  0.00  0.00    +0.000 A 
ATOM     20  C   UNL     1       1.604   8.296  21.052  0.00  0.00    +0.000 A 
ATOM     21  C   UNL     1       1.079   9.581  20.897  0.00  0.00    +0.000 A 
ATOM     22  C   UNL     1       0.893  10.090  19.615  0.00  0.00    +0.000 A 
ATOM     23  C   UNL     1       1.332   9.370  18.503  0.00  0.00    +0.000 A 
BRANCH  21  24
ATOM     24  O   UNL     1       0.719  10.213  22.048  0.00  0.00    +0.000 OA
BRANCH  24  25
ATOM     25  C   UNL     1      -0.313   9.640  22.844  0.00  0.00    +0.000 C 
ATOM     26  F   UNL     1      -1.314  10.487  23.166  0.00  0.00    +0.000 F 
ATOM     27  F   UNL     1      -0.838   8.582  22.189  0.00  0.00    +0.000 F 
ATOM     28  F   UNL     1       0.230   9.190  23.999  0.00  0.00    +0.000 F 
ENDBRANCH  24  25
ENDBRANCH  21  24
ENDBRANCH  17  18
ENDBRANCH   3  17
TORSDOF 6
ENDMDL
MODEL 3
REMARK VINA RESULT:      -8.3      2.306      2.892
REMARK  Name = 
REMARK  6 active torsions:
REMARK  status: ('A' for Active; 'I' for Inactive)
REMARK    1  A    between atoms: C_2  and  O_3
REMARK    2  A    between atoms: C_2  and  C_4
REMARK    3  A    between atoms: N_6  and  C_7
REMARK    4  A    between atoms: C_7  and  C_8
REMARK    5  A    between atoms: C_11  and  O_12
REMARK    6  A    between atoms: O_12  and  C_13
REMARK                            x       y       z     vdW  Elec       q    Type
REMARK                         _______ _______ _______ _____ _____    ______ ____
ROOT
ATOM      1  C   UNL     1       5.156   5.499  17.685  0.00  0.00    +0.000 A 
ATOM      2  C   UNL     1       4.519   6.126  18.684  0.00  0.00    +0.000 A 
ATOM      3  N   UNL     1       3.328   5.731  19.283  0.00  0.00    +0.000 N 
ATOM      4  C   UNL     1       2.754   4.481  18.909  0.00  0.00    +0.000 A 
ATOM      5  C   UNL     1       1.608   3.906  19.494  0.00  0.00    +0.000 A 
ATOM      6  F   UNL     1       0.901   4.559  20.428  0.00  0.00    +0.000 F 
ATOM      7  C   UNL     1       1.146   2.634  19.148  0.00  0.00    +0.000 A 
ATOM      8  C   UNL     1       1.804   1.890  18.177  0.00  0.00    +0.000 A 
ATOM      9  C   UNL     1       2.906   2.439  17.533  0.00  0.00    +0.000 A 
ATOM     10  C   UNL     1       3.366   3.718  17.893  0.00  0.00    +0.000 A 
ATOM     11  C   UNL     1       4.530   4.273  17.162  0.00  0.00    +0.000 A 
ATOM     12  O   UNL     1       4.971   3.746  16.142  0.00  0.00    +0.000 OA
ENDROOT
BRANCH   1  14
ATOM     13  O   UNL     1       6.542   7.264  16.885  0.00  0.00    +0.000 OA
ATOM     14  C   UNL     1       6.403   6.075  17.146  0.00  0.00    +0.000 C 
BRANCH  14  15
ATOM     15  O   UNL     1       7.387   5.174  16.933  0.00  0.00    +0.000 OA
ATOM     16  H   UNL     1       7.080   4.341  16.497  0.00  0.00    +0.000 HD
ENDBRANCH  14  15
ENDBRANCH   1  14
BRANCH   3  17
ATOM     17  C   UNL     1       2.591   6.525  20.292  0.00  0.00    +0.000 C 
BRANCH  17  18
ATOM     18  C   UNL     1       1.931   7.794  19.790  0.00  0.00    +0.000 A 
ATOM     19  C   UNL     1       2.043   8.189  18.450  0.00  0.00    +0.000 A 
ATOM     20  C   UNL     1       1.358   9.319  17.995  0.00  0.00    +0.000 A 
ATOM     21  C   UNL     1       0.548  10.057  18.859  0.00  0.00    +0.000 A 
ATOM     22  C   UNL     1       0.510   9.723  20.210  0.00  0.00    +0.000 A 
ATOM     23  C   UNL     1       1.185   8.591  20.672  0.00  0.00    +0.000 A 
BRANCH  21  24
ATOM     24  O   UNL     1      -0.098  11.117  18.299  0.00  0.00    +0.000 OA
BRANCH  24  25
ATOM     25  C   UNL     1      -1.501  11.018  18.074  0.00  0.00    +0.000 C 
ATOM     26  F   UNL     1      -1.972  11.811  17.089  0.00  0.00    +0.000 F 
ATOM     27  F   UNL     1      -1.809   9.736  17.779  0.00  0.00    +0.000 F 
ATOM     28  F   UNL     1      -2.147  11.352  19.215  0.00  0.00    +0.000 F 
ENDBRANCH  24  25
ENDBRANCH  21  24
ENDBRANCH  17  18
ENDBRANCH   3  17
TORSDOF 6
ENDMDL
MODEL 4
REMARK VINA RESULT:      -8.3      2.297      2.883
REMARK  Name = 
REMARK  6 active torsions:
REMARK  status: ('A' for Active; 'I' for Inactive)
REMARK    1  A    between atoms: C_2  and  O_3
REMARK    2  A    between atoms: C_2  and  C_4
REMARK    3  A    between atoms: N_6  and  C_7
REMARK    4  A    between atoms: C_7  and  C_8
REMARK    5  A    between atoms: C_11  and  O_12
REMARK    6  A    between atoms: O_12  and  C_13
REMARK                            x       y       z     vdW  Elec       q    Type
REMARK                         _______ _______ _______ _____ _____    ______ ____
ROOT
ATOM      1  C   UNL     1       5.217   5.455  17.619  0.00  0.00    +0.000 A 
ATOM      2  C   UNL     1       4.633   6.113  18.631  0.00  0.00    +0.000 A 
ATOM      3  N   UNL     1       3.438   5.776  19.255  0.00  0.00    +0.000 N 
ATOM      4  C   UNL     1       2.797   4.554  18.896  0.00  0.00    +0.000 A 
ATOM      5  C   UNL     1       1.637   4.036  19.507  0.00  0.00    +0.000 A 
ATOM      6  F   UNL     1       0.983   4.723  20.455  0.00  0.00    +0.000 F 
ATOM      7  C   UNL     1       1.108   2.788  19.173  0.00  0.00    +0.000 A 
ATOM      8  C   UNL     1       1.707   2.012  18.189  0.00  0.00    +0.000 A 
ATOM      9  C   UNL     1       2.820   2.507  17.520  0.00  0.00    +0.000 A 
ATOM     10  C   UNL     1       3.349   3.762  17.869  0.00  0.00    +0.000 A 
ATOM     11  C   UNL     1       4.522   4.261  17.112  0.00  0.00    +0.000 A 
ATOM     12  O   UNL     1       4.915   3.713  16.083  0.00  0.00    +0.000 OA
ENDROOT
BRANCH   1  14
ATOM     13  O   UNL     1       6.630   7.127  16.679  0.00  0.00    +0.000 OA
ATOM     14  C   UNL     1       6.479   5.971  17.052  0.00  0.00    +0.000 C 
BRANCH  14  15
ATOM     15  O   UNL     1       7.461   5.049  16.947  0.00  0.00    +0.000 OA
ATOM     16  H   UNL     1       8.366   5.436  16.858  0.00  0.00    +0.000 HD
ENDBRANCH  14  15
ENDBRANCH   1  14
BRANCH   3  17
ATOM     17  C   UNL     1       2.762   6.605  20.279  0.00  0.00    +0.000 C 
BRANCH  17  18
ATOM     18  C   UNL     1       1.955   7.779  19.761  0.00  0.00    +0.000 A 
ATOM     19  C   UNL     1       1.112   8.511  20.607  0.00  0.00    +0.000 A 
ATOM     20  C   UNL     1       0.442   9.637  20.124  0.00  0.00    +0.000 A 
ATOM     21  C   UNL     1       0.613  10.055  18.802  0.00  0.00    +0.000 A 
ATOM     22  C   UNL     1       1.375   9.277  17.934  0.00  0.00    +0.000 A 
ATOM     23  C   UNL     1       2.053   8.154  18.412  0.00  0.00    +0.000 A 
BRANCH  21  24
ATOM     24  O   UNL     1      -0.062  11.184  18.449  0.00  0.00    +0.000 OA
BRANCH  24  25
ATOM     25  C   UNL     1      -1.457  11.088  18.180  0.00  0.00    +0.000 C 
ATOM     26  F   UNL     1      -1.866   9.874  17.752  0.00  0.00    +0.000 F 
ATOM     27  F   UNL     1      -2.143  11.404  19.299  0.00  0.00    +0.000 F 
ATOM     28  F   UNL     1      -1.776  11.989  17.223  0.00  0.00    +0.000 F 
ENDBRANCH  24  25
ENDBRANCH  21  24
ENDBRANCH  17  18
ENDBRANCH   3  17
TORSDOF 6
ENDMDL
MODEL 5
REMARK VINA RESULT:      -8.1      2.130      3.698
REMARK  Name = 
REMARK  6 active torsions:
REMARK  status: ('A' for Active; 'I' for Inactive)
REMARK    1  A    between atoms: C_2  and  O_3
REMARK    2  A    between atoms: C_2  and  C_4
REMARK    3  A    between atoms: N_6  and  C_7
REMARK    4  A    between atoms: C_7  and  C_8
REMARK    5  A    between atoms: C_11  and  O_12
REMARK    6  A    between atoms: O_12  and  C_13
REMARK                            x       y       z     vdW  Elec       q    Type
REMARK                         _______ _______ _______ _____ _____    ______ ____
ROOT
ATOM      1  C   UNL     1       2.956   3.683  18.945  0.00  0.00    +0.000 A 
ATOM      2  C   UNL     1       2.488   4.838  18.451  0.00  0.00    +0.000 A 
ATOM      3  N   UNL     1       3.243   5.933  18.050  0.00  0.00    +0.000 N 
ATOM      4  C   UNL     1       4.664   5.816  18.035  0.00  0.00    +0.000 A 
ATOM      5  C   UNL     1       5.554   6.803  17.565  0.00  0.00    +0.000 A 
ATOM      6  F   UNL     1       5.113   8.002  17.156  0.00  0.00    +0.000 F 
ATOM      7  C   UNL     1       6.933   6.595  17.490  0.00  0.00    +0.000 A 
ATOM      8  C   UNL     1       7.484   5.390  17.908  0.00  0.00    +0.000 A 
ATOM      9  C   UNL     1       6.651   4.408  18.430  0.00  0.00    +0.000 A 
ATOM     10  C   UNL     1       5.264   4.626  18.496  0.00  0.00    +0.000 A 
ATOM     11  C   UNL     1       4.416   3.561  19.084  0.00  0.00    +0.000 A 
ATOM     12  O   UNL     1       4.898   2.601  19.682  0.00  0.00    +0.000 OA
ENDROOT
BRANCH   1  14
ATOM     13  O   UNL     1       1.135   2.791  20.196  0.00  0.00    +0.000 OA
ATOM     14  C   UNL     1       2.005   2.629  19.350  0.00  0.00    +0.000 C 
BRANCH  14  15
ATOM     15  O   UNL     1       2.187   1.444  18.727  0.00  0.00    +0.000 OA
ATOM     16  H   UNL     1       1.348   0.957  18.539  0.00  0.00    +0.000 HD
ENDBRANCH  14  15
ENDBRANCH   1  14
BRANCH   3  17
ATOM     17  C   UNL     1       2.679   7.238  17.636  0.00  0.00    +0.000 C 
BRANCH  17  18
ATOM     18  C   UNL     1       2.064   8.077  18.738  0.00  0.00    +0.000 A 
ATOM     19  C   UNL     1       1.528   9.345  18.472  0.00  0.00    +0.000 A 
ATOM     20  C   UNL     1       0.895  10.064  19.488  0.00  0.00    +0.000 A 
ATOM     21  C   UNL     1       0.775   9.528  20.773  0.00  0.00    +0.000 A 
ATOM     22  C   UNL     1       1.388   8.312  21.063  0.00  0.00    +0.000 A 
ATOM     23  C   UNL     1       2.017   7.584  20.051  0.00  0.00    +0.000 A 
BRANCH  21  24
ATOM     24  O   UNL     1       0.109  10.301  21.674  0.00  0.00    +0.000 OA
BRANCH  24  25
ATOM     25  C   UNL     1      -0.457   9.676  22.821  0.00  0.00    +0.000 C 
ATOM     26  F   UNL     1      -1.062   8.494  22.579  0.00  0.00    +0.000 F 
ATOM     27  F   UNL     1       0.514   9.482  23.739  0.00  0.00    +0.000 F 
ATOM     28  F   UNL     1      -1.380  10.507  23.356  0.00  0.00    +0.000 F 
ENDBRANCH  24  25
ENDBRANCH  21  24
ENDBRANCH  17  18
ENDBRANCH   3  17
TORSDOF 6
ENDMDL
MODEL 6
REMARK VINA RESULT:      -8.1      3.290      4.623
REMARK  Name = 
REMARK  6 active torsions:
REMARK  status: ('A' for Active; 'I' for Inactive)
REMARK    1  A    between atoms: C_2  and  O_3
REMARK    2  A    between atoms: C_2  and  C_4
REMARK    3  A    between atoms: N_6  and  C_7
REMARK    4  A    between atoms: C_7  and  C_8
REMARK    5  A    between atoms: C_11  and  O_12
REMARK    6  A    between atoms: O_12  and  C_13
REMARK                            x       y       z     vdW  Elec       q    Type
REMARK                         _______ _______ _______ _____ _____    ______ ____
ROOT
ATOM      1  C   UNL     1       1.994   3.678  18.972  0.00  0.00    +0.000 A 
ATOM      2  C   UNL     1       2.119   4.964  19.329  0.00  0.00    +0.000 A 
ATOM      3  N   UNL     1       3.037   5.876  18.824  0.00  0.00    +0.000 N 
ATOM      4  C   UNL     1       3.867   5.482  17.734  0.00  0.00    +0.000 A 
ATOM      5  C   UNL     1       4.772   6.324  17.057  0.00  0.00    +0.000 A 
ATOM      6  F   UNL     1       4.983   7.587  17.458  0.00  0.00    +0.000 F 
ATOM      7  C   UNL     1       5.492   5.905  15.936  0.00  0.00    +0.000 A 
ATOM      8  C   UNL     1       5.353   4.609  15.458  0.00  0.00    +0.000 A 
ATOM      9  C   UNL     1       4.513   3.726  16.127  0.00  0.00    +0.000 A 
ATOM     10  C   UNL     1       3.789   4.160  17.250  0.00  0.00    +0.000 A 
ATOM     11  C   UNL     1       2.924   3.177  17.947  0.00  0.00    +0.000 A 
ATOM     12  O   UNL     1       2.974   1.974  17.697  0.00  0.00    +0.000 OA
ENDROOT
BRANCH   1  14
ATOM     13  O   UNL     1       0.878   2.728  20.851  0.00  0.00    +0.000 OA
ATOM     14  C   UNL     1       0.978   2.837  19.635  0.00  0.00    +0.000 C 
BRANCH  14  15
ATOM     15  O   UNL     1       0.171   2.163  18.787  0.00  0.00    +0.000 OA
ATOM     16  H   UNL     1       0.486   1.250  18.574  0.00  0.00    +0.000 HD
ENDBRANCH  14  15
ENDBRANCH   1  14
BRANCH   3  17
ATOM     17  C   UNL     1       3.228   7.251  19.342  0.00  0.00    +0.000 C 
BRANCH  17  18
ATOM     18  C   UNL     1       2.049   8.191  19.188  0.00  0.00    +0.000 A 
ATOM     19  C   UNL     1       1.267   8.561  20.291  0.00  0.00    +0.000 A 
ATOM     20  C   UNL     1       0.236   9.492  20.137  0.00  0.00    +0.000 A 
ATOM     21  C   UNL     1      -0.019  10.073  18.893  0.00  0.00    +0.000 A 
ATOM     22  C   UNL     1       0.694   9.637  17.779  0.00  0.00    +0.000 A 
ATOM     23  C   UNL     1       1.730   8.713  17.925  0.00  0.00    +0.000 A 
BRANCH  21  24
ATOM     24  O   UNL     1      -1.023  10.991  18.867  0.00  0.00    +0.000 OA
BRANCH  24  25
ATOM     25  C   UNL     1      -2.164  10.730  18.055  0.00  0.00    +0.000 C 
ATOM     26  F   UNL     1      -2.002  11.016  16.746  0.00  0.00    +0.000 F 
ATOM     27  F   UNL     1      -2.498   9.427  18.173  0.00  0.00    +0.000 F 
ATOM     28  F   UNL     1      -3.199  11.471  18.512  0.00  0.00    +0.000 F 
ENDBRANCH  24  25
ENDBRANCH  21  24
ENDBRANCH  17  18
ENDBRANCH   3  17
TORSDOF 6
ENDMDL
MODEL 7
REMARK VINA RESULT:      -8.1      2.601      3.178
REMARK  Name = 
REMARK  6 active torsions:
REMARK  status: ('A' for Active; 'I' for Inactive)
REMARK    1  A    between atoms: C_2  and  O_3
REMARK    2  A    between atoms: C_2  and  C_4
REMARK    3  A    between atoms: N_6  and  C_7
REMARK    4  A    between atoms: C_7  and  C_8
REMARK    5  A    between atoms: C_11  and  O_12
REMARK    6  A    between atoms: O_12  and  C_13
REMARK                            x       y       z     vdW  Elec       q    Type
REMARK                         _______ _______ _______ _____ _____    ______ ____
ROOT
ATOM      1  C   UNL     1       5.200   4.915  18.377  0.00  0.00    +0.000 A 
ATOM      2  C   UNL     1       4.533   5.630  19.293  0.00  0.00    +0.000 A 
ATOM      3  N   UNL     1       3.229   5.415  19.723  0.00  0.00    +0.000 N 
ATOM      4  C   UNL     1       2.535   4.259  19.256  0.00  0.00    +0.000 A 
ATOM      5  C   UNL     1       1.251   3.859  19.676  0.00  0.00    +0.000 A 
ATOM      6  F   UNL     1       0.528   4.611  20.519  0.00  0.00    +0.000 F 
ATOM      7  C   UNL     1       0.661   2.667  19.251  0.00  0.00    +0.000 A 
ATOM      8  C   UNL     1       1.327   1.832  18.363  0.00  0.00    +0.000 A 
ATOM      9  C   UNL     1       2.573   2.213  17.880  0.00  0.00    +0.000 A 
ATOM     10  C   UNL     1       3.160   3.412  18.318  0.00  0.00    +0.000 A 
ATOM     11  C   UNL     1       4.479   3.790  17.756  0.00  0.00    +0.000 A 
ATOM     12  O   UNL     1       4.971   3.202  16.795  0.00  0.00    +0.000 OA
ENDROOT
BRANCH   1  14
ATOM     13  O   UNL     1       6.901   6.441  17.705  0.00  0.00    +0.000 OA
ATOM     14  C   UNL     1       6.578   5.302  18.017  0.00  0.00    +0.000 C 
BRANCH  14  15
ATOM     15  O   UNL     1       7.465   4.283  18.029  0.00  0.00    +0.000 OA
ATOM     16  H   UNL     1       8.217   4.399  17.399  0.00  0.00    +0.000 HD
ENDBRANCH  14  15
ENDBRANCH   1  14
BRANCH   3  17
ATOM     17  C   UNL     1       2.487   6.310  20.639  0.00  0.00    +0.000 C 
BRANCH  17  18
ATOM     18  C   UNL     1       1.958   7.595  20.032  0.00  0.00    +0.000 A 
ATOM     19  C   UNL     1       1.193   8.494  20.788  0.00  0.00    +0.000 A 
ATOM     20  C   UNL     1       0.786   9.708  20.229  0.00  0.00    +0.000 A 
ATOM     21  C   UNL     1       1.145  10.046  18.922  0.00  0.00    +0.000 A 
ATOM     22  C   UNL     1       1.822   9.116  18.139  0.00  0.00    +0.000 A 
ATOM     23  C   UNL     1       2.239   7.904  18.692  0.00  0.00    +0.000 A 
BRANCH  21  24
ATOM     24  O   UNL     1       0.723  11.268  18.493  0.00  0.00    +0.000 OA
BRANCH  24  25
ATOM     25  C   UNL     1       1.619  12.370  18.589  0.00  0.00    +0.000 C 
ATOM     26  F   UNL     1       1.098  13.556  18.210  0.00  0.00    +0.000 F 
ATOM     27  F   UNL     1       2.048  12.477  19.865  0.00  0.00    +0.000 F 
ATOM     28  F   UNL     1       2.693  12.124  17.805  0.00  0.00    +0.000 F 
ENDBRANCH  24  25
ENDBRANCH  21  24
ENDBRANCH  17  18
ENDBRANCH   3  17
TORSDOF 6
ENDMDL
MODEL 8
REMARK VINA RESULT:      -8.0      3.323      4.668
REMARK  Name = 
REMARK  6 active torsions:
REMARK  status: ('A' for Active; 'I' for Inactive)
REMARK    1  A    between atoms: C_2  and  O_3
REMARK    2  A    between atoms: C_2  and  C_4
REMARK    3  A    between atoms: N_6  and  C_7
REMARK    4  A    between atoms: C_7  and  C_8
REMARK    5  A    between atoms: C_11  and  O_12
REMARK    6  A    between atoms: O_12  and  C_13
REMARK                            x       y       z     vdW  Elec       q    Type
REMARK                         _______ _______ _______ _____ _____    ______ ____
ROOT
ATOM      1  C   UNL     1       1.867   3.675  18.744  0.00  0.00    +0.000 A 
ATOM      2  C   UNL     1       1.983   4.925  19.214  0.00  0.00    +0.000 A 
ATOM      3  N   UNL     1       2.942   5.861  18.847  0.00  0.00    +0.000 N 
ATOM      4  C   UNL     1       3.839   5.543  17.785  0.00  0.00    +0.000 A 
ATOM      5  C   UNL     1       4.796   6.422  17.241  0.00  0.00    +0.000 A 
ATOM      6  F   UNL     1       4.995   7.644  17.758  0.00  0.00    +0.000 F 
ATOM      7  C   UNL     1       5.584   6.084  16.138  0.00  0.00    +0.000 A 
ATOM      8  C   UNL     1       5.462   4.834  15.546  0.00  0.00    +0.000 A 
ATOM      9  C   UNL     1       4.570   3.914  16.083  0.00  0.00    +0.000 A 
ATOM     10  C   UNL     1       3.777   4.267  17.189  0.00  0.00    +0.000 A 
ATOM     11  C   UNL     1       2.857   3.245  17.744  0.00  0.00    +0.000 A 
ATOM     12  O   UNL     1       2.909   2.065  17.399  0.00  0.00    +0.000 OA
ENDROOT
BRANCH   1  14
ATOM     13  O   UNL     1       0.122   2.063  18.562  0.00  0.00    +0.000 OA
ATOM     14  C   UNL     1       0.799   2.800  19.268  0.00  0.00    +0.000 C 
BRANCH  14  15
ATOM     15  O   UNL     1       0.604   2.895  20.601  0.00  0.00    +0.000 OA
ATOM     16  H   UNL     1       0.256   2.068  21.015  0.00  0.00    +0.000 HD
ENDBRANCH  14  15
ENDBRANCH   1  14
BRANCH   3  17
ATOM     17  C   UNL     1       3.114   7.184  19.489  0.00  0.00    +0.000 C 
BRANCH  17  18
ATOM     18  C   UNL     1       2.046   8.216  19.186  0.00  0.00    +0.000 A 
ATOM     19  C   UNL     1       1.839   8.685  17.881  0.00  0.00    +0.000 A 
ATOM     20  C   UNL     1       0.795   9.574  17.615  0.00  0.00    +0.000 A 
ATOM     21  C   UNL     1      -0.060   9.995  18.636  0.00  0.00    +0.000 A 
ATOM     22  C   UNL     1       0.200   9.605  19.947  0.00  0.00    +0.000 A 
ATOM     23  C   UNL     1       1.237   8.711  20.220  0.00  0.00    +0.000 A 
BRANCH  21  24
ATOM     24  O   UNL     1      -1.063  10.834  18.256  0.00  0.00    +0.000 OA
BRANCH  24  25
ATOM     25  C   UNL     1      -2.169  10.293  17.542  0.00  0.00    +0.000 C 
ATOM     26  F   UNL     1      -1.883   9.871  16.292  0.00  0.00    +0.000 F 
ATOM     27  F   UNL     1      -2.678   9.254  18.240  0.00  0.00    +0.000 F 
ATOM     28  F   UNL     1      -3.129  11.242  17.445  0.00  0.00    +0.000 F 
ENDBRANCH  24  25
ENDBRANCH  21  24
ENDBRANCH  17  18
ENDBRANCH   3  17
TORSDOF 6
ENDMDL
MODEL 9
REMARK VINA RESULT:      -7.9      2.754      4.028
REMARK  Name = 
REMARK  6 active torsions:
REMARK  status: ('A' for Active; 'I' for Inactive)
REMARK    1  A    between atoms: C_2  and  O_3
REMARK    2  A    between atoms: C_2  and  C_4
REMARK    3  A    between atoms: N_6  and  C_7
REMARK    4  A    between atoms: C_7  and  C_8
REMARK    5  A    between atoms: C_11  and  O_12
REMARK    6  A    between atoms: O_12  and  C_13
REMARK                            x       y       z     vdW  Elec       q    Type
REMARK                         _______ _______ _______ _____ _____    ______ ____
ROOT
ATOM      1  C   UNL     1       2.158   3.913  18.436  0.00  0.00    +0.000 A 
ATOM      2  C   UNL     1       2.228   5.251  18.388  0.00  0.00    +0.000 A 
ATOM      3  N   UNL     1       3.220   6.006  17.774  0.00  0.00    +0.000 N 
ATOM      4  C   UNL     1       4.217   5.334  17.007  0.00  0.00    +0.000 A 
ATOM      5  C   UNL     1       5.224   5.968  16.253  0.00  0.00    +0.000 A 
ATOM      6  F   UNL     1       5.372   7.301  16.267  0.00  0.00    +0.000 F 
ATOM      7  C   UNL     1       6.117   5.257  15.447  0.00  0.00    +0.000 A 
ATOM      8  C   UNL     1       6.053   3.871  15.383  0.00  0.00    +0.000 A 
ATOM      9  C   UNL     1       5.111   3.200  16.152  0.00  0.00    +0.000 A 
ATOM     10  C   UNL     1       4.213   3.925  16.955  0.00  0.00    +0.000 A 
ATOM     11  C   UNL     1       3.242   3.165  17.779  0.00  0.00    +0.000 A 
ATOM     12  O   UNL     1       3.327   1.948  17.929  0.00  0.00    +0.000 OA
ENDROOT
BRANCH   1  14
ATOM     13  O   UNL     1       0.725   3.561  20.307  0.00  0.00    +0.000 OA
ATOM     14  C   UNL     1       1.043   3.271  19.160  0.00  0.00    +0.000 C 
BRANCH  14  15
ATOM     15  O   UNL     1       0.408   2.305  18.462  0.00  0.00    +0.000 OA
ATOM     16  H   UNL     1       0.743   1.393  18.644  0.00  0.00    +0.000 HD
ENDBRANCH  14  15
ENDBRANCH   1  14
BRANCH   3  17
ATOM     17  C   UNL     1       3.329   7.480  17.860  0.00  0.00    +0.000 C 
BRANCH  17  18
ATOM     18  C   UNL     1       2.229   8.186  18.627  0.00  0.00    +0.000 A 
ATOM     19  C   UNL     1       1.998   7.912  19.982  0.00  0.00    +0.000 A 
ATOM     20  C   UNL     1       1.032   8.635  20.687  0.00  0.00    +0.000 A 
ATOM     21  C   UNL     1       0.297   9.643  20.059  0.00  0.00    +0.000 A 
ATOM     22  C   UNL     1       0.458   9.852  18.692  0.00  0.00    +0.000 A 
ATOM     23  C   UNL     1       1.426   9.139  17.982  0.00  0.00    +0.000 A 
BRANCH  21  24
ATOM     24  O   UNL     1      -0.591  10.304  20.851  0.00  0.00    +0.000 OA
BRANCH  24  25
ATOM     25  C   UNL     1      -0.217  11.569  21.386  0.00  0.00    +0.000 C 
ATOM     26  F   UNL     1       1.070  11.915  21.168  0.00  0.00    +0.000 F 
ATOM     27  F   UNL     1      -1.015  12.523  20.859  0.00  0.00    +0.000 F 
ATOM     28  F   UNL     1      -0.415  11.549  22.724  0.00  0.00    +0.000 F 
ENDBRANCH  24  25
ENDBRANCH  21  24
ENDBRANCH  17  18
ENDBRANCH   3  17
TORSDOF 6
ENDMDL
