MODEL 1
REMARK VINA RESULT:      -6.0      0.000      0.000
REMARK  Name = 
REMARK  12 active torsions:
REMARK  status: ('A' for Active; 'I' for Inactive)
REMARK    1  A    between atoms: C_1  and  C_2
REMARK    2  A    between atoms: C_2  and  N_3
REMARK    3  A    between atoms: C_7  and  C_8
REMARK    4  A    between atoms: C_9  and  N_10
REMARK    5  A    between atoms: N_10  and  S_11
REMARK    6  A    between atoms: S_11  and  C_12
REMARK    7  A    between atoms: C_15  and  C_16
REMARK    8  A    between atoms: C_17  and  N_18
REMARK    9  A    between atoms: C_19  and  C_21
REMARK   10  A    between atoms: C_21  and  C_22
REMARK   11  A    between atoms: C_21  and  C_23
REMARK   12  A    between atoms: C_21  and  C_24
REMARK                            x       y       z     vdW  Elec       q    Type
REMARK                         _______ _______ _______ _____ _____    ______ ____
ROOT
ATOM      1  N   UNL     1      -4.227  11.754  17.319  0.00  0.00    +0.000 N 
ATOM      2  C   UNL     1      -3.680  10.988  16.187  0.00  0.00    +0.000 C 
ATOM      3  C   UNL     1      -2.500  10.165  16.693  0.00  0.00    +0.000 C 
ATOM      4  C   UNL     1      -2.220  10.813  18.010  0.00  0.00    +0.000 A 
ATOM      5  C   UNL     1      -1.126  10.571  18.841  0.00  0.00    +0.000 A 
ATOM      6  C   UNL     1      -0.025   9.652  18.397  0.00  0.00    +0.000 C 
ATOM      7  C   UNL     1      -1.094  11.222  20.087  0.00  0.00    +0.000 A 
ATOM      8  C   UNL     1      -2.178  12.057  20.506  0.00  0.00    +0.000 A 
ATOM      9  C   UNL     1      -2.125  12.760  21.842  0.00  0.00    +0.000 C 
ATOM     10  C   UNL     1      -3.292  12.259  19.629  0.00  0.00    +0.000 A 
ATOM     11  C   UNL     1      -3.292  11.653  18.361  0.00  0.00    +0.000 A 
ENDROOT
BRANCH  10  12
ATOM     12  N   UNL     1      -4.336  13.186  19.908  0.00  0.00    +0.000 N 
ATOM     13  C   UNL     1      -5.413  12.948  20.744  0.00  0.00    +0.000 C 
ATOM     14  O   UNL     1      -5.627  11.864  21.285  0.00  0.00    +0.000 OA
ATOM     15  H   UNL     1      -4.475  13.857  19.167  0.00  0.00    +0.000 HD
BRANCH  13  16
ATOM     16  C   UNL     1      -6.456  14.097  20.861  0.00  0.00    +0.000 C 
ATOM     17  C   UNL     1      -6.586  14.530  22.330  0.00  0.00    +0.000 C 
ATOM     18  C   UNL     1      -5.935  15.300  20.049  0.00  0.00    +0.000 C 
ATOM     19  C   UNL     1      -7.846  13.728  20.322  0.00  0.00    +0.000 C 
ENDBRANCH  13  16
ENDBRANCH  10  12
BRANCH   1  21
ATOM     20  C   UNL     1      -6.279  13.114  16.939  0.00  0.00    +0.000 C 
ATOM     21  C   UNL     1      -5.678  11.818  17.450  0.00  0.00    +0.000 C 
ENDBRANCH   1  21
BRANCH   7  22
ATOM     22  N   UNL     1       0.097  11.045  20.896  0.00  0.00    +0.000 N 
ATOM     23  H   UNL     1       0.944  10.906  20.340  0.00  0.00    +0.000 HD
BRANCH  22  24
ATOM     24  S   UNL     1       0.043   9.862  22.117  0.00  0.00    +0.000 S 
ATOM     25  C   UNL     1       1.702   9.207  22.101  0.00  0.00    +0.000 C 
ATOM     26  O   UNL     1      -0.185  10.474  23.407  0.00  0.00    +0.000 OA
ATOM     27  O   UNL     1      -0.828   8.815  21.613  0.00  0.00    +0.000 OA
ENDBRANCH  22  24
ENDBRANCH   7  22
TORSDOF 5
ENDMDL
MODEL 2
REMARK VINA RESULT:      -6.0      0.920      1.285
REMARK  Name = 
REMARK  12 active torsions:
REMARK  status: ('A' for Active; 'I' for Inactive)
REMARK    1  A    between atoms: C_1  and  C_2
REMARK    2  A    between atoms: C_2  and  N_3
REMARK    3  A    between atoms: C_7  and  C_8
REMARK    4  A    between atoms: C_9  and  N_10
REMARK    5  A    between atoms: N_10  and  S_11
REMARK    6  A    between atoms: S_11  and  C_12
REMARK    7  A    between atoms: C_15  and  C_16
REMARK    8  A    between atoms: C_17  and  N_18
REMARK    9  A    between atoms: C_19  and  C_21
REMARK   10  A    between atoms: C_21  and  C_22
REMARK   11  A    between atoms: C_21  and  C_23
REMARK   12  A    between atoms: C_21  and  C_24
REMARK                            x       y       z     vdW  Elec       q    Type
REMARK                         _______ _______ _______ _____ _____    ______ ____
ROOT
ATOM      1  N   UNL     1      -4.037  11.801  17.361  0.00  0.00    +0.000 N 
ATOM      2  C   UNL     1      -3.738  10.991  16.169  0.00  0.00    +0.000 C 
ATOM      3  C   UNL     1      -2.589  10.047  16.508  0.00  0.00    +0.000 C 
ATOM      4  C   UNL     1      -2.059  10.654  17.767  0.00  0.00    +0.000 A 
ATOM      5  C   UNL     1      -0.889  10.294  18.436  0.00  0.00    +0.000 A 
ATOM      6  C   UNL     1       0.038   9.270  17.846  0.00  0.00    +0.000 C 
ATOM      7  C   UNL     1      -0.613  10.929  19.660  0.00  0.00    +0.000 A 
ATOM      8  C   UNL     1      -1.535  11.868  20.222  0.00  0.00    +0.000 A 
ATOM      9  C   UNL     1      -1.221  12.552  21.532  0.00  0.00    +0.000 C 
ATOM     10  C   UNL     1      -2.736  12.190  19.511  0.00  0.00    +0.000 A 
ATOM     11  C   UNL     1      -2.978  11.596  18.261  0.00  0.00    +0.000 A 
ENDROOT
BRANCH  10  12
ATOM     12  N   UNL     1      -3.628  13.217  19.929  0.00  0.00    +0.000 N 
ATOM     13  C   UNL     1      -4.545  13.108  20.960  0.00  0.00    +0.000 C 
ATOM     14  O   UNL     1      -4.743  12.068  21.587  0.00  0.00    +0.000 OA
ATOM     15  H   UNL     1      -3.848  13.871  19.192  0.00  0.00    +0.000 HD
BRANCH  13  16
ATOM     16  C   UNL     1      -5.449  14.350  21.208  0.00  0.00    +0.000 C 
ATOM     17  C   UNL     1      -4.684  15.630  20.835  0.00  0.00    +0.000 C 
ATOM     18  C   UNL     1      -6.679  14.239  20.283  0.00  0.00    +0.000 C 
ATOM     19  C   UNL     1      -5.953  14.470  22.654  0.00  0.00    +0.000 C 
ENDBRANCH  13  16
ENDBRANCH  10  12
BRANCH   1  21
ATOM     20  C   UNL     1      -6.091  10.819  18.369  0.00  0.00    +0.000 C 
ATOM     21  C   UNL     1      -5.440  12.013  17.697  0.00  0.00    +0.000 C 
ENDBRANCH   1  21
BRANCH   7  22
ATOM     22  N   UNL     1       0.656  10.625  20.293  0.00  0.00    +0.000 N 
ATOM     23  H   UNL     1       1.408  10.452  19.622  0.00  0.00    +0.000 HD
BRANCH  22  24
ATOM     24  S   UNL     1       0.669   9.389  21.461  0.00  0.00    +0.000 S 
ATOM     25  C   UNL     1       1.638   8.115  20.673  0.00  0.00    +0.000 C 
ATOM     26  O   UNL     1       1.374   9.819  22.647  0.00  0.00    +0.000 OA
ATOM     27  O   UNL     1      -0.696   8.897  21.530  0.00  0.00    +0.000 OA
ENDBRANCH  22  24
ENDBRANCH   7  22
TORSDOF 5
ENDMDL
MODEL 3
REMARK VINA RESULT:      -5.8      0.764      1.218
REMARK  Name = 
REMARK  12 active torsions:
REMARK  status: ('A' for Active; 'I' for Inactive)
REMARK    1  A    between atoms: C_1  and  C_2
REMARK    2  A    between atoms: C_2  and  N_3
REMARK    3  A    between atoms: C_7  and  C_8
REMARK    4  A    between atoms: C_9  and  N_10
REMARK    5  A    between atoms: N_10  and  S_11
REMARK    6  A    between atoms: S_11  and  C_12
REMARK    7  A    between atoms: C_15  and  C_16
REMARK    8  A    between atoms: C_17  and  N_18
REMARK    9  A    between atoms: C_19  and  C_21
REMARK   10  A    between atoms: C_21  and  C_22
REMARK   11  A    between atoms: C_21  and  C_23
REMARK   12  A    between atoms: C_21  and  C_24
REMARK                            x       y       z     vdW  Elec       q    Type
REMARK                         _______ _______ _______ _____ _____    ______ ____
ROOT
ATOM      1  N   UNL     1      -3.994  11.618  17.408  0.00  0.00    +0.000 N 
ATOM      2  C   UNL     1      -3.419  10.825  16.308  0.00  0.00    +0.000 C 
ATOM      3  C   UNL     1      -2.204  10.075  16.844  0.00  0.00    +0.000 C 
ATOM      4  C   UNL     1      -1.946  10.793  18.128  0.00  0.00    +0.000 A 
ATOM      5  C   UNL     1      -0.839  10.634  18.963  0.00  0.00    +0.000 A 
ATOM      6  C   UNL     1       0.298   9.743  18.554  0.00  0.00    +0.000 C 
ATOM      7  C   UNL     1      -0.829  11.341  20.178  0.00  0.00    +0.000 A 
ATOM      8  C   UNL     1      -1.945  12.148  20.566  0.00  0.00    +0.000 A 
ATOM      9  C   UNL     1      -1.916  12.912  21.869  0.00  0.00    +0.000 C 
ATOM     10  C   UNL     1      -3.071  12.265  19.687  0.00  0.00    +0.000 A 
ATOM     11  C   UNL     1      -3.050  11.602  18.448  0.00  0.00    +0.000 A 
ENDROOT
BRANCH  10  12
ATOM     12  N   UNL     1      -4.151  13.159  19.932  0.00  0.00    +0.000 N 
ATOM     13  C   UNL     1      -5.245  12.890  20.736  0.00  0.00    +0.000 C 
ATOM     14  O   UNL     1      -5.440  11.801  21.276  0.00  0.00    +0.000 OA
ATOM     15  H   UNL     1      -4.289  13.822  19.183  0.00  0.00    +0.000 HD
BRANCH  13  16
ATOM     16  C   UNL     1      -6.326  14.005  20.817  0.00  0.00    +0.000 C 
ATOM     17  C   UNL     1      -7.697  13.426  20.435  0.00  0.00    +0.000 C 
ATOM     18  C   UNL     1      -6.400  14.494  22.279  0.00  0.00    +0.000 C 
ATOM     19  C   UNL     1      -6.029  15.221  19.927  0.00  0.00    +0.000 C 
ENDBRANCH  13  16
ENDBRANCH  10  12
BRANCH   1  21
ATOM     20  C   UNL     1      -6.102  12.873  16.979  0.00  0.00    +0.000 C 
ATOM     21  C   UNL     1      -5.445  11.627  17.545  0.00  0.00    +0.000 C 
ENDBRANCH   1  21
BRANCH   7  22
ATOM     22  N   UNL     1       0.372  11.250  20.987  0.00  0.00    +0.000 N 
ATOM     23  H   UNL     1       1.222  11.130  20.432  0.00  0.00    +0.000 HD
BRANCH  22  24
ATOM     24  S   UNL     1       0.377  10.113  22.251  0.00  0.00    +0.000 S 
ATOM     25  C   UNL     1      -0.630   8.794  21.595  0.00  0.00    +0.000 C 
ATOM     26  O   UNL     1       1.710   9.595  22.464  0.00  0.00    +0.000 OA
ATOM     27  O   UNL     1      -0.379  10.721  23.333  0.00  0.00    +0.000 OA
ENDBRANCH  22  24
ENDBRANCH   7  22
TORSDOF 5
ENDMDL
MODEL 4
REMARK VINA RESULT:      -5.8      5.952     10.611
REMARK  Name = 
REMARK  12 active torsions:
REMARK  status: ('A' for Active; 'I' for Inactive)
REMARK    1  A    between atoms: C_1  and  C_2
REMARK    2  A    between atoms: C_2  and  N_3
REMARK    3  A    between atoms: C_7  and  C_8
REMARK    4  A    between atoms: C_9  and  N_10
REMARK    5  A    between atoms: N_10  and  S_11
REMARK    6  A    between atoms: S_11  and  C_12
REMARK    7  A    between atoms: C_15  and  C_16
REMARK    8  A    between atoms: C_17  and  N_18
REMARK    9  A    between atoms: C_19  and  C_21
REMARK   10  A    between atoms: C_21  and  C_22
REMARK   11  A    between atoms: C_21  and  C_23
REMARK   12  A    between atoms: C_21  and  C_24
REMARK                            x       y       z     vdW  Elec       q    Type
REMARK                         _______ _______ _______ _____ _____    ______ ____
ROOT
ATOM      1  N   UNL     1       2.691   3.662  19.232  0.00  0.00    +0.000 N 
ATOM      2  C   UNL     1       2.047   3.239  20.487  0.00  0.00    +0.000 C 
ATOM      3  C   UNL     1       1.227   4.408  21.021  0.00  0.00    +0.000 C 
ATOM      4  C   UNL     1       1.768   5.549  20.223  0.00  0.00    +0.000 A 
ATOM      5  C   UNL     1       1.495   6.904  20.415  0.00  0.00    +0.000 A 
ATOM      6  C   UNL     1       0.660   7.351  21.580  0.00  0.00    +0.000 C 
ATOM      7  C   UNL     1       2.035   7.818  19.493  0.00  0.00    +0.000 A 
ATOM      8  C   UNL     1       2.790   7.363  18.366  0.00  0.00    +0.000 A 
ATOM      9  C   UNL     1       3.375   8.356  17.390  0.00  0.00    +0.000 C 
ATOM     10  C   UNL     1       3.026   5.960  18.196  0.00  0.00    +0.000 A 
ATOM     11  C   UNL     1       2.533   5.056  19.152  0.00  0.00    +0.000 A 
ENDROOT
BRANCH  10  12
ATOM     12  N   UNL     1       3.886   5.440  17.187  0.00  0.00    +0.000 N 
ATOM     13  C   UNL     1       5.246   5.226  17.329  0.00  0.00    +0.000 C 
ATOM     14  O   UNL     1       5.882   5.539  18.335  0.00  0.00    +0.000 OA
ATOM     15  H   UNL     1       3.549   5.618  16.253  0.00  0.00    +0.000 HD
BRANCH  13  16
ATOM     16  C   UNL     1       5.990   4.690  16.072  0.00  0.00    +0.000 C 
ATOM     17  C   UNL     1       5.729   5.622  14.879  0.00  0.00    +0.000 C 
ATOM     18  C   UNL     1       7.503   4.703  16.371  0.00  0.00    +0.000 C 
ATOM     19  C   UNL     1       5.597   3.257  15.684  0.00  0.00    +0.000 C 
ENDBRANCH  13  16
ENDBRANCH  10  12
BRANCH   1  21
ATOM     20  C   UNL     1       3.591   1.517  18.342  0.00  0.00    +0.000 C 
ATOM     21  C   UNL     1       2.689   2.718  18.121  0.00  0.00    +0.000 C 
ENDBRANCH   1  21
BRANCH   7  22
ATOM     22  N   UNL     1       1.833   9.229  19.764  0.00  0.00    +0.000 N 
ATOM     23  H   UNL     1       1.833   9.451  20.762  0.00  0.00    +0.000 HD
BRANCH  22  24
ATOM     24  S   UNL     1       0.491   9.978  19.036  0.00  0.00    +0.000 S 
ATOM     25  C   UNL     1       1.044  11.662  18.836  0.00  0.00    +0.000 C 
ATOM     26  O   UNL     1       0.252   9.426  17.721  0.00  0.00    +0.000 OA
ATOM     27  O   UNL     1      -0.550   9.994  20.049  0.00  0.00    +0.000 OA
ENDBRANCH  22  24
ENDBRANCH   7  22
TORSDOF 5
ENDMDL
MODEL 5
REMARK VINA RESULT:      -5.7      1.461      1.947
REMARK  Name = 
REMARK  12 active torsions:
REMARK  status: ('A' for Active; 'I' for Inactive)
REMARK    1  A    between atoms: C_1  and  C_2
REMARK    2  A    between atoms: C_2  and  N_3
REMARK    3  A    between atoms: C_7  and  C_8
REMARK    4  A    between atoms: C_9  and  N_10
REMARK    5  A    between atoms: N_10  and  S_11
REMARK    6  A    between atoms: S_11  and  C_12
REMARK    7  A    between atoms: C_15  and  C_16
REMARK    8  A    between atoms: C_17  and  N_18
REMARK    9  A    between atoms: C_19  and  C_21
REMARK   10  A    between atoms: C_21  and  C_22
REMARK   11  A    between atoms: C_21  and  C_23
REMARK   12  A    between atoms: C_21  and  C_24
REMARK                            x       y       z     vdW  Elec       q    Type
REMARK                         _______ _______ _______ _____ _____    ______ ____
ROOT
ATOM      1  N   UNL     1      -5.283  12.470  18.733  0.00  0.00    +0.000 N 
ATOM      2  C   UNL     1      -5.407  11.803  17.427  0.00  0.00    +0.000 C 
ATOM      3  C   UNL     1      -4.220  10.861  17.257  0.00  0.00    +0.000 C 
ATOM      4  C   UNL     1      -3.295  11.342  18.327  0.00  0.00    +0.000 A 
ATOM      5  C   UNL     1      -1.971  10.945  18.524  0.00  0.00    +0.000 A 
ATOM      6  C   UNL     1      -1.305  10.018  17.549  0.00  0.00    +0.000 C 
ATOM      7  C   UNL     1      -1.297  11.451  19.649  0.00  0.00    +0.000 A 
ATOM      8  C   UNL     1      -1.969  12.297  20.588  0.00  0.00    +0.000 A 
ATOM      9  C   UNL     1      -1.229  12.843  21.786  0.00  0.00    +0.000 C 
ATOM     10  C   UNL     1      -3.335  12.660  20.357  0.00  0.00    +0.000 A 
ATOM     11  C   UNL     1      -3.987  12.199  19.201  0.00  0.00    +0.000 A 
ENDROOT
BRANCH  10  12
ATOM     12  N   UNL     1      -4.027  13.610  21.161  0.00  0.00    +0.000 N 
ATOM     13  C   UNL     1      -4.611  13.345  22.387  0.00  0.00    +0.000 C 
ATOM     14  O   UNL     1      -4.660  12.222  22.888  0.00  0.00    +0.000 OA
ATOM     15  H   UNL     1      -4.425  14.366  20.622  0.00  0.00    +0.000 HD
BRANCH  13  16
ATOM     16  C   UNL     1      -5.354  14.533  23.063  0.00  0.00    +0.000 C 
ATOM     17  C   UNL     1      -4.430  15.205  24.090  0.00  0.00    +0.000 C 
ATOM     18  C   UNL     1      -5.694  15.568  21.971  0.00  0.00    +0.000 C 
ATOM     19  C   UNL     1      -6.664  14.129  23.756  0.00  0.00    +0.000 C 
ENDBRANCH  13  16
ENDBRANCH  10  12
BRANCH   1  21
ATOM     20  C   UNL     1      -6.897  11.324  20.245  0.00  0.00    +0.000 C 
ATOM     21  C   UNL     1      -6.492  12.604  19.539  0.00  0.00    +0.000 C 
ENDBRANCH   1  21
BRANCH   7  22
ATOM     22  N   UNL     1       0.108  11.116  19.785  0.00  0.00    +0.000 N 
ATOM     23  H   UNL     1       0.569  10.947  18.889  0.00  0.00    +0.000 HD
BRANCH  22  24
ATOM     24  S   UNL     1       0.509   9.856  20.854  0.00  0.00    +0.000 S 
ATOM     25  C   UNL     1       1.535   8.800  19.847  0.00  0.00    +0.000 C 
ATOM     26  O   UNL     1       1.315  10.353  21.947  0.00  0.00    +0.000 OA
ATOM     27  O   UNL     1      -0.728   9.134  21.096  0.00  0.00    +0.000 OA
ENDBRANCH  22  24
ENDBRANCH   7  22
TORSDOF 5
ENDMDL
MODEL 6
REMARK VINA RESULT:      -5.7      2.124      2.583
REMARK  Name = 
REMARK  12 active torsions:
REMARK  status: ('A' for Active; 'I' for Inactive)
REMARK    1  A    between atoms: C_1  and  C_2
REMARK    2  A    between atoms: C_2  and  N_3
REMARK    3  A    between atoms: C_7  and  C_8
REMARK    4  A    between atoms: C_9  and  N_10
REMARK    5  A    between atoms: N_10  and  S_11
REMARK    6  A    between atoms: S_11  and  C_12
REMARK    7  A    between atoms: C_15  and  C_16
REMARK    8  A    between atoms: C_17  and  N_18
REMARK    9  A    between atoms: C_19  and  C_21
REMARK   10  A    between atoms: C_21  and  C_22
REMARK   11  A    between atoms: C_21  and  C_23
REMARK   12  A    between atoms: C_21  and  C_24
REMARK                            x       y       z     vdW  Elec       q    Type
REMARK                         _______ _______ _______ _____ _____    ______ ____
ROOT
ATOM      1  N   UNL     1      -5.488  12.494  18.701  0.00  0.00    +0.000 N 
ATOM      2  C   UNL     1      -5.396  11.842  17.384  0.00  0.00    +0.000 C 
ATOM      3  C   UNL     1      -4.113  11.019  17.346  0.00  0.00    +0.000 C 
ATOM      4  C   UNL     1      -3.368  11.564  18.520  0.00  0.00    +0.000 A 
ATOM      5  C   UNL     1      -2.044  11.290  18.867  0.00  0.00    +0.000 A 
ATOM      6  C   UNL     1      -1.184  10.447  17.970  0.00  0.00    +0.000 C 
ATOM      7  C   UNL     1      -1.555  11.836  20.067  0.00  0.00    +0.000 A 
ATOM      8  C   UNL     1      -2.408  12.597  20.927  0.00  0.00    +0.000 A 
ATOM      9  C   UNL     1      -1.867  13.188  22.207  0.00  0.00    +0.000 C 
ATOM     10  C   UNL     1      -3.767  12.836  20.542  0.00  0.00    +0.000 A 
ATOM     11  C   UNL     1      -4.234  12.336  19.314  0.00  0.00    +0.000 A 
ENDROOT
BRANCH  10  12
ATOM     12  N   UNL     1      -4.634  13.702  21.266  0.00  0.00    +0.000 N 
ATOM     13  C   UNL     1      -5.302  13.371  22.432  0.00  0.00    +0.000 C 
ATOM     14  O   UNL     1      -5.276  12.248  22.936  0.00  0.00    +0.000 OA
ATOM     15  H   UNL     1      -5.058  14.410  20.685  0.00  0.00    +0.000 HD
BRANCH  13  16
ATOM     16  C   UNL     1      -6.233  14.468  23.023  0.00  0.00    +0.000 C 
ATOM     17  C   UNL     1      -5.407  15.446  23.873  0.00  0.00    +0.000 C 
ATOM     18  C   UNL     1      -6.851  15.255  21.848  0.00  0.00    +0.000 C 
ATOM     19  C   UNL     1      -7.383  13.910  23.875  0.00  0.00    +0.000 C 
ENDBRANCH  13  16
ENDBRANCH  10  12
BRANCH   1  21
ATOM     20  C   UNL     1      -7.155  11.170  19.994  0.00  0.00    +0.000 C 
ATOM     21  C   UNL     1      -6.788  12.499  19.361  0.00  0.00    +0.000 C 
ENDBRANCH   1  21
BRANCH   7  22
ATOM     22  N   UNL     1      -0.150  11.631  20.363  0.00  0.00    +0.000 N 
ATOM     23  H   UNL     1       0.018  11.328  21.325  0.00  0.00    +0.000 HD
BRANCH  22  24
ATOM     24  S   UNL     1       0.918  12.902  19.994  0.00  0.00    +0.000 S 
ATOM     25  C   UNL     1       1.952  12.188  18.728  0.00  0.00    +0.000 C 
ATOM     26  O   UNL     1       0.202  14.015  19.413  0.00  0.00    +0.000 OA
ATOM     27  O   UNL     1       1.752  13.071  21.172  0.00  0.00    +0.000 OA
ENDBRANCH  22  24
ENDBRANCH   7  22
TORSDOF 5
ENDMDL
MODEL 7
REMARK VINA RESULT:      -5.7      1.088      1.430
REMARK  Name = 
REMARK  12 active torsions:
REMARK  status: ('A' for Active; 'I' for Inactive)
REMARK    1  A    between atoms: C_1  and  C_2
REMARK    2  A    between atoms: C_2  and  N_3
REMARK    3  A    between atoms: C_7  and  C_8
REMARK    4  A    between atoms: C_9  and  N_10
REMARK    5  A    between atoms: N_10  and  S_11
REMARK    6  A    between atoms: S_11  and  C_12
REMARK    7  A    between atoms: C_15  and  C_16
REMARK    8  A    between atoms: C_17  and  N_18
REMARK    9  A    between atoms: C_19  and  C_21
REMARK   10  A    between atoms: C_21  and  C_22
REMARK   11  A    between atoms: C_21  and  C_23
REMARK   12  A    between atoms: C_21  and  C_24
REMARK                            x       y       z     vdW  Elec       q    Type
REMARK                         _______ _______ _______ _____ _____    ______ ____
ROOT
ATOM      1  N   UNL     1      -4.486  12.005  17.872  0.00  0.00    +0.000 N 
ATOM      2  C   UNL     1      -4.389  11.194  16.647  0.00  0.00    +0.000 C 
ATOM      3  C   UNL     1      -3.234  10.213  16.814  0.00  0.00    +0.000 C 
ATOM      4  C   UNL     1      -2.508  10.794  17.983  0.00  0.00    +0.000 A 
ATOM      5  C   UNL     1      -1.265  10.394  18.474  0.00  0.00    +0.000 A 
ATOM      6  C   UNL     1      -0.467   9.346  17.754  0.00  0.00    +0.000 C 
ATOM      7  C   UNL     1      -0.794  11.011  19.647  0.00  0.00    +0.000 A 
ATOM      8  C   UNL     1      -1.594  11.974  20.340  0.00  0.00    +0.000 A 
ATOM      9  C   UNL     1      -1.072  12.639  21.591  0.00  0.00    +0.000 C 
ATOM     10  C   UNL     1      -2.875  12.339  19.811  0.00  0.00    +0.000 A 
ATOM     11  C   UNL     1      -3.315  11.761  18.608  0.00  0.00    +0.000 A 
ENDROOT
BRANCH  10  12
ATOM     12  N   UNL     1      -3.664  13.390  20.357  0.00  0.00    +0.000 N 
ATOM     13  C   UNL     1      -4.529  13.265  21.431  0.00  0.00    +0.000 C 
ATOM     14  O   UNL     1      -4.768  12.195  21.991  0.00  0.00    +0.000 OA
ATOM     15  H   UNL     1      -3.876  14.113  19.685  0.00  0.00    +0.000 HD
BRANCH  13  16
ATOM     16  C   UNL     1      -5.323  14.545  21.824  0.00  0.00    +0.000 C 
ATOM     17  C   UNL     1      -6.814  14.204  21.969  0.00  0.00    +0.000 C 
ATOM     18  C   UNL     1      -4.803  15.028  23.193  0.00  0.00    +0.000 C 
ATOM     19  C   UNL     1      -5.167  15.700  20.824  0.00  0.00    +0.000 C 
ENDBRANCH  13  16
ENDBRANCH  10  12
BRANCH   1  21
ATOM     20  C   UNL     1      -6.734  11.049  18.358  0.00  0.00    +0.000 C 
ATOM     21  C   UNL     1      -5.818  12.258  18.410  0.00  0.00    +0.000 C 
ENDBRANCH   1  21
BRANCH   7  22
ATOM     22  N   UNL     1       0.543  10.663  20.088  0.00  0.00    +0.000 N 
ATOM     23  H   UNL     1       1.176  10.443  19.316  0.00  0.00    +0.000 HD
BRANCH  22  24
ATOM     24  S   UNL     1       0.684   9.452  21.273  0.00  0.00    +0.000 S 
ATOM     25  C   UNL     1       1.673   8.214  20.453  0.00  0.00    +0.000 C 
ATOM     26  O   UNL     1       1.430   9.939  22.411  0.00  0.00    +0.000 OA
ATOM     27  O   UNL     1      -0.648   8.893  21.426  0.00  0.00    +0.000 OA
ENDBRANCH  22  24
ENDBRANCH   7  22
TORSDOF 5
ENDMDL
MODEL 8
REMARK VINA RESULT:      -5.6      2.268      2.684
REMARK  Name = 
REMARK  12 active torsions:
REMARK  status: ('A' for Active; 'I' for Inactive)
REMARK    1  A    between atoms: C_1  and  C_2
REMARK    2  A    between atoms: C_2  and  N_3
REMARK    3  A    between atoms: C_7  and  C_8
REMARK    4  A    between atoms: C_9  and  N_10
REMARK    5  A    between atoms: N_10  and  S_11
REMARK    6  A    between atoms: S_11  and  C_12
REMARK    7  A    between atoms: C_15  and  C_16
REMARK    8  A    between atoms: C_17  and  N_18
REMARK    9  A    between atoms: C_19  and  C_21
REMARK   10  A    between atoms: C_21  and  C_22
REMARK   11  A    between atoms: C_21  and  C_23
REMARK   12  A    between atoms: C_21  and  C_24
REMARK                            x       y       z     vdW  Elec       q    Type
REMARK                         _______ _______ _______ _____ _____    ______ ____
ROOT
ATOM      1  N   UNL     1      -5.362  12.351  18.680  0.00  0.00    +0.000 N 
ATOM      2  C   UNL     1      -5.418  11.650  17.387  0.00  0.00    +0.000 C 
ATOM      3  C   UNL     1      -4.176  10.773  17.264  0.00  0.00    +0.000 C 
ATOM      4  C   UNL     1      -3.305  11.329  18.342  0.00  0.00    +0.000 A 
ATOM      5  C   UNL     1      -1.966  11.012  18.577  0.00  0.00    +0.000 A 
ATOM      6  C   UNL     1      -1.226  10.103  17.638  0.00  0.00    +0.000 C 
ATOM      7  C   UNL     1      -1.347  11.580  19.705  0.00  0.00    +0.000 A 
ATOM      8  C   UNL     1      -2.086  12.406  20.609  0.00  0.00    +0.000 A 
ATOM      9  C   UNL     1      -1.406  13.019  21.810  0.00  0.00    +0.000 C 
ATOM     10  C   UNL     1      -3.465  12.686  20.341  0.00  0.00    +0.000 A 
ATOM     11  C   UNL     1      -4.063  12.164  19.181  0.00  0.00    +0.000 A 
ENDROOT
BRANCH  10  12
ATOM     12  N   UNL     1      -4.228  13.613  21.107  0.00  0.00    +0.000 N 
ATOM     13  C   UNL     1      -4.868  13.327  22.300  0.00  0.00    +0.000 C 
ATOM     14  O   UNL     1      -4.909  12.201  22.797  0.00  0.00    +0.000 OA
ATOM     15  H   UNL     1      -4.618  14.357  20.549  0.00  0.00    +0.000 HD
BRANCH  13  16
ATOM     16  C   UNL     1      -5.682  14.490  22.937  0.00  0.00    +0.000 C 
ATOM     17  C   UNL     1      -6.843  13.917  23.764  0.00  0.00    +0.000 C 
ATOM     18  C   UNL     1      -4.746  15.261  23.891  0.00  0.00    +0.000 C 
ATOM     19  C   UNL     1      -6.240  15.488  21.912  0.00  0.00    +0.000 C 
ENDBRANCH  13  16
ENDBRANCH  10  12
BRANCH   1  21
ATOM     20  C   UNL     1      -6.985  11.126  20.117  0.00  0.00    +0.000 C 
ATOM     21  C   UNL     1      -6.594  12.434  19.456  0.00  0.00    +0.000 C 
ENDBRANCH   1  21
BRANCH   7  22
ATOM     22  N   UNL     1       0.071  11.327  19.879  0.00  0.00    +0.000 N 
ATOM     23  H   UNL     1       0.347  11.244  20.860  0.00  0.00    +0.000 HD
BRANCH  22  24
ATOM     24  S   UNL     1       1.153  12.378  19.092  0.00  0.00    +0.000 S 
ATOM     25  C   UNL     1       1.996  13.163  20.454  0.00  0.00    +0.000 C 
ATOM     26  O   UNL     1       2.128  11.627  18.333  0.00  0.00    +0.000 OA
ATOM     27  O   UNL     1       0.328  13.396  18.464  0.00  0.00    +0.000 OA
ENDBRANCH  22  24
ENDBRANCH   7  22
TORSDOF 5
ENDMDL
MODEL 9
REMARK VINA RESULT:      -5.6      2.344      2.817
REMARK  Name = 
REMARK  12 active torsions:
REMARK  status: ('A' for Active; 'I' for Inactive)
REMARK    1  A    between atoms: C_1  and  C_2
REMARK    2  A    between atoms: C_2  and  N_3
REMARK    3  A    between atoms: C_7  and  C_8
REMARK    4  A    between atoms: C_9  and  N_10
REMARK    5  A    between atoms: N_10  and  S_11
REMARK    6  A    between atoms: S_11  and  C_12
REMARK    7  A    between atoms: C_15  and  C_16
REMARK    8  A    between atoms: C_17  and  N_18
REMARK    9  A    between atoms: C_19  and  C_21
REMARK   10  A    between atoms: C_21  and  C_22
REMARK   11  A    between atoms: C_21  and  C_23
REMARK   12  A    between atoms: C_21  and  C_24
REMARK                            x       y       z     vdW  Elec       q    Type
REMARK                         _______ _______ _______ _____ _____    ______ ____
ROOT
ATOM      1  N   UNL     1      -5.905  12.404  18.761  0.00  0.00    +0.000 N 
ATOM      2  C   UNL     1      -5.888  11.729  17.452  0.00  0.00    +0.000 C 
ATOM      3  C   UNL     1      -4.588  10.941  17.338  0.00  0.00    +0.000 C 
ATOM      4  C   UNL     1      -3.777  11.530  18.445  0.00  0.00    +0.000 A 
ATOM      5  C   UNL     1      -2.425  11.300  18.701  0.00  0.00    +0.000 A 
ATOM      6  C   UNL     1      -1.606  10.464  17.760  0.00  0.00    +0.000 C 
ATOM      7  C   UNL     1      -1.868  11.883  19.854  0.00  0.00    +0.000 A 
ATOM      8  C   UNL     1      -2.679  12.637  20.758  0.00  0.00    +0.000 A 
ATOM      9  C   UNL     1      -2.066  13.268  21.986  0.00  0.00    +0.000 C 
ATOM     10  C   UNL     1      -4.069  12.830  20.467  0.00  0.00    +0.000 A 
ATOM     11  C   UNL     1      -4.607  12.294  19.285  0.00  0.00    +0.000 A 
ENDROOT
BRANCH  10  12
ATOM     12  N   UNL     1      -4.907  13.685  21.237  0.00  0.00    +0.000 N 
ATOM     13  C   UNL     1      -5.471  13.364  22.459  0.00  0.00    +0.000 C 
ATOM     14  O   UNL     1      -5.366  12.256  22.985  0.00  0.00    +0.000 OA
ATOM     15  H   UNL     1      -5.399  14.363  20.674  0.00  0.00    +0.000 HD
BRANCH  13  16
ATOM     16  C   UNL     1      -6.392  14.445  23.094  0.00  0.00    +0.000 C 
ATOM     17  C   UNL     1      -5.535  15.490  23.825  0.00  0.00    +0.000 C 
ATOM     18  C   UNL     1      -7.151  15.155  21.955  0.00  0.00    +0.000 C 
ATOM     19  C   UNL     1      -7.430  13.875  24.072  0.00  0.00    +0.000 C 
ENDBRANCH  13  16
ENDBRANCH  10  12
BRANCH   1  21
ATOM     20  C   UNL     1      -7.410  11.078  20.238  0.00  0.00    +0.000 C 
ATOM     21  C   UNL     1      -7.155  12.386  19.512  0.00  0.00    +0.000 C 
ENDBRANCH   1  21
BRANCH   7  22
ATOM     22  N   UNL     1      -0.439  11.723  20.052  0.00  0.00    +0.000 N 
ATOM     23  H   UNL     1      -0.175  11.658  21.037  0.00  0.00    +0.000 HD
BRANCH  22  24
ATOM     24  S   UNL     1       0.585  12.842  19.283  0.00  0.00    +0.000 S 
ATOM     25  C   UNL     1       1.314  13.714  20.658  0.00  0.00    +0.000 C 
ATOM     26  O   UNL     1       1.643  12.158  18.574  0.00  0.00    +0.000 OA
ATOM     27  O   UNL     1      -0.293  13.781  18.607  0.00  0.00    +0.000 OA
ENDBRANCH  22  24
ENDBRANCH   7  22
TORSDOF 5
ENDMDL
