MODEL 1
REMARK VINA RESULT:      -6.7      0.000      0.000
REMARK  Name = 
REMARK  10 active torsions:
REMARK  status: ('A' for Active; 'I' for Inactive)
REMARK    1  A    between atoms: C_1  and  C_2
REMARK    2  A    between atoms: C_2  and  O_3
REMARK    3  A    between atoms: O_3  and  C_4
REMARK    4  A    between atoms: N_6  and  C_7
REMARK    5  A    between atoms: C_14  and  O_16
REMARK    6  A    between atoms: O_16  and  C_17
REMARK    7  A    between atoms: C_17  and  C_18
REMARK    8  A    between atoms: C_18  and  N_19
REMARK    9  A    between atoms: N_19  and  C_20
REMARK   10  A    between atoms: N_19  and  C_21
REMARK                            x       y       z     vdW  Elec       q    Type
REMARK                         _______ _______ _______ _____ _____    ______ ____
ROOT
ATOM      1  C   UNL     1      -3.520  11.562  17.459  0.00  0.00    +0.000 A 
ATOM      2  C   UNL     1      -3.041  10.474  16.708  0.00  0.00    +0.000 A 
ATOM      3  C   UNL     1      -1.822   9.890  17.003  0.00  0.00    +0.000 A 
ATOM      4  C   UNL     1      -1.025  10.346  18.057  0.00  0.00    +0.000 A 
ATOM      5  C   UNL     1      -1.474  11.460  18.827  0.00  0.00    +0.000 A 
ATOM      6  C   UNL     1      -2.711  12.060  18.492  0.00  0.00    +0.000 A 
ATOM      7  N   UNL     1      -0.778  11.942  19.984  0.00  0.00    +0.000 N 
ATOM      8  C   UNL     1      -0.582  13.281  20.191  0.00  0.00    +0.000 C 
ATOM      9  O   UNL     1       0.025  13.672  21.179  0.00  0.00    +0.000 OA
ATOM     10  C   UNL     1      -0.337  10.995  20.956  0.00  0.00    +0.000 A 
ATOM     11  C   UNL     1      -0.894  11.008  22.245  0.00  0.00    +0.000 A 
ATOM     12  C   UNL     1      -0.495  10.064  23.194  0.00  0.00    +0.000 A 
ATOM     13  C   UNL     1       0.480   9.118  22.871  0.00  0.00    +0.000 A 
ATOM     14  C   UNL     1       1.057   9.116  21.600  0.00  0.00    +0.000 A 
ATOM     15  C   UNL     1       0.643  10.047  20.634  0.00  0.00    +0.000 A 
ATOM     16  C   UNL     1       1.261  10.066  19.279  0.00  0.00    +0.000 C 
ATOM     17  C   UNL     1       0.272   9.585  18.229  0.00  0.00    +0.000 C 
ENDROOT
BRANCH   1  20
ATOM     18  C   UNL     1      -5.998  11.705  17.658  0.00  0.00    +0.000 C 
ATOM     19  O   UNL     1      -6.066  10.728  18.385  0.00  0.00    +0.000 OA
ATOM     20  N   UNL     1      -4.794  12.176  17.216  0.00  0.00    +0.000 N 
ATOM     21  H   UNL     1      -4.808  13.062  16.684  0.00  0.00    +0.000 HD
BRANCH  18  22
ATOM     22  O   UNL     1      -7.138  12.347  17.305  0.00  0.00    +0.000 OA
BRANCH  22  24
ATOM     23  C   UNL     1      -7.587  13.394  19.401  0.00  0.00    +0.000 C 
ATOM     24  C   UNL     1      -7.522  13.548  17.879  0.00  0.00    +0.000 C 
ENDBRANCH  22  24
ENDBRANCH  18  22
ENDBRANCH   1  20
BRANCH   8  25
ATOM     25  O   UNL     1      -0.930  14.172  19.230  0.00  0.00    +0.000 OA
BRANCH  25  26
ATOM     26  C   UNL     1      -0.088  15.189  18.821  0.00  0.00    +0.000 C 
BRANCH  26  27
ATOM     27  C   UNL     1      -0.628  16.551  19.308  0.00  0.00    +0.000 C 
BRANCH  27  28
ATOM     28  N   UNL     1      -1.110  17.403  18.195  0.00  0.00    +0.000 NA
ATOM     29  C   UNL     1      -2.022  18.465  18.655  0.00  0.00    +0.000 C 
ATOM     30  C   UNL     1       0.032  18.015  17.495  0.00  0.00    +0.000 C 
ENDBRANCH  27  28
ENDBRANCH  26  27
ENDBRANCH  25  26
ENDBRANCH   8  25
TORSDOF 7
ENDMDL
MODEL 2
REMARK VINA RESULT:      -6.7      0.800      1.040
REMARK  Name = 
REMARK  10 active torsions:
REMARK  status: ('A' for Active; 'I' for Inactive)
REMARK    1  A    between atoms: C_1  and  C_2
REMARK    2  A    between atoms: C_2  and  O_3
REMARK    3  A    between atoms: O_3  and  C_4
REMARK    4  A    between atoms: N_6  and  C_7
REMARK    5  A    between atoms: C_14  and  O_16
REMARK    6  A    between atoms: O_16  and  C_17
REMARK    7  A    between atoms: C_17  and  C_18
REMARK    8  A    between atoms: C_18  and  N_19
REMARK    9  A    between atoms: N_19  and  C_20
REMARK   10  A    between atoms: N_19  and  C_21
REMARK                            x       y       z     vdW  Elec       q    Type
REMARK                         _______ _______ _______ _____ _____    ______ ____
ROOT
ATOM      1  C   UNL     1      -3.669  11.549  17.678  0.00  0.00    +0.000 A 
ATOM      2  C   UNL     1      -3.182  10.520  16.854  0.00  0.00    +0.000 A 
ATOM      3  C   UNL     1      -1.932   9.968  17.070  0.00  0.00    +0.000 A 
ATOM      4  C   UNL     1      -1.109  10.401  18.114  0.00  0.00    +0.000 A 
ATOM      5  C   UNL     1      -1.566  11.456  18.958  0.00  0.00    +0.000 A 
ATOM      6  C   UNL     1      -2.837  12.025  18.703  0.00  0.00    +0.000 A 
ATOM      7  N   UNL     1      -0.841  11.905  20.110  0.00  0.00    +0.000 N 
ATOM      8  C   UNL     1      -0.685  13.238  20.379  0.00  0.00    +0.000 C 
ATOM      9  O   UNL     1      -0.052  13.602  21.361  0.00  0.00    +0.000 OA
ATOM     10  C   UNL     1      -0.327  10.928  21.013  0.00  0.00    +0.000 A 
ATOM     11  C   UNL     1      -0.831  10.854  22.323  0.00  0.00    +0.000 A 
ATOM     12  C   UNL     1      -0.359   9.879  23.205  0.00  0.00    +0.000 A 
ATOM     13  C   UNL     1       0.635   8.989  22.795  0.00  0.00    +0.000 A 
ATOM     14  C   UNL     1       1.159   9.073  21.504  0.00  0.00    +0.000 A 
ATOM     15  C   UNL     1       0.672  10.034  20.605  0.00  0.00    +0.000 A 
ATOM     16  C   UNL     1       1.233  10.146  19.229  0.00  0.00    +0.000 C 
ATOM     17  C   UNL     1       0.220   9.681  18.195  0.00  0.00    +0.000 C 
ENDROOT
BRANCH   1  20
ATOM     18  C   UNL     1      -6.148  11.551  17.913  0.00  0.00    +0.000 C 
ATOM     19  O   UNL     1      -6.161  10.495  18.524  0.00  0.00    +0.000 OA
ATOM     20  N   UNL     1      -4.973  12.125  17.518  0.00  0.00    +0.000 N 
ATOM     21  H   UNL     1      -5.036  13.065  17.090  0.00  0.00    +0.000 HD
BRANCH  18  22
ATOM     22  O   UNL     1      -7.321  12.175  17.645  0.00  0.00    +0.000 OA
BRANCH  22  24
ATOM     23  C   UNL     1      -7.633  13.598  19.533  0.00  0.00    +0.000 C 
ATOM     24  C   UNL     1      -7.563  13.489  18.008  0.00  0.00    +0.000 C 
ENDBRANCH  22  24
ENDBRANCH  18  22
ENDBRANCH   1  20
BRANCH   8  25
ATOM     25  O   UNL     1      -1.104  14.163  19.479  0.00  0.00    +0.000 OA
BRANCH  25  26
ATOM     26  C   UNL     1      -0.224  14.956  18.767  0.00  0.00    +0.000 C 
BRANCH  26  27
ATOM     27  C   UNL     1      -0.525  16.448  19.031  0.00  0.00    +0.000 C 
BRANCH  27  28
ATOM     28  N   UNL     1       0.476  17.080  19.923  0.00  0.00    +0.000 NA
ATOM     29  C   UNL     1       0.009  17.169  21.317  0.00  0.00    +0.000 C 
ATOM     30  C   UNL     1       1.739  16.324  19.883  0.00  0.00    +0.000 C 
ENDBRANCH  27  28
ENDBRANCH  26  27
ENDBRANCH  25  26
ENDBRANCH   8  25
TORSDOF 7
ENDMDL
MODEL 3
REMARK VINA RESULT:      -6.5      3.126      6.564
REMARK  Name = 
REMARK  10 active torsions:
REMARK  status: ('A' for Active; 'I' for Inactive)
REMARK    1  A    between atoms: C_1  and  C_2
REMARK    2  A    between atoms: C_2  and  O_3
REMARK    3  A    between atoms: O_3  and  C_4
REMARK    4  A    between atoms: N_6  and  C_7
REMARK    5  A    between atoms: C_14  and  O_16
REMARK    6  A    between atoms: O_16  and  C_17
REMARK    7  A    between atoms: C_17  and  C_18
REMARK    8  A    between atoms: C_18  and  N_19
REMARK    9  A    between atoms: N_19  and  C_20
REMARK   10  A    between atoms: N_19  and  C_21
REMARK                            x       y       z     vdW  Elec       q    Type
REMARK                         _______ _______ _______ _____ _____    ______ ____
ROOT
ATOM      1  C   UNL     1       0.653   8.965  21.551  0.00  0.00    +0.000 A 
ATOM      2  C   UNL     1       0.209   9.137  22.874  0.00  0.00    +0.000 A 
ATOM      3  C   UNL     1      -0.608  10.200  23.217  0.00  0.00    +0.000 A 
ATOM      4  C   UNL     1      -1.030  11.136  22.269  0.00  0.00    +0.000 A 
ATOM      5  C   UNL     1      -0.583  11.001  20.922  0.00  0.00    +0.000 A 
ATOM      6  C   UNL     1       0.273   9.922  20.597  0.00  0.00    +0.000 A 
ATOM      7  N   UNL     1      -1.035  11.851  19.859  0.00  0.00    +0.000 N 
ATOM      8  C   UNL     1      -0.163  12.364  18.937  0.00  0.00    +0.000 C 
ATOM      9  O   UNL     1      -0.566  13.098  18.045  0.00  0.00    +0.000 OA
ATOM     10  C   UNL     1      -2.433  12.110  19.743  0.00  0.00    +0.000 A 
ATOM     11  C   UNL     1      -3.139  11.641  18.623  0.00  0.00    +0.000 A 
ATOM     12  C   UNL     1      -4.515  11.859  18.516  0.00  0.00    +0.000 A 
ATOM     13  C   UNL     1      -5.189  12.568  19.512  0.00  0.00    +0.000 A 
ATOM     14  C   UNL     1      -4.489  13.060  20.615  0.00  0.00    +0.000 A 
ATOM     15  C   UNL     1      -3.112  12.823  20.740  0.00  0.00    +0.000 A 
ATOM     16  C   UNL     1      -2.349  13.355  21.904  0.00  0.00    +0.000 C 
ATOM     17  C   UNL     1      -1.918  12.227  22.828  0.00  0.00    +0.000 C 
ENDROOT
BRANCH   1  20
ATOM     18  C   UNL     1       1.971   7.667  19.884  0.00  0.00    +0.000 C 
ATOM     19  O   UNL     1       1.818   8.503  19.008  0.00  0.00    +0.000 OA
ATOM     20  N   UNL     1       1.467   7.858  21.140  0.00  0.00    +0.000 N 
ATOM     21  H   UNL     1       1.719   7.154  21.854  0.00  0.00    +0.000 HD
BRANCH  18  22
ATOM     22  O   UNL     1       2.677   6.543  19.611  0.00  0.00    +0.000 OA
BRANCH  22  24
ATOM     23  C   UNL     1       2.169   4.814  18.048  0.00  0.00    +0.000 C 
ATOM     24  C   UNL     1       2.924   6.119  18.316  0.00  0.00    +0.000 C 
ENDBRANCH  22  24
ENDBRANCH  18  22
ENDBRANCH   1  20
BRANCH   8  25
ATOM     25  O   UNL     1       1.173  12.183  19.095  0.00  0.00    +0.000 OA
BRANCH  25  26
ATOM     26  C   UNL     1       2.017  13.202  19.495  0.00  0.00    +0.000 C 
BRANCH  26  27
ATOM     27  C   UNL     1       3.044  13.504  18.383  0.00  0.00    +0.000 C 
BRANCH  27  28
ATOM     28  N   UNL     1       2.959  14.902  17.895  0.00  0.00    +0.000 NA
ATOM     29  C   UNL     1       2.031  15.720  18.695  0.00  0.00    +0.000 C 
ATOM     30  C   UNL     1       4.293  15.526  17.914  0.00  0.00    +0.000 C 
ENDBRANCH  27  28
ENDBRANCH  26  27
ENDBRANCH  25  26
ENDBRANCH   8  25
TORSDOF 7
ENDMDL
MODEL 4
REMARK VINA RESULT:      -6.5      1.379      1.756
REMARK  Name = 
REMARK  10 active torsions:
REMARK  status: ('A' for Active; 'I' for Inactive)
REMARK    1  A    between atoms: C_1  and  C_2
REMARK    2  A    between atoms: C_2  and  O_3
REMARK    3  A    between atoms: O_3  and  C_4
REMARK    4  A    between atoms: N_6  and  C_7
REMARK    5  A    between atoms: C_14  and  O_16
REMARK    6  A    between atoms: O_16  and  C_17
REMARK    7  A    between atoms: C_17  and  C_18
REMARK    8  A    between atoms: C_18  and  N_19
REMARK    9  A    between atoms: N_19  and  C_20
REMARK   10  A    between atoms: N_19  and  C_21
REMARK                            x       y       z     vdW  Elec       q    Type
REMARK                         _______ _______ _______ _____ _____    ______ ____
ROOT
ATOM      1  C   UNL     1      -3.733  11.543  17.831  0.00  0.00    +0.000 A 
ATOM      2  C   UNL     1      -3.285  10.536  16.959  0.00  0.00    +0.000 A 
ATOM      3  C   UNL     1      -2.032   9.969  17.112  0.00  0.00    +0.000 A 
ATOM      4  C   UNL     1      -1.168  10.364  18.137  0.00  0.00    +0.000 A 
ATOM      5  C   UNL     1      -1.585  11.396  19.029  0.00  0.00    +0.000 A 
ATOM      6  C   UNL     1      -2.860  11.981  18.839  0.00  0.00    +0.000 A 
ATOM      7  N   UNL     1      -0.815  11.804  20.167  0.00  0.00    +0.000 N 
ATOM      8  C   UNL     1      -0.639  13.127  20.471  0.00  0.00    +0.000 C 
ATOM      9  O   UNL     1       0.033  13.457  21.439  0.00  0.00    +0.000 OA
ATOM     10  C   UNL     1      -0.276  10.796  21.021  0.00  0.00    +0.000 A 
ATOM     11  C   UNL     1      -0.732  10.686  22.345  0.00  0.00    +0.000 A 
ATOM     12  C   UNL     1      -0.237   9.681  23.179  0.00  0.00    +0.000 A 
ATOM     13  C   UNL     1       0.735   8.797  22.706  0.00  0.00    +0.000 A 
ATOM     14  C   UNL     1       1.212   8.917  21.399  0.00  0.00    +0.000 A 
ATOM     15  C   UNL     1       0.700   9.909  20.549  0.00  0.00    +0.000 A 
ATOM     16  C   UNL     1       1.211  10.059  19.157  0.00  0.00    +0.000 C 
ATOM     17  C   UNL     1       0.157   9.633  18.147  0.00  0.00    +0.000 C 
ENDROOT
BRANCH   1  20
ATOM     18  C   UNL     1      -6.192  11.586  18.221  0.00  0.00    +0.000 C 
ATOM     19  O   UNL     1      -6.179  10.548  18.862  0.00  0.00    +0.000 OA
ATOM     20  N   UNL     1      -5.037  12.133  17.736  0.00  0.00    +0.000 N 
ATOM     21  H   UNL     1      -5.115  13.061  17.287  0.00  0.00    +0.000 HD
BRANCH  18  22
ATOM     22  O   UNL     1      -7.372  12.219  18.009  0.00  0.00    +0.000 OA
BRANCH  22  24
ATOM     23  C   UNL     1      -7.842  14.543  17.756  0.00  0.00    +0.000 C 
ATOM     24  C   UNL     1      -7.743  13.352  18.712  0.00  0.00    +0.000 C 
ENDBRANCH  22  24
ENDBRANCH  18  22
ENDBRANCH   1  20
BRANCH   8  25
ATOM     25  O   UNL     1      -1.083  14.083  19.616  0.00  0.00    +0.000 OA
BRANCH  25  26
ATOM     26  C   UNL     1      -0.225  14.848  18.848  0.00  0.00    +0.000 C 
BRANCH  26  27
ATOM     27  C   UNL     1       1.070  14.059  18.558  0.00  0.00    +0.000 C 
BRANCH  27  28
ATOM     28  N   UNL     1       2.286  14.776  19.009  0.00  0.00    +0.000 NA
ATOM     29  C   UNL     1       3.259  14.971  17.920  0.00  0.00    +0.000 C 
ATOM     30  C   UNL     1       1.921  16.087  19.572  0.00  0.00    +0.000 C 
ENDBRANCH  27  28
ENDBRANCH  26  27
ENDBRANCH  25  26
ENDBRANCH   8  25
TORSDOF 7
ENDMDL
MODEL 5
REMARK VINA RESULT:      -6.5      3.031      6.523
REMARK  Name = 
REMARK  10 active torsions:
REMARK  status: ('A' for Active; 'I' for Inactive)
REMARK    1  A    between atoms: C_1  and  C_2
REMARK    2  A    between atoms: C_2  and  O_3
REMARK    3  A    between atoms: O_3  and  C_4
REMARK    4  A    between atoms: N_6  and  C_7
REMARK    5  A    between atoms: C_14  and  O_16
REMARK    6  A    between atoms: O_16  and  C_17
REMARK    7  A    between atoms: C_17  and  C_18
REMARK    8  A    between atoms: C_18  and  N_19
REMARK    9  A    between atoms: N_19  and  C_20
REMARK   10  A    between atoms: N_19  and  C_21
REMARK                            x       y       z     vdW  Elec       q    Type
REMARK                         _______ _______ _______ _____ _____    ______ ____
ROOT
ATOM      1  C   UNL     1       0.677   8.863  21.477  0.00  0.00    +0.000 A 
ATOM      2  C   UNL     1       0.256   9.057  22.804  0.00  0.00    +0.000 A 
ATOM      3  C   UNL     1      -0.532  10.141  23.148  0.00  0.00    +0.000 A 
ATOM      4  C   UNL     1      -0.948  11.077  22.198  0.00  0.00    +0.000 A 
ATOM      5  C   UNL     1      -0.524  10.920  20.845  0.00  0.00    +0.000 A 
ATOM      6  C   UNL     1       0.305   9.819  20.519  0.00  0.00    +0.000 A 
ATOM      7  N   UNL     1      -0.972  11.769  19.781  0.00  0.00    +0.000 N 
ATOM      8  C   UNL     1      -0.102  12.255  18.842  0.00  0.00    +0.000 C 
ATOM      9  O   UNL     1      -0.502  12.989  17.948  0.00  0.00    +0.000 OA
ATOM     10  C   UNL     1      -2.365  12.058  19.682  0.00  0.00    +0.000 A 
ATOM     11  C   UNL     1      -3.098  11.594  18.577  0.00  0.00    +0.000 A 
ATOM     12  C   UNL     1      -4.470  11.840  18.487  0.00  0.00    +0.000 A 
ATOM     13  C   UNL     1      -5.114  12.573  19.486  0.00  0.00    +0.000 A 
ATOM     14  C   UNL     1      -4.388  13.060  20.574  0.00  0.00    +0.000 A 
ATOM     15  C   UNL     1      -3.014  12.794  20.682  0.00  0.00    +0.000 A 
ATOM     16  C   UNL     1      -2.224  13.321  21.830  0.00  0.00    +0.000 C 
ATOM     17  C   UNL     1      -1.804  12.192  22.759  0.00  0.00    +0.000 C 
ENDROOT
BRANCH   1  20
ATOM     18  C   UNL     1       2.038   7.576  19.836  0.00  0.00    +0.000 C 
ATOM     19  O   UNL     1       1.984   8.457  18.994  0.00  0.00    +0.000 OA
ATOM     20  N   UNL     1       1.462   7.735  21.065  0.00  0.00    +0.000 N 
ATOM     21  H   UNL     1       1.630   6.987  21.758  0.00  0.00    +0.000 HD
BRANCH  18  22
ATOM     22  O   UNL     1       2.704   6.430  19.553  0.00  0.00    +0.000 OA
BRANCH  22  24
ATOM     23  C   UNL     1       2.024   4.799  17.951  0.00  0.00    +0.000 C 
ATOM     24  C   UNL     1       2.923   6.000  18.256  0.00  0.00    +0.000 C 
ENDBRANCH  22  24
ENDBRANCH  18  22
ENDBRANCH   1  20
BRANCH   8  25
ATOM     25  O   UNL     1       1.231  12.046  18.983  0.00  0.00    +0.000 OA
BRANCH  25  26
ATOM     26  C   UNL     1       2.166  13.033  18.735  0.00  0.00    +0.000 C 
BRANCH  26  27
ATOM     27  C   UNL     1       2.503  13.783  20.042  0.00  0.00    +0.000 C 
BRANCH  27  28
ATOM     28  N   UNL     1       2.056  15.196  20.018  0.00  0.00    +0.000 NA
ATOM     29  C   UNL     1       1.912  15.716  18.648  0.00  0.00    +0.000 C 
ATOM     30  C   UNL     1       0.772  15.333  20.726  0.00  0.00    +0.000 C 
ENDBRANCH  27  28
ENDBRANCH  26  27
ENDBRANCH  25  26
ENDBRANCH   8  25
TORSDOF 7
ENDMDL
MODEL 6
REMARK VINA RESULT:      -6.5      3.422      6.540
REMARK  Name = 
REMARK  10 active torsions:
REMARK  status: ('A' for Active; 'I' for Inactive)
REMARK    1  A    between atoms: C_1  and  C_2
REMARK    2  A    between atoms: C_2  and  O_3
REMARK    3  A    between atoms: O_3  and  C_4
REMARK    4  A    between atoms: N_6  and  C_7
REMARK    5  A    between atoms: C_14  and  O_16
REMARK    6  A    between atoms: O_16  and  C_17
REMARK    7  A    between atoms: C_17  and  C_18
REMARK    8  A    between atoms: C_18  and  N_19
REMARK    9  A    between atoms: N_19  and  C_20
REMARK   10  A    between atoms: N_19  and  C_21
REMARK                            x       y       z     vdW  Elec       q    Type
REMARK                         _______ _______ _______ _____ _____    ______ ____
ROOT
ATOM      1  C   UNL     1       1.295   8.736  20.521  0.00  0.00    +0.000 A 
ATOM      2  C   UNL     1       1.042   8.604  21.897  0.00  0.00    +0.000 A 
ATOM      3  C   UNL     1       0.273   9.536  22.572  0.00  0.00    +0.000 A 
ATOM      4  C   UNL     1      -0.288  10.636  21.917  0.00  0.00    +0.000 A 
ATOM      5  C   UNL     1      -0.036  10.810  20.524  0.00  0.00    +0.000 A 
ATOM      6  C   UNL     1       0.775   9.859  19.859  0.00  0.00    +0.000 A 
ATOM      7  N   UNL     1      -0.641  11.848  19.743  0.00  0.00    +0.000 N 
ATOM      8  C   UNL     1       0.086  12.581  18.845  0.00  0.00    +0.000 C 
ATOM      9  O   UNL     1      -0.446  13.472  18.197  0.00  0.00    +0.000 OA
ATOM     10  C   UNL     1      -2.044  12.071  19.879  0.00  0.00    +0.000 A 
ATOM     11  C   UNL     1      -2.899  11.825  18.792  0.00  0.00    +0.000 A 
ATOM     12  C   UNL     1      -4.277  12.007  18.924  0.00  0.00    +0.000 A 
ATOM     13  C   UNL     1      -4.809  12.459  20.133  0.00  0.00    +0.000 A 
ATOM     14  C   UNL     1      -3.963  12.732  21.210  0.00  0.00    +0.000 A 
ATOM     15  C   UNL     1      -2.580  12.528  21.091  0.00  0.00    +0.000 A 
ATOM     16  C   UNL     1      -1.664  12.828  22.227  0.00  0.00    +0.000 C 
ATOM     17  C   UNL     1      -1.097  11.546  22.816  0.00  0.00    +0.000 C 
ENDROOT
BRANCH   1  20
ATOM     18  C   UNL     1       2.081   6.430  20.006  0.00  0.00    +0.000 C 
ATOM     19  O   UNL     1       1.374   5.923  20.861  0.00  0.00    +0.000 OA
ATOM     20  N   UNL     1       2.052   7.776  19.771  0.00  0.00    +0.000 N 
ATOM     21  H   UNL     1       2.606   8.119  18.969  0.00  0.00    +0.000 HD
BRANCH  18  22
ATOM     22  O   UNL     1       2.890   5.638  19.261  0.00  0.00    +0.000 OA
BRANCH  22  24
ATOM     23  C   UNL     1       1.658   4.306  17.712  0.00  0.00    +0.000 C 
ATOM     24  C   UNL     1       2.564   4.330  18.947  0.00  0.00    +0.000 C 
ENDBRANCH  22  24
ENDBRANCH  18  22
ENDBRANCH   1  20
BRANCH   8  25
ATOM     25  O   UNL     1       1.432  12.423  18.775  0.00  0.00    +0.000 OA
BRANCH  25  26
ATOM     26  C   UNL     1       2.314  13.316  19.352  0.00  0.00    +0.000 C 
BRANCH  26  27
ATOM     27  C   UNL     1       2.962  14.198  18.262  0.00  0.00    +0.000 C 
BRANCH  27  28
ATOM     28  N   UNL     1       2.413  15.574  18.243  0.00  0.00    +0.000 NA
ATOM     29  C   UNL     1       1.838  15.968  19.541  0.00  0.00    +0.000 C 
ATOM     30  C   UNL     1       3.465  16.534  17.868  0.00  0.00    +0.000 C 
ENDBRANCH  27  28
ENDBRANCH  26  27
ENDBRANCH  25  26
ENDBRANCH   8  25
TORSDOF 7
ENDMDL
MODEL 7
REMARK VINA RESULT:      -6.4      2.102      6.101
REMARK  Name = 
REMARK  10 active torsions:
REMARK  status: ('A' for Active; 'I' for Inactive)
REMARK    1  A    between atoms: C_1  and  C_2
REMARK    2  A    between atoms: C_2  and  O_3
REMARK    3  A    between atoms: O_3  and  C_4
REMARK    4  A    between atoms: N_6  and  C_7
REMARK    5  A    between atoms: C_14  and  O_16
REMARK    6  A    between atoms: O_16  and  C_17
REMARK    7  A    between atoms: C_17  and  C_18
REMARK    8  A    between atoms: C_18  and  N_19
REMARK    9  A    between atoms: N_19  and  C_20
REMARK   10  A    between atoms: N_19  and  C_21
REMARK                            x       y       z     vdW  Elec       q    Type
REMARK                         _______ _______ _______ _____ _____    ______ ____
ROOT
ATOM      1  C   UNL     1       0.372  14.391  19.619  0.00  0.00    +0.000 A 
ATOM      2  C   UNL     1       0.614  14.320  21.002  0.00  0.00    +0.000 A 
ATOM      3  C   UNL     1       0.545  13.112  21.674  0.00  0.00    +0.000 A 
ATOM      4  C   UNL     1       0.242  11.919  21.012  0.00  0.00    +0.000 A 
ATOM      5  C   UNL     1      -0.026  11.959  19.611  0.00  0.00    +0.000 A 
ATOM      6  C   UNL     1       0.023  13.208  18.948  0.00  0.00    +0.000 A 
ATOM      7  N   UNL     1      -0.251  10.782  18.824  0.00  0.00    +0.000 N 
ATOM      8  C   UNL     1      -1.259  10.725  17.900  0.00  0.00    +0.000 C 
ATOM      9  O   UNL     1      -1.444   9.707  17.247  0.00  0.00    +0.000 OA
ATOM     10  C   UNL     1       0.638   9.678  18.982  0.00  0.00    +0.000 A 
ATOM     11  C   UNL     1       1.465   9.290  17.915  0.00  0.00    +0.000 A 
ATOM     12  C   UNL     1       2.365   8.233  18.069  0.00  0.00    +0.000 A 
ATOM     13  C   UNL     1       2.427   7.540  19.280  0.00  0.00    +0.000 A 
ATOM     14  C   UNL     1       1.590   7.903  20.336  0.00  0.00    +0.000 A 
ATOM     15  C   UNL     1       0.701   8.980  20.196  0.00  0.00    +0.000 A 
ATOM     16  C   UNL     1      -0.208   9.369  21.309  0.00  0.00    +0.000 C 
ATOM     17  C   UNL     1       0.213  10.701  21.909  0.00  0.00    +0.000 C 
ENDROOT
BRANCH   1  20
ATOM     18  C   UNL     1       1.634  16.212  18.484  0.00  0.00    +0.000 C 
ATOM     19  O   UNL     1       2.716  15.687  18.691  0.00  0.00    +0.000 OA
ATOM     20  N   UNL     1       0.470  15.611  18.873  0.00  0.00    +0.000 N 
ATOM     21  H   UNL     1      -0.410  16.068  18.578  0.00  0.00    +0.000 HD
BRANCH  18  22
ATOM     22  O   UNL     1       1.589  17.401  17.834  0.00  0.00    +0.000 OA
BRANCH  22  24
ATOM     23  C   UNL     1       0.128  18.629  16.404  0.00  0.00    +0.000 C 
ATOM     24  C   UNL     1       0.462  18.206  17.837  0.00  0.00    +0.000 C 
ENDBRANCH  22  24
ENDBRANCH  18  22
ENDBRANCH   1  20
BRANCH   8  25
ATOM     25  O   UNL     1      -2.152  11.743  17.809  0.00  0.00    +0.000 OA
BRANCH  25  26
ATOM     26  C   UNL     1      -3.381  11.710  18.439  0.00  0.00    +0.000 C 
BRANCH  26  27
ATOM     27  C   UNL     1      -4.514  11.723  17.390  0.00  0.00    +0.000 C 
BRANCH  27  28
ATOM     28  N   UNL     1      -5.804  12.189  17.951  0.00  0.00    +0.000 NA
ATOM     29  C   UNL     1      -6.547  13.049  17.013  0.00  0.00    +0.000 C 
ATOM     30  C   UNL     1      -6.643  11.035  18.317  0.00  0.00    +0.000 C 
ENDBRANCH  27  28
ENDBRANCH  26  27
ENDBRANCH  25  26
ENDBRANCH   8  25
TORSDOF 7
ENDMDL
MODEL 8
REMARK VINA RESULT:      -6.3      3.479      6.766
REMARK  Name = 
REMARK  10 active torsions:
REMARK  status: ('A' for Active; 'I' for Inactive)
REMARK    1  A    between atoms: C_1  and  C_2
REMARK    2  A    between atoms: C_2  and  O_3
REMARK    3  A    between atoms: O_3  and  C_4
REMARK    4  A    between atoms: N_6  and  C_7
REMARK    5  A    between atoms: C_14  and  O_16
REMARK    6  A    between atoms: O_16  and  C_17
REMARK    7  A    between atoms: C_17  and  C_18
REMARK    8  A    between atoms: C_18  and  N_19
REMARK    9  A    between atoms: N_19  and  C_20
REMARK   10  A    between atoms: N_19  and  C_21
REMARK                            x       y       z     vdW  Elec       q    Type
REMARK                         _______ _______ _______ _____ _____    ______ ____
ROOT
ATOM      1  C   UNL     1       1.350   8.690  20.339  0.00  0.00    +0.000 A 
ATOM      2  C   UNL     1       1.138   8.533  21.720  0.00  0.00    +0.000 A 
ATOM      3  C   UNL     1       0.397   9.458  22.435  0.00  0.00    +0.000 A 
ATOM      4  C   UNL     1      -0.176  10.573  21.818  0.00  0.00    +0.000 A 
ATOM      5  C   UNL     1       0.035  10.772  20.422  0.00  0.00    +0.000 A 
ATOM      6  C   UNL     1       0.819   9.829  19.714  0.00  0.00    +0.000 A 
ATOM      7  N   UNL     1      -0.586  11.829  19.679  0.00  0.00    +0.000 N 
ATOM      8  C   UNL     1       0.119  12.573  18.773  0.00  0.00    +0.000 C 
ATOM      9  O   UNL     1      -0.426  13.480  18.158  0.00  0.00    +0.000 OA
ATOM     10  C   UNL     1      -1.982  12.058  19.862  0.00  0.00    +0.000 A 
ATOM     11  C   UNL     1      -2.871  11.838  18.797  0.00  0.00    +0.000 A 
ATOM     12  C   UNL     1      -4.244  12.027  18.974  0.00  0.00    +0.000 A 
ATOM     13  C   UNL     1      -4.736  12.460  20.207  0.00  0.00    +0.000 A 
ATOM     14  C   UNL     1      -3.856  12.706  21.262  0.00  0.00    +0.000 A 
ATOM     15  C   UNL     1      -2.478  12.495  21.098  0.00  0.00    +0.000 A 
ATOM     16  C   UNL     1      -1.526  12.768  22.211  0.00  0.00    +0.000 C 
ATOM     17  C   UNL     1      -0.951  11.472  22.758  0.00  0.00    +0.000 C 
ENDROOT
BRANCH   1  20
ATOM     18  C   UNL     1       2.192   6.404  19.820  0.00  0.00    +0.000 C 
ATOM     19  O   UNL     1       1.592   5.896  20.754  0.00  0.00    +0.000 OA
ATOM     20  N   UNL     1       2.077   7.739  19.550  0.00  0.00    +0.000 N 
ATOM     21  H   UNL     1       2.536   8.079  18.688  0.00  0.00    +0.000 HD
BRANCH  18  22
ATOM     22  O   UNL     1       2.963   5.624  19.025  0.00  0.00    +0.000 OA
BRANCH  22  24
ATOM     23  C   UNL     1       4.160   3.610  19.472  0.00  0.00    +0.000 C 
ATOM     24  C   UNL     1       4.195   5.140  19.430  0.00  0.00    +0.000 C 
ENDBRANCH  22  24
ENDBRANCH  18  22
ENDBRANCH   1  20
BRANCH   8  25
ATOM     25  O   UNL     1       1.461  12.407  18.659  0.00  0.00    +0.000 OA
BRANCH  25  26
ATOM     26  C   UNL     1       2.338  13.474  18.606  0.00  0.00    +0.000 C 
BRANCH  26  27
ATOM     27  C   UNL     1       2.615  14.002  20.030  0.00  0.00    +0.000 C 
BRANCH  27  28
ATOM     28  N   UNL     1       2.148  15.396  20.222  0.00  0.00    +0.000 NA
ATOM     29  C   UNL     1       1.866  16.073  18.945  0.00  0.00    +0.000 C 
ATOM     30  C   UNL     1       0.936  15.413  21.058  0.00  0.00    +0.000 C 
ENDBRANCH  27  28
ENDBRANCH  26  27
ENDBRANCH  25  26
ENDBRANCH   8  25
TORSDOF 7
ENDMDL
MODEL 9
REMARK VINA RESULT:      -6.2      3.255      6.546
REMARK  Name = 
REMARK  10 active torsions:
REMARK  status: ('A' for Active; 'I' for Inactive)
REMARK    1  A    between atoms: C_1  and  C_2
REMARK    2  A    between atoms: C_2  and  O_3
REMARK    3  A    between atoms: O_3  and  C_4
REMARK    4  A    between atoms: N_6  and  C_7
REMARK    5  A    between atoms: C_14  and  O_16
REMARK    6  A    between atoms: O_16  and  C_17
REMARK    7  A    between atoms: C_17  and  C_18
REMARK    8  A    between atoms: C_18  and  N_19
REMARK    9  A    between atoms: N_19  and  C_20
REMARK   10  A    between atoms: N_19  and  C_21
REMARK                            x       y       z     vdW  Elec       q    Type
REMARK                         _______ _______ _______ _____ _____    ______ ____
ROOT
ATOM      1  C   UNL     1      -4.756  12.021  18.619  0.00  0.00    +0.000 A 
ATOM      2  C   UNL     1      -6.087  11.597  18.778  0.00  0.00    +0.000 A 
ATOM      3  C   UNL     1      -6.744  11.755  19.986  0.00  0.00    +0.000 A 
ATOM      4  C   UNL     1      -6.121  12.348  21.088  0.00  0.00    +0.000 A 
ATOM      5  C   UNL     1      -4.765  12.773  20.966  0.00  0.00    +0.000 A 
ATOM      6  C   UNL     1      -4.103  12.577  19.730  0.00  0.00    +0.000 A 
ATOM      7  N   UNL     1      -4.069  13.476  22.003  0.00  0.00    +0.000 N 
ATOM      8  C   UNL     1      -2.784  13.152  22.345  0.00  0.00    +0.000 C 
ATOM      9  O   UNL     1      -2.211  13.755  23.243  0.00  0.00    +0.000 OA
ATOM     10  C   UNL     1      -4.726  14.568  22.643  0.00  0.00    +0.000 A 
ATOM     11  C   UNL     1      -4.221  15.871  22.493  0.00  0.00    +0.000 A 
ATOM     12  C   UNL     1      -4.876  16.953  23.087  0.00  0.00    +0.000 A 
ATOM     13  C   UNL     1      -6.022  16.739  23.854  0.00  0.00    +0.000 A 
ATOM     14  C   UNL     1      -6.514  15.444  24.030  0.00  0.00    +0.000 A 
ATOM     15  C   UNL     1      -5.875  14.357  23.416  0.00  0.00    +0.000 A 
ATOM     16  C   UNL     1      -6.381  12.968  23.607  0.00  0.00    +0.000 C 
ATOM     17  C   UNL     1      -6.994  12.436  22.321  0.00  0.00    +0.000 C 
ENDROOT
BRANCH   1  20
ATOM     18  C   UNL     1      -3.338  10.823  16.960  0.00  0.00    +0.000 C 
ATOM     19  O   UNL     1      -3.322   9.792  17.612  0.00  0.00    +0.000 OA
ATOM     20  N   UNL     1      -4.048  11.914  17.377  0.00  0.00    +0.000 N 
ATOM     21  H   UNL     1      -4.092  12.716  16.726  0.00  0.00    +0.000 HD
BRANCH  18  22
ATOM     22  O   UNL     1      -2.660  10.875  15.788  0.00  0.00    +0.000 OA
BRANCH  22  24
ATOM     23  C   UNL     1      -3.775  10.056  13.844  0.00  0.00    +0.000 C 
ATOM     24  C   UNL     1      -2.668   9.831  14.878  0.00  0.00    +0.000 C 
ENDBRANCH  22  24
ENDBRANCH  18  22
ENDBRANCH   1  20
BRANCH   8  25
ATOM     25  O   UNL     1      -2.191  12.064  21.793  0.00  0.00    +0.000 OA
BRANCH  25  26
ATOM     26  C   UNL     1      -0.877  11.722  22.055  0.00  0.00    +0.000 C 
BRANCH  26  27
ATOM     27  C   UNL     1      -0.430  10.582  21.114  0.00  0.00    +0.000 C 
BRANCH  27  28
ATOM     28  N   UNL     1      -0.247   9.295  21.826  0.00  0.00    +0.000 NA
ATOM     29  C   UNL     1       0.921   8.543  21.335  0.00  0.00    +0.000 C 
ATOM     30  C   UNL     1      -0.096   9.534  23.271  0.00  0.00    +0.000 C 
ENDBRANCH  27  28
ENDBRANCH  26  27
ENDBRANCH  25  26
ENDBRANCH   8  25
TORSDOF 7
ENDMDL
