MODEL 1
REMARK VINA RESULT:      -8.1      0.000      0.000
REMARK  Name = 
REMARK  8 active torsions:
REMARK  status: ('A' for Active; 'I' for Inactive)
REMARK    1  A    between atoms: C_1  and  C_2
REMARK    2  A    between atoms: C_2  and  C_3
REMARK    3  A    between atoms: C_3  and  N_4
REMARK    4  A    between atoms: N_4  and  C_5
REMARK    5  A    between atoms: N_4  and  C_8
REMARK    6  A    between atoms: C_5  and  C_6
REMARK    7  A    between atoms: C_6  and  C_7
REMARK    8  A    between atoms: C_15  and  C_16
REMARK                            x       y       z     vdW  Elec       q    Type
REMARK                         _______ _______ _______ _____ _____    ______ ____
ROOT
ATOM      1  C   UNL     1       4.598   4.946  16.750  0.00  0.00    +0.000 C 
ATOM      2  C   UNL     1       4.089   3.492  16.828  0.00  0.00    +0.000 C 
ATOM      3  C   UNL     1       4.004   2.989  18.263  0.00  0.00    +0.000 C 
ATOM      4  C   UNL     1       3.258   3.929  19.182  0.00  0.00    +0.000 A 
ATOM      5  C   UNL     1       2.816   3.421  20.413  0.00  0.00    +0.000 A 
ATOM      6  C   UNL     1       2.111   4.225  21.292  0.00  0.00    +0.000 A 
ATOM      7  C   UNL     1       1.836   5.547  20.944  0.00  0.00    +0.000 A 
ATOM      8  C   UNL     1       2.273   6.124  19.728  0.00  0.00    +0.000 A 
ATOM      9  C   UNL     1       3.027   5.287  18.845  0.00  0.00    +0.000 A 
ATOM     10  C   UNL     1       3.531   5.792  17.500  0.00  0.00    +0.000 C 
ENDROOT
BRANCH   8  11
ATOM     11  C   UNL     1       1.917   7.556  19.455  0.00  0.00    +0.000 A 
ATOM     12  C   UNL     1       2.176   8.148  18.202  0.00  0.00    +0.000 A 
ATOM     13  C   UNL     1       1.842   9.483  17.929  0.00  0.00    +0.000 A 
ATOM     14  C   UNL     1       1.201  10.252  18.891  0.00  0.00    +0.000 A 
ATOM     15  C   UNL     1       0.942   9.705  20.138  0.00  0.00    +0.000 A 
ATOM     16  C   UNL     1       1.343   8.394  20.426  0.00  0.00    +0.000 A 
ENDBRANCH   8  11
BRANCH   1  17
ATOM     17  N   UNL     1       6.000   5.189  17.193  0.00  0.00    +0.000 NA
BRANCH  17  18
ATOM     18  C   UNL     1       6.297   6.628  17.427  0.00  0.00    +0.000 C 
BRANCH  18  20
ATOM     19  C   UNL     1       8.025   8.450  17.779  0.00  0.00    +0.000 C 
ATOM     20  C   UNL     1       7.705   6.970  17.954  0.00  0.00    +0.000 C 
ENDBRANCH  18  20
ENDBRANCH  17  18
BRANCH  17  21
ATOM     21  C   UNL     1       7.005   4.564  16.310  0.00  0.00    +0.000 C 
BRANCH  21  22
ATOM     22  C   UNL     1       6.931   5.004  14.840  0.00  0.00    +0.000 C 
ATOM     23  C   UNL     1       6.364   3.915  13.938  0.00  0.00    +0.000 C 
ENDBRANCH  21  22
ENDBRANCH  17  21
ENDBRANCH   1  17
TORSDOF 6
ENDMDL
MODEL 2
REMARK VINA RESULT:      -7.8      0.446      1.111
REMARK  Name = 
REMARK  8 active torsions:
REMARK  status: ('A' for Active; 'I' for Inactive)
REMARK    1  A    between atoms: C_1  and  C_2
REMARK    2  A    between atoms: C_2  and  C_3
REMARK    3  A    between atoms: C_3  and  N_4
REMARK    4  A    between atoms: N_4  and  C_5
REMARK    5  A    between atoms: N_4  and  C_8
REMARK    6  A    between atoms: C_5  and  C_6
REMARK    7  A    between atoms: C_6  and  C_7
REMARK    8  A    between atoms: C_15  and  C_16
REMARK                            x       y       z     vdW  Elec       q    Type
REMARK                         _______ _______ _______ _____ _____    ______ ____
ROOT
ATOM      1  C   UNL     1       4.654   4.529  16.903  0.00  0.00    +0.000 C 
ATOM      2  C   UNL     1       4.117   3.089  17.031  0.00  0.00    +0.000 C 
ATOM      3  C   UNL     1       3.983   2.652  18.483  0.00  0.00    +0.000 C 
ATOM      4  C   UNL     1       3.230   3.644  19.338  0.00  0.00    +0.000 A 
ATOM      5  C   UNL     1       2.745   3.199  20.577  0.00  0.00    +0.000 A 
ATOM      6  C   UNL     1       2.031   4.054  21.400  0.00  0.00    +0.000 A 
ATOM      7  C   UNL     1       1.790   5.363  20.987  0.00  0.00    +0.000 A 
ATOM      8  C   UNL     1       2.271   5.878  19.759  0.00  0.00    +0.000 A 
ATOM      9  C   UNL     1       3.033   4.990  18.935  0.00  0.00    +0.000 A 
ATOM     10  C   UNL     1       3.583   5.425  17.584  0.00  0.00    +0.000 C 
ENDROOT
BRANCH   8  11
ATOM     11  C   UNL     1       1.950   7.302  19.413  0.00  0.00    +0.000 A 
ATOM     12  C   UNL     1       1.382   8.177  20.362  0.00  0.00    +0.000 A 
ATOM     13  C   UNL     1       1.085   9.513  20.055  0.00  0.00    +0.000 A 
ATOM     14  C   UNL     1       1.385  10.023  18.799  0.00  0.00    +0.000 A 
ATOM     15  C   UNL     1       1.932   9.188  17.837  0.00  0.00    +0.000 A 
ATOM     16  C   UNL     1       2.160   7.837  18.130  0.00  0.00    +0.000 A 
ENDBRANCH   8  11
BRANCH   1  17
ATOM     17  N   UNL     1       6.048   4.767  17.374  0.00  0.00    +0.000 NA
BRANCH  17  18
ATOM     18  C   UNL     1       6.258   6.141  17.907  0.00  0.00    +0.000 C 
BRANCH  18  20
ATOM     19  C   UNL     1       7.842   8.104  17.653  0.00  0.00    +0.000 C 
ATOM     20  C   UNL     1       7.715   6.629  18.015  0.00  0.00    +0.000 C 
ENDBRANCH  18  20
ENDBRANCH  17  18
BRANCH  17  21
ATOM     21  C   UNL     1       7.070   4.414  16.368  0.00  0.00    +0.000 C 
BRANCH  21  22
ATOM     22  C   UNL     1       6.524   4.194  14.948  0.00  0.00    +0.000 C 
ATOM     23  C   UNL     1       7.224   5.072  13.918  0.00  0.00    +0.000 C 
ENDBRANCH  21  22
ENDBRANCH  17  21
ENDBRANCH   1  17
TORSDOF 6
ENDMDL
MODEL 3
REMARK VINA RESULT:      -7.8      2.449      6.557
REMARK  Name = 
REMARK  8 active torsions:
REMARK  status: ('A' for Active; 'I' for Inactive)
REMARK    1  A    between atoms: C_1  and  C_2
REMARK    2  A    between atoms: C_2  and  C_3
REMARK    3  A    between atoms: C_3  and  N_4
REMARK    4  A    between atoms: N_4  and  C_5
REMARK    5  A    between atoms: N_4  and  C_8
REMARK    6  A    between atoms: C_5  and  C_6
REMARK    7  A    between atoms: C_6  and  C_7
REMARK    8  A    between atoms: C_15  and  C_16
REMARK                            x       y       z     vdW  Elec       q    Type
REMARK                         _______ _______ _______ _____ _____    ______ ____
ROOT
ATOM      1  C   UNL     1       2.602   4.774  17.860  0.00  0.00    +0.000 C 
ATOM      2  C   UNL     1       2.848   5.862  18.925  0.00  0.00    +0.000 C 
ATOM      3  C   UNL     1       4.132   5.622  19.707  0.00  0.00    +0.000 C 
ATOM      4  C   UNL     1       5.332   5.376  18.823  0.00  0.00    +0.000 A 
ATOM      5  C   UNL     1       6.603   5.493  19.405  0.00  0.00    +0.000 A 
ATOM      6  C   UNL     1       7.745   5.298  18.645  0.00  0.00    +0.000 A 
ATOM      7  C   UNL     1       7.623   4.988  17.291  0.00  0.00    +0.000 A 
ATOM      8  C   UNL     1       6.370   4.833  16.651  0.00  0.00    +0.000 A 
ATOM      9  C   UNL     1       5.202   5.009  17.459  0.00  0.00    +0.000 A 
ATOM     10  C   UNL     1       3.800   4.888  16.876  0.00  0.00    +0.000 C 
ENDROOT
BRANCH   8  11
ATOM     11  C   UNL     1       6.357   4.502  15.188  0.00  0.00    +0.000 A 
ATOM     12  C   UNL     1       7.336   5.013  14.312  0.00  0.00    +0.000 A 
ATOM     13  C   UNL     1       7.341   4.704  12.944  0.00  0.00    +0.000 A 
ATOM     14  C   UNL     1       6.387   3.841  12.420  0.00  0.00    +0.000 A 
ATOM     15  C   UNL     1       5.402   3.329  13.251  0.00  0.00    +0.000 A 
ATOM     16  C   UNL     1       5.363   3.699  14.601  0.00  0.00    +0.000 A 
ENDBRANCH   8  11
BRANCH   1  17
ATOM     17  N   UNL     1       2.346   3.393  18.361  0.00  0.00    +0.000 NA
BRANCH  17  18
ATOM     18  C   UNL     1       2.869   2.336  17.454  0.00  0.00    +0.000 C 
BRANCH  18  20
ATOM     19  C   UNL     1       4.407   1.846  19.410  0.00  0.00    +0.000 C 
ATOM     20  C   UNL     1       3.926   1.380  18.040  0.00  0.00    +0.000 C 
ENDBRANCH  18  20
ENDBRANCH  17  18
BRANCH  17  21
ATOM     21  C   UNL     1       0.931   3.156  18.711  0.00  0.00    +0.000 C 
BRANCH  21  22
ATOM     22  C   UNL     1       0.560   3.508  20.160  0.00  0.00    +0.000 C 
ATOM     23  C   UNL     1       1.409   2.751  21.174  0.00  0.00    +0.000 C 
ENDBRANCH  21  22
ENDBRANCH  17  21
ENDBRANCH   1  17
TORSDOF 6
ENDMDL
MODEL 4
REMARK VINA RESULT:      -7.5      0.999      1.174
REMARK  Name = 
REMARK  8 active torsions:
REMARK  status: ('A' for Active; 'I' for Inactive)
REMARK    1  A    between atoms: C_1  and  C_2
REMARK    2  A    between atoms: C_2  and  C_3
REMARK    3  A    between atoms: C_3  and  N_4
REMARK    4  A    between atoms: N_4  and  C_5
REMARK    5  A    between atoms: N_4  and  C_8
REMARK    6  A    between atoms: C_5  and  C_6
REMARK    7  A    between atoms: C_6  and  C_7
REMARK    8  A    between atoms: C_15  and  C_16
REMARK                            x       y       z     vdW  Elec       q    Type
REMARK                         _______ _______ _______ _____ _____    ______ ____
ROOT
ATOM      1  C   UNL     1       3.826   4.197  16.637  0.00  0.00    +0.000 C 
ATOM      2  C   UNL     1       3.292   2.768  16.865  0.00  0.00    +0.000 C 
ATOM      3  C   UNL     1       3.511   2.293  18.295  0.00  0.00    +0.000 C 
ATOM      4  C   UNL     1       3.028   3.280  19.332  0.00  0.00    +0.000 A 
ATOM      5  C   UNL     1       2.855   2.812  20.644  0.00  0.00    +0.000 A 
ATOM      6  C   UNL     1       2.397   3.661  21.638  0.00  0.00    +0.000 A 
ATOM      7  C   UNL     1       2.102   4.987  21.326  0.00  0.00    +0.000 A 
ATOM      8  C   UNL     1       2.277   5.525  20.028  0.00  0.00    +0.000 A 
ATOM      9  C   UNL     1       2.780   4.641  19.021  0.00  0.00    +0.000 A 
ATOM     10  C   UNL     1       2.989   5.101  17.584  0.00  0.00    +0.000 C 
ENDROOT
BRANCH   8  11
ATOM     11  C   UNL     1       1.925   6.966  19.804  0.00  0.00    +0.000 A 
ATOM     12  C   UNL     1       2.175   7.597  18.569  0.00  0.00    +0.000 A 
ATOM     13  C   UNL     1       1.844   8.942  18.342  0.00  0.00    +0.000 A 
ATOM     14  C   UNL     1       1.215   9.681  19.334  0.00  0.00    +0.000 A 
ATOM     15  C   UNL     1       0.965   9.096  20.565  0.00  0.00    +0.000 A 
ATOM     16  C   UNL     1       1.363   7.775  20.807  0.00  0.00    +0.000 A 
ENDBRANCH   8  11
BRANCH   1  17
ATOM     17  N   UNL     1       5.301   4.386  16.749  0.00  0.00    +0.000 NA
BRANCH  17  18
ATOM     18  C   UNL     1       5.706   5.817  16.766  0.00  0.00    +0.000 C 
BRANCH  18  20
ATOM     19  C   UNL     1       6.448   5.324  19.139  0.00  0.00    +0.000 C 
ATOM     20  C   UNL     1       6.563   6.282  17.959  0.00  0.00    +0.000 C 
ENDBRANCH  18  20
ENDBRANCH  17  18
BRANCH  17  21
ATOM     21  C   UNL     1       6.062   3.617  15.744  0.00  0.00    +0.000 C 
BRANCH  21  22
ATOM     22  C   UNL     1       6.513   4.430  14.520  0.00  0.00    +0.000 C 
ATOM     23  C   UNL     1       6.171   3.736  13.208  0.00  0.00    +0.000 C 
ENDBRANCH  21  22
ENDBRANCH  17  21
ENDBRANCH   1  17
TORSDOF 6
ENDMDL
MODEL 5
REMARK VINA RESULT:      -7.4      1.685      5.662
REMARK  Name = 
REMARK  8 active torsions:
REMARK  status: ('A' for Active; 'I' for Inactive)
REMARK    1  A    between atoms: C_1  and  C_2
REMARK    2  A    between atoms: C_2  and  C_3
REMARK    3  A    between atoms: C_3  and  N_4
REMARK    4  A    between atoms: N_4  and  C_5
REMARK    5  A    between atoms: N_4  and  C_8
REMARK    6  A    between atoms: C_5  and  C_6
REMARK    7  A    between atoms: C_6  and  C_7
REMARK    8  A    between atoms: C_15  and  C_16
REMARK                            x       y       z     vdW  Elec       q    Type
REMARK                         _______ _______ _______ _____ _____    ______ ____
ROOT
ATOM      1  C   UNL     1       4.134   3.947  19.754  0.00  0.00    +0.000 C 
ATOM      2  C   UNL     1       4.138   2.570  19.059  0.00  0.00    +0.000 C 
ATOM      3  C   UNL     1       3.851   2.677  17.568  0.00  0.00    +0.000 C 
ATOM      4  C   UNL     1       4.716   3.699  16.866  0.00  0.00    +0.000 A 
ATOM      5  C   UNL     1       4.791   3.635  15.466  0.00  0.00    +0.000 A 
ATOM      6  C   UNL     1       5.580   4.531  14.764  0.00  0.00    +0.000 A 
ATOM      7  C   UNL     1       6.307   5.496  15.458  0.00  0.00    +0.000 A 
ATOM      8  C   UNL     1       6.257   5.626  16.866  0.00  0.00    +0.000 A 
ATOM      9  C   UNL     1       5.412   4.711  17.573  0.00  0.00    +0.000 A 
ATOM     10  C   UNL     1       5.294   4.742  19.091  0.00  0.00    +0.000 C 
ENDROOT
BRANCH   8  11
ATOM     11  C   UNL     1       7.083   6.700  17.510  0.00  0.00    +0.000 A 
ATOM     12  C   UNL     1       7.070   8.024  17.026  0.00  0.00    +0.000 A 
ATOM     13  C   UNL     1       7.831   9.040  17.623  0.00  0.00    +0.000 A 
ATOM     14  C   UNL     1       8.596   8.767  18.749  0.00  0.00    +0.000 A 
ATOM     15  C   UNL     1       8.642   7.474  19.245  0.00  0.00    +0.000 A 
ATOM     16  C   UNL     1       7.935   6.451  18.600  0.00  0.00    +0.000 A 
ENDBRANCH   8  11
BRANCH   1  17
ATOM     17  N   UNL     1       2.832   4.674  19.792  0.00  0.00    +0.000 NA
BRANCH  17  18
ATOM     18  C   UNL     1       2.969   6.131  19.526  0.00  0.00    +0.000 C 
BRANCH  18  20
ATOM     19  C   UNL     1       2.687   8.136  18.000  0.00  0.00    +0.000 C 
ATOM     20  C   UNL     1       2.431   6.644  18.176  0.00  0.00    +0.000 C 
ENDBRANCH  18  20
ENDBRANCH  17  18
BRANCH  17  21
ATOM     21  C   UNL     1       2.060   4.417  21.025  0.00  0.00    +0.000 C 
BRANCH  21  22
ATOM     22  C   UNL     1       1.210   3.137  20.995  0.00  0.00    +0.000 C 
ATOM     23  C   UNL     1       0.667   2.836  19.603  0.00  0.00    +0.000 C 
ENDBRANCH  21  22
ENDBRANCH  17  21
ENDBRANCH   1  17
TORSDOF 6
ENDMDL
MODEL 6
REMARK VINA RESULT:      -7.3      1.931      6.101
REMARK  Name = 
REMARK  8 active torsions:
REMARK  status: ('A' for Active; 'I' for Inactive)
REMARK    1  A    between atoms: C_1  and  C_2
REMARK    2  A    between atoms: C_2  and  C_3
REMARK    3  A    between atoms: C_3  and  N_4
REMARK    4  A    between atoms: N_4  and  C_5
REMARK    5  A    between atoms: N_4  and  C_8
REMARK    6  A    between atoms: C_5  and  C_6
REMARK    7  A    between atoms: C_6  and  C_7
REMARK    8  A    between atoms: C_15  and  C_16
REMARK                            x       y       z     vdW  Elec       q    Type
REMARK                         _______ _______ _______ _____ _____    ______ ____
ROOT
ATOM      1  C   UNL     1       2.161   5.939  20.768  0.00  0.00    +0.000 C 
ATOM      2  C   UNL     1       1.500   4.546  20.824  0.00  0.00    +0.000 C 
ATOM      3  C   UNL     1       1.178   4.007  19.437  0.00  0.00    +0.000 C 
ATOM      4  C   UNL     1       2.350   4.069  18.485  0.00  0.00    +0.000 A 
ATOM      5  C   UNL     1       2.281   3.293  17.318  0.00  0.00    +0.000 A 
ATOM      6  C   UNL     1       3.330   3.292  16.413  0.00  0.00    +0.000 A 
ATOM      7  C   UNL     1       4.461   4.065  16.672  0.00  0.00    +0.000 A 
ATOM      8  C   UNL     1       4.581   4.885  17.819  0.00  0.00    +0.000 A 
ATOM      9  C   UNL     1       3.475   4.897  18.728  0.00  0.00    +0.000 A 
ATOM     10  C   UNL     1       3.499   5.725  20.006  0.00  0.00    +0.000 C 
ENDROOT
BRANCH   8  11
ATOM     11  C   UNL     1       5.845   5.672  17.999  0.00  0.00    +0.000 A 
ATOM     12  C   UNL     1       6.101   6.831  17.238  0.00  0.00    +0.000 A 
ATOM     13  C   UNL     1       7.275   7.582  17.401  0.00  0.00    +0.000 A 
ATOM     14  C   UNL     1       8.208   7.217  18.362  0.00  0.00    +0.000 A 
ATOM     15  C   UNL     1       7.995   6.076  19.120  0.00  0.00    +0.000 A 
ATOM     16  C   UNL     1       6.855   5.292  18.901  0.00  0.00    +0.000 A 
ENDBRANCH   8  11
BRANCH   1  17
ATOM     17  N   UNL     1       1.325   7.056  20.243  0.00  0.00    +0.000 NA
BRANCH  17  18
ATOM     18  C   UNL     1       2.116   8.088  19.520  0.00  0.00    +0.000 C 
BRANCH  18  20
ATOM     19  C   UNL     1       0.842   9.607  17.940  0.00  0.00    +0.000 C 
ATOM     20  C   UNL     1       1.720   8.367  18.057  0.00  0.00    +0.000 C 
ENDBRANCH  18  20
ENDBRANCH  17  18
BRANCH  17  21
ATOM     21  C   UNL     1       0.454   7.662  21.271  0.00  0.00    +0.000 C 
BRANCH  21  22
ATOM     22  C   UNL     1       1.061   8.876  21.992  0.00  0.00    +0.000 C 
ATOM     23  C   UNL     1       0.094   9.494  22.995  0.00  0.00    +0.000 C 
ENDBRANCH  21  22
ENDBRANCH  17  21
ENDBRANCH   1  17
TORSDOF 6
ENDMDL
MODEL 7
REMARK VINA RESULT:      -7.3      1.627      5.690
REMARK  Name = 
REMARK  8 active torsions:
REMARK  status: ('A' for Active; 'I' for Inactive)
REMARK    1  A    between atoms: C_1  and  C_2
REMARK    2  A    between atoms: C_2  and  C_3
REMARK    3  A    between atoms: C_3  and  N_4
REMARK    4  A    between atoms: N_4  and  C_5
REMARK    5  A    between atoms: N_4  and  C_8
REMARK    6  A    between atoms: C_5  and  C_6
REMARK    7  A    between atoms: C_6  and  C_7
REMARK    8  A    between atoms: C_15  and  C_16
REMARK                            x       y       z     vdW  Elec       q    Type
REMARK                         _______ _______ _______ _____ _____    ______ ____
ROOT
ATOM      1  C   UNL     1       4.165   4.012  19.726  0.00  0.00    +0.000 C 
ATOM      2  C   UNL     1       4.219   2.622  19.060  0.00  0.00    +0.000 C 
ATOM      3  C   UNL     1       3.959   2.692  17.562  0.00  0.00    +0.000 C 
ATOM      4  C   UNL     1       4.810   3.721  16.855  0.00  0.00    +0.000 A 
ATOM      5  C   UNL     1       4.914   3.631  15.459  0.00  0.00    +0.000 A 
ATOM      6  C   UNL     1       5.693   4.533  14.753  0.00  0.00    +0.000 A 
ATOM      7  C   UNL     1       6.381   5.532  15.441  0.00  0.00    +0.000 A 
ATOM      8  C   UNL     1       6.299   5.688  16.845  0.00  0.00    +0.000 A 
ATOM      9  C   UNL     1       5.465   4.766  17.555  0.00  0.00    +0.000 A 
ATOM     10  C   UNL     1       5.316   4.824  19.069  0.00  0.00    +0.000 C 
ENDROOT
BRANCH   8  11
ATOM     11  C   UNL     1       7.085   6.796  17.482  0.00  0.00    +0.000 A 
ATOM     12  C   UNL     1       7.943   6.552  18.574  0.00  0.00    +0.000 A 
ATOM     13  C   UNL     1       8.690   7.577  19.174  0.00  0.00    +0.000 A 
ATOM     14  C   UNL     1       8.630   8.870  18.671  0.00  0.00    +0.000 A 
ATOM     15  C   UNL     1       7.787   9.148  17.606  0.00  0.00    +0.000 A 
ATOM     16  C   UNL     1       6.991   8.134  17.059  0.00  0.00    +0.000 A 
ENDBRANCH   8  11
BRANCH   1  17
ATOM     17  N   UNL     1       2.845   4.705  19.725  0.00  0.00    +0.000 NA
BRANCH  17  18
ATOM     18  C   UNL     1       2.951   6.164  19.458  0.00  0.00    +0.000 C 
BRANCH  18  20
ATOM     19  C   UNL     1       2.388   8.182  18.030  0.00  0.00    +0.000 C 
ATOM     20  C   UNL     1       2.438   6.660  18.092  0.00  0.00    +0.000 C 
ENDBRANCH  18  20
ENDBRANCH  17  18
BRANCH  17  21
ATOM     21  C   UNL     1       2.044   4.431  20.935  0.00  0.00    +0.000 C 
BRANCH  21  22
ATOM     22  C   UNL     1       0.931   3.388  20.746  0.00  0.00    +0.000 C 
ATOM     23  C   UNL     1       0.731   3.015  19.283  0.00  0.00    +0.000 C 
ENDBRANCH  21  22
ENDBRANCH  17  21
ENDBRANCH   1  17
TORSDOF 6
ENDMDL
MODEL 8
REMARK VINA RESULT:      -7.3      1.253      1.870
REMARK  Name = 
REMARK  8 active torsions:
REMARK  status: ('A' for Active; 'I' for Inactive)
REMARK    1  A    between atoms: C_1  and  C_2
REMARK    2  A    between atoms: C_2  and  C_3
REMARK    3  A    between atoms: C_3  and  N_4
REMARK    4  A    between atoms: N_4  and  C_5
REMARK    5  A    between atoms: N_4  and  C_8
REMARK    6  A    between atoms: C_5  and  C_6
REMARK    7  A    between atoms: C_6  and  C_7
REMARK    8  A    between atoms: C_15  and  C_16
REMARK                            x       y       z     vdW  Elec       q    Type
REMARK                         _______ _______ _______ _____ _____    ______ ____
ROOT
ATOM      1  C   UNL     1       5.060   6.588  16.759  0.00  0.00    +0.000 C 
ATOM      2  C   UNL     1       4.738   5.156  16.288  0.00  0.00    +0.000 C 
ATOM      3  C   UNL     1       4.564   4.192  17.454  0.00  0.00    +0.000 C 
ATOM      4  C   UNL     1       3.609   4.698  18.510  0.00  0.00    +0.000 A 
ATOM      5  C   UNL     1       3.106   3.768  19.432  0.00  0.00    +0.000 A 
ATOM      6  C   UNL     1       2.213   4.165  20.413  0.00  0.00    +0.000 A 
ATOM      7  C   UNL     1       1.809   5.497  20.476  0.00  0.00    +0.000 A 
ATOM      8  C   UNL     1       2.296   6.487  19.589  0.00  0.00    +0.000 A 
ATOM      9  C   UNL     1       3.242   6.065  18.601  0.00  0.00    +0.000 A 
ATOM     10  C   UNL     1       3.819   7.036  17.580  0.00  0.00    +0.000 C 
ENDROOT
BRANCH   8  11
ATOM     11  C   UNL     1       1.790   7.891  19.746  0.00  0.00    +0.000 A 
ATOM     12  C   UNL     1       1.712   8.768  18.646  0.00  0.00    +0.000 A 
ATOM     13  C   UNL     1       1.234  10.081  18.776  0.00  0.00    +0.000 A 
ATOM     14  C   UNL     1       0.782  10.539  20.006  0.00  0.00    +0.000 A 
ATOM     15  C   UNL     1       0.855   9.707  21.112  0.00  0.00    +0.000 A 
ATOM     16  C   UNL     1       1.400   8.423  20.988  0.00  0.00    +0.000 A 
ENDBRANCH   8  11
BRANCH   1  17
ATOM     17  N   UNL     1       6.364   6.787  17.455  0.00  0.00    +0.000 NA
BRANCH  17  18
ATOM     18  C   UNL     1       6.891   8.171  17.323  0.00  0.00    +0.000 C 
BRANCH  18  20
ATOM     19  C   UNL     1       8.516   9.965  18.079  0.00  0.00    +0.000 C 
ATOM     20  C   UNL     1       8.244   8.467  18.000  0.00  0.00    +0.000 C 
ENDBRANCH  18  20
ENDBRANCH  17  18
BRANCH  17  21
ATOM     21  C   UNL     1       7.379   5.781  17.084  0.00  0.00    +0.000 C 
BRANCH  21  22
ATOM     22  C   UNL     1       7.825   4.864  18.233  0.00  0.00    +0.000 C 
ATOM     23  C   UNL     1       7.405   5.400  19.596  0.00  0.00    +0.000 C 
ENDBRANCH  21  22
ENDBRANCH  17  21
ENDBRANCH   1  17
TORSDOF 6
ENDMDL
MODEL 9
REMARK VINA RESULT:      -7.2      1.258      2.062
REMARK  Name = 
REMARK  8 active torsions:
REMARK  status: ('A' for Active; 'I' for Inactive)
REMARK    1  A    between atoms: C_1  and  C_2
REMARK    2  A    between atoms: C_2  and  C_3
REMARK    3  A    between atoms: C_3  and  N_4
REMARK    4  A    between atoms: N_4  and  C_5
REMARK    5  A    between atoms: N_4  and  C_8
REMARK    6  A    between atoms: C_5  and  C_6
REMARK    7  A    between atoms: C_6  and  C_7
REMARK    8  A    between atoms: C_15  and  C_16
REMARK                            x       y       z     vdW  Elec       q    Type
REMARK                         _______ _______ _______ _____ _____    ______ ____
ROOT
ATOM      1  C   UNL     1       4.900   6.502  16.860  0.00  0.00    +0.000 C 
ATOM      2  C   UNL     1       4.558   5.051  16.468  0.00  0.00    +0.000 C 
ATOM      3  C   UNL     1       4.404   4.148  17.685  0.00  0.00    +0.000 C 
ATOM      4  C   UNL     1       3.476   4.713  18.734  0.00  0.00    +0.000 A 
ATOM      5  C   UNL     1       2.988   3.834  19.713  0.00  0.00    +0.000 A 
ATOM      6  C   UNL     1       2.119   4.286  20.693  0.00  0.00    +0.000 A 
ATOM      7  C   UNL     1       1.725   5.623  20.698  0.00  0.00    +0.000 A 
ATOM      8  C   UNL     1       2.199   6.563  19.752  0.00  0.00    +0.000 A 
ATOM      9  C   UNL     1       3.120   6.086  18.765  0.00  0.00    +0.000 A 
ATOM     10  C   UNL     1       3.680   7.000  17.685  0.00  0.00    +0.000 C 
ENDROOT
BRANCH   8  11
ATOM     11  C   UNL     1       1.706   7.977  19.849  0.00  0.00    +0.000 A 
ATOM     12  C   UNL     1       1.297   8.527  21.081  0.00  0.00    +0.000 A 
ATOM     13  C   UNL     1       0.842   9.850  21.189  0.00  0.00    +0.000 A 
ATOM     14  C   UNL     1       0.823  10.673  20.071  0.00  0.00    +0.000 A 
ATOM     15  C   UNL     1       1.208  10.162  18.841  0.00  0.00    +0.000 A 
ATOM     16  C   UNL     1       1.593   8.820  18.730  0.00  0.00    +0.000 A 
ENDBRANCH   8  11
BRANCH   1  17
ATOM     17  N   UNL     1       6.220   6.725  17.516  0.00  0.00    +0.000 NA
BRANCH  17  18
ATOM     18  C   UNL     1       6.670   8.142  17.456  0.00  0.00    +0.000 C 
BRANCH  18  20
ATOM     19  C   UNL     1       8.487   9.691  18.311  0.00  0.00    +0.000 C 
ATOM     20  C   UNL     1       8.186   8.394  17.567  0.00  0.00    +0.000 C 
ENDBRANCH  18  20
ENDBRANCH  17  18
BRANCH  17  21
ATOM     21  C   UNL     1       7.269   5.802  17.039  0.00  0.00    +0.000 C 
BRANCH  21  22
ATOM     22  C   UNL     1       7.778   4.808  18.095  0.00  0.00    +0.000 C 
ATOM     23  C   UNL     1       7.841   5.426  19.487  0.00  0.00    +0.000 C 
ENDBRANCH  21  22
ENDBRANCH  17  21
ENDBRANCH   1  17
TORSDOF 6
ENDMDL
