MODEL 1
REMARK VINA RESULT:      -7.4      0.000      0.000
REMARK  Name = 
REMARK  6 active torsions:
REMARK  status: ('A' for Active; 'I' for Inactive)
REMARK    1  A    between atoms: C_2  and  O_3
REMARK    2  A    between atoms: C_2  and  C_11
REMARK    3  A    between atoms: O_3  and  C_4
REMARK    4  A    between atoms: C_4  and  C_5
REMARK    5  A    between atoms: C_15  and  O_16
REMARK    6  A    between atoms: C_17  and  O_18
REMARK                            x       y       z     vdW  Elec       q    Type
REMARK                         _______ _______ _______ _____ _____    ______ ____
ROOT
ATOM      1  O   UNL     1       5.683   4.268  15.288  0.00  0.00    +0.000 OA
ATOM      2  C   UNL     1       5.358   4.894  16.286  0.00  0.00    +0.000 C 
ENDROOT
BRANCH   2   3
ATOM      3  C   UNL     1       6.339   5.596  17.145  0.00  0.00    +0.000 A 
ATOM      4  C   UNL     1       6.835   6.837  16.710  0.00  0.00    +0.000 A 
ATOM      5  C   UNL     1       7.735   7.562  17.499  0.00  0.00    +0.000 A 
ATOM      6  C   UNL     1       8.144   7.063  18.737  0.00  0.00    +0.000 A 
ATOM      7  C   UNL     1       7.632   5.847  19.178  0.00  0.00    +0.000 A 
ATOM      8  C   UNL     1       6.731   5.118  18.398  0.00  0.00    +0.000 A 
BRANCH   7   9
ATOM      9  O   UNL     1       7.973   5.326  20.397  0.00  0.00    +0.000 OA
ATOM     10  H   UNL     1       7.732   5.971  21.085  0.00  0.00    +0.000 HD
ENDBRANCH   7   9
BRANCH   8  11
ATOM     11  O   UNL     1       6.221   3.963  18.933  0.00  0.00    +0.000 OA
ATOM     12  H   UNL     1       6.765   3.792  19.728  0.00  0.00    +0.000 HD
ENDBRANCH   8  11
ENDBRANCH   2   3
BRANCH   2  13
ATOM     13  O   UNL     1       4.106   5.036  16.776  0.00  0.00    +0.000 OA
BRANCH  13  14
ATOM     14  C   UNL     1       3.367   3.827  16.966  0.00  0.00    +0.000 C 
BRANCH  14  15
ATOM     15  C   UNL     1       2.539   3.888  18.224  0.00  0.00    +0.000 A 
ATOM     16  C   UNL     1       2.657   4.970  19.108  0.00  0.00    +0.000 A 
ATOM     17  C   UNL     1       1.865   5.036  20.257  0.00  0.00    +0.000 A 
ATOM     18  C   UNL     1       0.955   4.019  20.536  0.00  0.00    +0.000 A 
ATOM     19  C   UNL     1       0.839   2.933  19.670  0.00  0.00    +0.000 A 
ATOM     20  C   UNL     1       1.630   2.864  18.522  0.00  0.00    +0.000 A 
ENDBRANCH  14  15
ENDBRANCH  13  14
ENDBRANCH   2  13
TORSDOF 6
ENDMDL
MODEL 2
REMARK VINA RESULT:      -7.4      0.556      1.236
REMARK  Name = 
REMARK  6 active torsions:
REMARK  status: ('A' for Active; 'I' for Inactive)
REMARK    1  A    between atoms: C_2  and  O_3
REMARK    2  A    between atoms: C_2  and  C_11
REMARK    3  A    between atoms: O_3  and  C_4
REMARK    4  A    between atoms: C_4  and  C_5
REMARK    5  A    between atoms: C_15  and  O_16
REMARK    6  A    between atoms: C_17  and  O_18
REMARK                            x       y       z     vdW  Elec       q    Type
REMARK                         _______ _______ _______ _____ _____    ______ ____
ROOT
ATOM      1  O   UNL     1       5.698   3.985  15.084  0.00  0.00    +0.000 OA
ATOM      2  C   UNL     1       5.458   4.273  16.246  0.00  0.00    +0.000 C 
ENDROOT
BRANCH   2   3
ATOM      3  C   UNL     1       6.337   5.151  17.053  0.00  0.00    +0.000 A 
ATOM      4  C   UNL     1       6.761   6.365  16.487  0.00  0.00    +0.000 A 
ATOM      5  C   UNL     1       7.562   7.251  17.218  0.00  0.00    +0.000 A 
ATOM      6  C   UNL     1       7.941   6.942  18.525  0.00  0.00    +0.000 A 
ATOM      7  C   UNL     1       7.498   5.751  19.092  0.00  0.00    +0.000 A 
ATOM      8  C   UNL     1       6.696   4.863  18.372  0.00  0.00    +0.000 A 
BRANCH   7   9
ATOM      9  O   UNL     1       7.811   5.411  20.381  0.00  0.00    +0.000 OA
ATOM     10  H   UNL     1       7.776   4.442  20.460  0.00  0.00    +0.000 HD
ENDBRANCH   7   9
BRANCH   8  11
ATOM     11  O   UNL     1       6.246   3.744  19.024  0.00  0.00    +0.000 OA
ATOM     12  H   UNL     1       5.422   3.493  18.557  0.00  0.00    +0.000 HD
ENDBRANCH   8  11
ENDBRANCH   2   3
BRANCH   2  13
ATOM     13  O   UNL     1       4.406   3.845  16.981  0.00  0.00    +0.000 OA
BRANCH  13  14
ATOM     14  C   UNL     1       3.381   4.810  17.229  0.00  0.00    +0.000 C 
BRANCH  14  15
ATOM     15  C   UNL     1       2.482   4.372  18.356  0.00  0.00    +0.000 A 
ATOM     16  C   UNL     1       1.666   3.239  18.223  0.00  0.00    +0.000 A 
ATOM     17  C   UNL     1       0.858   2.819  19.282  0.00  0.00    +0.000 A 
ATOM     18  C   UNL     1       0.852   3.532  20.479  0.00  0.00    +0.000 A 
ATOM     19  C   UNL     1       1.649   4.667  20.617  0.00  0.00    +0.000 A 
ATOM     20  C   UNL     1       2.457   5.088  19.560  0.00  0.00    +0.000 A 
ENDBRANCH  14  15
ENDBRANCH  13  14
ENDBRANCH   2  13
TORSDOF 6
ENDMDL
MODEL 3
REMARK VINA RESULT:      -7.3      1.020      1.191
REMARK  Name = 
REMARK  6 active torsions:
REMARK  status: ('A' for Active; 'I' for Inactive)
REMARK    1  A    between atoms: C_2  and  O_3
REMARK    2  A    between atoms: C_2  and  C_11
REMARK    3  A    between atoms: O_3  and  C_4
REMARK    4  A    between atoms: C_4  and  C_5
REMARK    5  A    between atoms: C_15  and  O_16
REMARK    6  A    between atoms: C_17  and  O_18
REMARK                            x       y       z     vdW  Elec       q    Type
REMARK                         _______ _______ _______ _____ _____    ______ ____
ROOT
ATOM      1  O   UNL     1       4.276   4.209  16.539  0.00  0.00    +0.000 OA
ATOM      2  C   UNL     1       4.361   5.185  17.268  0.00  0.00    +0.000 C 
ENDROOT
BRANCH   2   3
ATOM      3  C   UNL     1       5.657   5.711  17.755  0.00  0.00    +0.000 A 
ATOM      4  C   UNL     1       6.237   6.788  17.066  0.00  0.00    +0.000 A 
ATOM      5  C   UNL     1       7.443   7.350  17.504  0.00  0.00    +0.000 A 
ATOM      6  C   UNL     1       8.079   6.850  18.641  0.00  0.00    +0.000 A 
ATOM      7  C   UNL     1       7.489   5.799  19.338  0.00  0.00    +0.000 A 
ATOM      8  C   UNL     1       6.285   5.236  18.910  0.00  0.00    +0.000 A 
BRANCH   7   9
ATOM      9  O   UNL     1       8.051   5.291  20.478  0.00  0.00    +0.000 OA
ATOM     10  H   UNL     1       8.676   5.947  20.831  0.00  0.00    +0.000 HD
ENDBRANCH   7   9
BRANCH   8  11
ATOM     11  O   UNL     1       5.735   4.250  19.688  0.00  0.00    +0.000 OA
ATOM     12  H   UNL     1       6.227   4.291  20.533  0.00  0.00    +0.000 HD
ENDBRANCH   8  11
ENDBRANCH   2   3
BRANCH   2  13
ATOM     13  O   UNL     1       3.334   5.916  17.758  0.00  0.00    +0.000 OA
BRANCH  13  14
ATOM     14  C   UNL     1       2.081   5.238  17.876  0.00  0.00    +0.000 C 
BRANCH  14  15
ATOM     15  C   UNL     1       2.029   4.408  19.133  0.00  0.00    +0.000 A 
ATOM     16  C   UNL     1       2.369   4.964  20.374  0.00  0.00    +0.000 A 
ATOM     17  C   UNL     1       2.289   4.198  21.539  0.00  0.00    +0.000 A 
ATOM     18  C   UNL     1       1.877   2.869  21.474  0.00  0.00    +0.000 A 
ATOM     19  C   UNL     1       1.549   2.302  20.243  0.00  0.00    +0.000 A 
ATOM     20  C   UNL     1       1.629   3.066  19.077  0.00  0.00    +0.000 A 
ENDBRANCH  14  15
ENDBRANCH  13  14
ENDBRANCH   2  13
TORSDOF 6
ENDMDL
MODEL 4
REMARK VINA RESULT:      -7.3      1.056      1.632
REMARK  Name = 
REMARK  6 active torsions:
REMARK  status: ('A' for Active; 'I' for Inactive)
REMARK    1  A    between atoms: C_2  and  O_3
REMARK    2  A    between atoms: C_2  and  C_11
REMARK    3  A    between atoms: O_3  and  C_4
REMARK    4  A    between atoms: C_4  and  C_5
REMARK    5  A    between atoms: C_15  and  O_16
REMARK    6  A    between atoms: C_17  and  O_18
REMARK                            x       y       z     vdW  Elec       q    Type
REMARK                         _______ _______ _______ _____ _____    ______ ____
ROOT
ATOM      1  O   UNL     1       4.215   3.880  16.799  0.00  0.00    +0.000 OA
ATOM      2  C   UNL     1       4.292   4.982  17.321  0.00  0.00    +0.000 C 
ENDROOT
BRANCH   2   3
ATOM      3  C   UNL     1       5.577   5.571  17.763  0.00  0.00    +0.000 A 
ATOM      4  C   UNL     1       6.103   6.644  17.024  0.00  0.00    +0.000 A 
ATOM      5  C   UNL     1       7.295   7.264  17.418  0.00  0.00    +0.000 A 
ATOM      6  C   UNL     1       7.971   6.828  18.558  0.00  0.00    +0.000 A 
ATOM      7  C   UNL     1       7.434   5.782  19.303  0.00  0.00    +0.000 A 
ATOM      8  C   UNL     1       6.244   5.160  18.919  0.00  0.00    +0.000 A 
BRANCH   7   9
ATOM      9  O   UNL     1       8.036   5.334  20.448  0.00  0.00    +0.000 OA
ATOM     10  H   UNL     1       8.342   4.423  20.298  0.00  0.00    +0.000 HD
ENDBRANCH   7   9
BRANCH   8  11
ATOM     11  O   UNL     1       5.746   4.183  19.742  0.00  0.00    +0.000 OA
ATOM     12  H   UNL     1       5.565   3.423  19.152  0.00  0.00    +0.000 HD
ENDBRANCH   8  11
ENDBRANCH   2   3
BRANCH   2  13
ATOM     13  O   UNL     1       3.263   5.816  17.596  0.00  0.00    +0.000 OA
BRANCH  13  14
ATOM     14  C   UNL     1       1.980   5.203  17.741  0.00  0.00    +0.000 C 
BRANCH  14  15
ATOM     15  C   UNL     1       1.878   4.459  19.047  0.00  0.00    +0.000 A 
ATOM     16  C   UNL     1       1.354   3.160  19.094  0.00  0.00    +0.000 A 
ATOM     17  C   UNL     1       1.290   2.464  20.303  0.00  0.00    +0.000 A 
ATOM     18  C   UNL     1       1.740   3.063  21.477  0.00  0.00    +0.000 A 
ATOM     19  C   UNL     1       2.251   4.360  21.445  0.00  0.00    +0.000 A 
ATOM     20  C   UNL     1       2.315   5.057  20.237  0.00  0.00    +0.000 A 
ENDBRANCH  14  15
ENDBRANCH  13  14
ENDBRANCH   2  13
TORSDOF 6
ENDMDL
MODEL 5
REMARK VINA RESULT:      -7.2      1.162      1.488
REMARK  Name = 
REMARK  6 active torsions:
REMARK  status: ('A' for Active; 'I' for Inactive)
REMARK    1  A    between atoms: C_2  and  O_3
REMARK    2  A    between atoms: C_2  and  C_11
REMARK    3  A    between atoms: O_3  and  C_4
REMARK    4  A    between atoms: C_4  and  C_5
REMARK    5  A    between atoms: C_15  and  O_16
REMARK    6  A    between atoms: C_17  and  O_18
REMARK                            x       y       z     vdW  Elec       q    Type
REMARK                         _______ _______ _______ _____ _____    ______ ____
ROOT
ATOM      1  O   UNL     1       3.405   5.979  17.410  0.00  0.00    +0.000 OA
ATOM      2  C   UNL     1       4.382   5.261  17.562  0.00  0.00    +0.000 C 
ENDROOT
BRANCH   2   3
ATOM      3  C   UNL     1       5.713   5.790  17.941  0.00  0.00    +0.000 A 
ATOM      4  C   UNL     1       6.242   6.855  17.194  0.00  0.00    +0.000 A 
ATOM      5  C   UNL     1       7.478   7.418  17.531  0.00  0.00    +0.000 A 
ATOM      6  C   UNL     1       8.197   6.932  18.624  0.00  0.00    +0.000 A 
ATOM      7  C   UNL     1       7.660   5.894  19.379  0.00  0.00    +0.000 A 
ATOM      8  C   UNL     1       6.425   5.329  19.052  0.00  0.00    +0.000 A 
BRANCH   7   9
ATOM      9  O   UNL     1       8.305   5.400  20.480  0.00  0.00    +0.000 OA
ATOM     10  H   UNL     1       7.677   4.854  20.985  0.00  0.00    +0.000 HD
ENDBRANCH   7   9
BRANCH   8  11
ATOM     11  O   UNL     1       5.933   4.356  19.883  0.00  0.00    +0.000 OA
ATOM     12  H   UNL     1       4.995   4.598  20.028  0.00  0.00    +0.000 HD
ENDBRANCH   8  11
ENDBRANCH   2   3
BRANCH   2  13
ATOM     13  O   UNL     1       4.430   3.920  17.397  0.00  0.00    +0.000 OA
BRANCH  13  14
ATOM     14  C   UNL     1       3.170   3.244  17.388  0.00  0.00    +0.000 C 
BRANCH  14  15
ATOM     15  C   UNL     1       2.574   3.187  18.770  0.00  0.00    +0.000 A 
ATOM     16  C   UNL     1       3.282   2.609  19.833  0.00  0.00    +0.000 A 
ATOM     17  C   UNL     1       2.736   2.587  21.119  0.00  0.00    +0.000 A 
ATOM     18  C   UNL     1       1.476   3.133  21.352  0.00  0.00    +0.000 A 
ATOM     19  C   UNL     1       0.758   3.699  20.300  0.00  0.00    +0.000 A 
ATOM     20  C   UNL     1       1.301   3.722  19.014  0.00  0.00    +0.000 A 
ENDBRANCH  14  15
ENDBRANCH  13  14
ENDBRANCH   2  13
TORSDOF 6
ENDMDL
MODEL 6
REMARK VINA RESULT:      -7.2      1.172      1.476
REMARK  Name = 
REMARK  6 active torsions:
REMARK  status: ('A' for Active; 'I' for Inactive)
REMARK    1  A    between atoms: C_2  and  O_3
REMARK    2  A    between atoms: C_2  and  C_11
REMARK    3  A    between atoms: O_3  and  C_4
REMARK    4  A    between atoms: C_4  and  C_5
REMARK    5  A    between atoms: C_15  and  O_16
REMARK    6  A    between atoms: C_17  and  O_18
REMARK                            x       y       z     vdW  Elec       q    Type
REMARK                         _______ _______ _______ _____ _____    ______ ____
ROOT
ATOM      1  O   UNL     1       3.355   6.106  17.390  0.00  0.00    +0.000 OA
ATOM      2  C   UNL     1       4.332   5.384  17.519  0.00  0.00    +0.000 C 
ENDROOT
BRANCH   2   3
ATOM      3  C   UNL     1       5.677   5.907  17.855  0.00  0.00    +0.000 A 
ATOM      4  C   UNL     1       6.140   7.039  17.165  0.00  0.00    +0.000 A 
ATOM      5  C   UNL     1       7.387   7.598  17.467  0.00  0.00    +0.000 A 
ATOM      6  C   UNL     1       8.183   7.041  18.469  0.00  0.00    +0.000 A 
ATOM      7  C   UNL     1       7.711   5.935  19.170  0.00  0.00    +0.000 A 
ATOM      8  C   UNL     1       6.466   5.373  18.877  0.00  0.00    +0.000 A 
BRANCH   7   9
ATOM      9  O   UNL     1       8.434   5.368  20.185  0.00  0.00    +0.000 OA
ATOM     10  H   UNL     1       7.815   5.077  20.877  0.00  0.00    +0.000 HD
ENDBRANCH   7   9
BRANCH   8  11
ATOM     11  O   UNL     1       6.044   4.328  19.657  0.00  0.00    +0.000 OA
ATOM     12  H   UNL     1       5.097   4.508  19.831  0.00  0.00    +0.000 HD
ENDBRANCH   8  11
ENDBRANCH   2   3
BRANCH   2  13
ATOM     13  O   UNL     1       4.366   4.040  17.366  0.00  0.00    +0.000 OA
BRANCH  13  14
ATOM     14  C   UNL     1       3.104   3.372  17.411  0.00  0.00    +0.000 C 
BRANCH  14  15
ATOM     15  C   UNL     1       2.575   3.304  18.820  0.00  0.00    +0.000 A 
ATOM     16  C   UNL     1       1.386   3.957  19.172  0.00  0.00    +0.000 A 
ATOM     17  C   UNL     1       0.884   3.865  20.473  0.00  0.00    +0.000 A 
ATOM     18  C   UNL     1       1.571   3.126  21.434  0.00  0.00    +0.000 A 
ATOM     19  C   UNL     1       2.761   2.483  21.098  0.00  0.00    +0.000 A 
ATOM     20  C   UNL     1       3.264   2.575  19.799  0.00  0.00    +0.000 A 
ENDBRANCH  14  15
ENDBRANCH  13  14
ENDBRANCH   2  13
TORSDOF 6
ENDMDL
MODEL 7
REMARK VINA RESULT:      -7.0      1.792      3.360
REMARK  Name = 
REMARK  6 active torsions:
REMARK  status: ('A' for Active; 'I' for Inactive)
REMARK    1  A    between atoms: C_2  and  O_3
REMARK    2  A    between atoms: C_2  and  C_11
REMARK    3  A    between atoms: O_3  and  C_4
REMARK    4  A    between atoms: C_4  and  C_5
REMARK    5  A    between atoms: C_15  and  O_16
REMARK    6  A    between atoms: C_17  and  O_18
REMARK                            x       y       z     vdW  Elec       q    Type
REMARK                         _______ _______ _______ _____ _____    ______ ____
ROOT
ATOM      1  O   UNL     1       5.923   5.657  18.962  0.00  0.00    +0.000 OA
ATOM      2  C   UNL     1       5.223   5.689  17.961  0.00  0.00    +0.000 C 
ENDROOT
BRANCH   2   3
ATOM      3  C   UNL     1       5.665   5.146  16.656  0.00  0.00    +0.000 A 
ATOM      4  C   UNL     1       4.882   4.148  16.053  0.00  0.00    +0.000 A 
ATOM      5  C   UNL     1       5.232   3.624  14.802  0.00  0.00    +0.000 A 
ATOM      6  C   UNL     1       6.362   4.098  14.134  0.00  0.00    +0.000 A 
ATOM      7  C   UNL     1       7.122   5.105  14.721  0.00  0.00    +0.000 A 
ATOM      8  C   UNL     1       6.778   5.635  15.967  0.00  0.00    +0.000 A 
BRANCH   7   9
ATOM      9  O   UNL     1       8.221   5.630  14.096  0.00  0.00    +0.000 OA
ATOM     10  H   UNL     1       8.689   6.203  14.729  0.00  0.00    +0.000 HD
ENDBRANCH   7   9
BRANCH   8  11
ATOM     11  O   UNL     1       7.538   6.670  16.446  0.00  0.00    +0.000 OA
ATOM     12  H   UNL     1       8.261   6.242  16.947  0.00  0.00    +0.000 HD
ENDBRANCH   8  11
ENDBRANCH   2   3
BRANCH   2  13
ATOM     13  O   UNL     1       3.983   6.221  17.861  0.00  0.00    +0.000 OA
BRANCH  13  14
ATOM     14  C   UNL     1       3.241   6.314  19.080  0.00  0.00    +0.000 C 
BRANCH  14  15
ATOM     15  C   UNL     1       2.394   5.087  19.296  0.00  0.00    +0.000 A 
ATOM     16  C   UNL     1       2.022   4.690  20.588  0.00  0.00    +0.000 A 
ATOM     17  C   UNL     1       1.211   3.569  20.779  0.00  0.00    +0.000 A 
ATOM     18  C   UNL     1       0.772   2.830  19.683  0.00  0.00    +0.000 A 
ATOM     19  C   UNL     1       1.147   3.208  18.395  0.00  0.00    +0.000 A 
ATOM     20  C   UNL     1       1.958   4.328  18.201  0.00  0.00    +0.000 A 
ENDBRANCH  14  15
ENDBRANCH  13  14
ENDBRANCH   2  13
TORSDOF 6
ENDMDL
MODEL 8
REMARK VINA RESULT:      -7.0      1.753      3.456
REMARK  Name = 
REMARK  6 active torsions:
REMARK  status: ('A' for Active; 'I' for Inactive)
REMARK    1  A    between atoms: C_2  and  O_3
REMARK    2  A    between atoms: C_2  and  C_11
REMARK    3  A    between atoms: O_3  and  C_4
REMARK    4  A    between atoms: C_4  and  C_5
REMARK    5  A    between atoms: C_15  and  O_16
REMARK    6  A    between atoms: C_17  and  O_18
REMARK                            x       y       z     vdW  Elec       q    Type
REMARK                         _______ _______ _______ _____ _____    ______ ____
ROOT
ATOM      1  O   UNL     1       6.020   4.418  19.226  0.00  0.00    +0.000 OA
ATOM      2  C   UNL     1       5.654   5.086  18.271  0.00  0.00    +0.000 C 
ENDROOT
BRANCH   2   3
ATOM      3  C   UNL     1       5.939   4.703  16.869  0.00  0.00    +0.000 A 
ATOM      4  C   UNL     1       5.160   3.689  16.286  0.00  0.00    +0.000 A 
ATOM      5  C   UNL     1       5.361   3.313  14.953  0.00  0.00    +0.000 A 
ATOM      6  C   UNL     1       6.334   3.950  14.182  0.00  0.00    +0.000 A 
ATOM      7  C   UNL     1       7.087   4.971  14.753  0.00  0.00    +0.000 A 
ATOM      8  C   UNL     1       6.891   5.356  16.082  0.00  0.00    +0.000 A 
BRANCH   7   9
ATOM      9  O   UNL     1       8.032   5.653  14.035  0.00  0.00    +0.000 OA
ATOM     10  H   UNL     1       8.232   5.144  13.229  0.00  0.00    +0.000 HD
ENDBRANCH   7   9
BRANCH   8  11
ATOM     11  O   UNL     1       7.625   6.414  16.550  0.00  0.00    +0.000 OA
ATOM     12  H   UNL     1       6.999   6.935  17.093  0.00  0.00    +0.000 HD
ENDBRANCH   8  11
ENDBRANCH   2   3
BRANCH   2  13
ATOM     13  O   UNL     1       4.971   6.252  18.318  0.00  0.00    +0.000 OA
BRANCH  13  14
ATOM     14  C   UNL     1       3.669   6.241  17.726  0.00  0.00    +0.000 C 
BRANCH  14  15
ATOM     15  C   UNL     1       2.710   5.411  18.539  0.00  0.00    +0.000 A 
ATOM     16  C   UNL     1       1.982   4.370  17.945  0.00  0.00    +0.000 A 
ATOM     17  C   UNL     1       1.118   3.584  18.711  0.00  0.00    +0.000 A 
ATOM     18  C   UNL     1       0.967   3.836  20.073  0.00  0.00    +0.000 A 
ATOM     19  C   UNL     1       1.676   4.876  20.670  0.00  0.00    +0.000 A 
ATOM     20  C   UNL     1       2.540   5.663  19.907  0.00  0.00    +0.000 A 
ENDBRANCH  14  15
ENDBRANCH  13  14
ENDBRANCH   2  13
TORSDOF 6
ENDMDL
MODEL 9
REMARK VINA RESULT:      -7.0      1.878      2.511
REMARK  Name = 
REMARK  6 active torsions:
REMARK  status: ('A' for Active; 'I' for Inactive)
REMARK    1  A    between atoms: C_2  and  O_3
REMARK    2  A    between atoms: C_2  and  C_11
REMARK    3  A    between atoms: O_3  and  C_4
REMARK    4  A    between atoms: C_4  and  C_5
REMARK    5  A    between atoms: C_15  and  O_16
REMARK    6  A    between atoms: C_17  and  O_18
REMARK                            x       y       z     vdW  Elec       q    Type
REMARK                         _______ _______ _______ _____ _____    ______ ____
ROOT
ATOM      1  O   UNL     1       3.815   6.454  18.988  0.00  0.00    +0.000 OA
ATOM      2  C   UNL     1       3.778   5.706  18.023  0.00  0.00    +0.000 C 
ENDROOT
BRANCH   2   3
ATOM      3  C   UNL     1       4.987   5.329  17.254  0.00  0.00    +0.000 A 
ATOM      4  C   UNL     1       4.995   5.570  15.871  0.00  0.00    +0.000 A 
ATOM      5  C   UNL     1       6.125   5.267  15.101  0.00  0.00    +0.000 A 
ATOM      6  C   UNL     1       7.264   4.731  15.705  0.00  0.00    +0.000 A 
ATOM      7  C   UNL     1       7.262   4.518  17.080  0.00  0.00    +0.000 A 
ATOM      8  C   UNL     1       6.141   4.820  17.855  0.00  0.00    +0.000 A 
BRANCH   7   9
ATOM      9  O   UNL     1       8.362   4.025  17.729  0.00  0.00    +0.000 OA
ATOM     10  H   UNL     1       9.156   4.291  17.235  0.00  0.00    +0.000 HD
ENDBRANCH   7   9
BRANCH   8  11
ATOM     11  O   UNL     1       6.242   4.644  19.211  0.00  0.00    +0.000 OA
ATOM     12  H   UNL     1       6.891   5.316  19.505  0.00  0.00    +0.000 HD
ENDBRANCH   8  11
ENDBRANCH   2   3
BRANCH   2  13
ATOM     13  O   UNL     1       2.675   5.131  17.491  0.00  0.00    +0.000 OA
BRANCH  13  14
ATOM     14  C   UNL     1       2.575   3.713  17.640  0.00  0.00    +0.000 C 
BRANCH  14  15
ATOM     15  C   UNL     1       2.398   3.329  19.086  0.00  0.00    +0.000 A 
ATOM     16  C   UNL     1       1.188   3.574  19.750  0.00  0.00    +0.000 A 
ATOM     17  C   UNL     1       1.020   3.188  21.082  0.00  0.00    +0.000 A 
ATOM     18  C   UNL     1       2.062   2.562  21.764  0.00  0.00    +0.000 A 
ATOM     19  C   UNL     1       3.274   2.327  21.117  0.00  0.00    +0.000 A 
ATOM     20  C   UNL     1       3.444   2.712  19.786  0.00  0.00    +0.000 A 
ENDBRANCH  14  15
ENDBRANCH  13  14
ENDBRANCH   2  13
TORSDOF 6
ENDMDL
