MODEL 1
REMARK VINA RESULT:      -7.9      0.000      0.000
REMARK  Name = 
REMARK  8 active torsions:
REMARK  status: ('A' for Active; 'I' for Inactive)
REMARK    1  A    between atoms: C_1  and  O_2
REMARK    2  A    between atoms: O_2  and  C_3
REMARK    3  A    between atoms: C_6  and  C_7
REMARK    4  A    between atoms: C_7  and  N_8
REMARK    5  A    between atoms: C_14  and  C_15
REMARK    6  A    between atoms: C_15  and  N_16
REMARK    7  A    between atoms: N_19  and  C_20
REMARK    8  A    between atoms: N_19  and  C_21
REMARK                            x       y       z     vdW  Elec       q    Type
REMARK                         _______ _______ _______ _____ _____    ______ ____
ROOT
ATOM      1  N   UNL     1       4.322   3.802  17.794  0.00  0.00    +0.000 NA
ATOM      2  C   UNL     1       3.863   2.424  17.594  0.00  0.00    +0.000 C 
ATOM      3  C   UNL     1       2.590   2.017  18.337  0.00  0.00    +0.000 C 
ATOM      4  C   UNL     1       1.494   3.088  18.284  0.00  0.00    +0.000 C 
ATOM      5  C   UNL     1       0.486   2.900  19.407  0.00  0.00    +0.000 C 
ATOM      6  O   UNL     1       0.981   3.638  20.548  0.00  0.00    +0.000 OA
ATOM      7  C   UNL     1       2.193   4.336  20.142  0.00  0.00    +0.000 C 
ATOM      8  C   UNL     1       2.048   4.457  18.634  0.00  0.00    +0.000 C 
ATOM      9  C   UNL     1       3.277   4.819  17.827  0.00  0.00    +0.000 C 
ENDROOT
BRANCH   1  10
ATOM     10  C   UNL     1       5.413   4.176  16.858  0.00  0.00    +0.000 C 
BRANCH  10  14
ATOM     11  C   UNL     1       7.938   7.423  18.260  0.00  0.00    +0.000 A 
ATOM     12  C   UNL     1       7.977   6.181  18.893  0.00  0.00    +0.000 A 
ATOM     13  C   UNL     1       7.202   5.117  18.421  0.00  0.00    +0.000 A 
ATOM     14  C   UNL     1       6.345   5.288  17.323  0.00  0.00    +0.000 A 
ATOM     15  C   UNL     1       6.321   6.542  16.692  0.00  0.00    +0.000 A 
ATOM     16  C   UNL     1       7.100   7.603  17.161  0.00  0.00    +0.000 A 
BRANCH  11  18
ATOM     17  C   UNL     1       8.597   9.690  18.246  0.00  0.00    +0.000 C 
ATOM     18  O   UNL     1       8.732   8.391  18.814  0.00  0.00    +0.000 OA
ENDBRANCH  11  18
ENDBRANCH  10  14
ENDBRANCH   1  10
BRANCH   7  19
ATOM     19  C   UNL     1       2.304   5.672  20.869  0.00  0.00    +0.000 C 
BRANCH  19  20
ATOM     20  N   UNL     1       2.151   6.793  19.957  0.00  0.00    +0.000 N 
ATOM     21  C   UNL     1       1.564   7.962  20.376  0.00  0.00    +0.000 C 
ATOM     22  O   UNL     1       1.220   8.122  21.544  0.00  0.00    +0.000 OA
ATOM     23  N   UNL     1       1.423   8.935  19.404  0.00  0.00    +0.000 N 
ATOM     24  C   UNL     1       1.950   8.874  18.044  0.00  0.00    +0.000 C 
ATOM     25  C   UNL     1       0.858  10.216  19.791  0.00  0.00    +0.000 C 
ATOM     26  H   UNL     1       1.903   6.508  19.022  0.00  0.00    +0.000 HD
ENDBRANCH  19  20
ENDBRANCH   7  19
TORSDOF 5
ENDMDL
MODEL 2
REMARK VINA RESULT:      -7.6      0.325      1.012
REMARK  Name = 
REMARK  8 active torsions:
REMARK  status: ('A' for Active; 'I' for Inactive)
REMARK    1  A    between atoms: C_1  and  O_2
REMARK    2  A    between atoms: O_2  and  C_3
REMARK    3  A    between atoms: C_6  and  C_7
REMARK    4  A    between atoms: C_7  and  N_8
REMARK    5  A    between atoms: C_14  and  C_15
REMARK    6  A    between atoms: C_15  and  N_16
REMARK    7  A    between atoms: N_19  and  C_20
REMARK    8  A    between atoms: N_19  and  C_21
REMARK                            x       y       z     vdW  Elec       q    Type
REMARK                         _______ _______ _______ _____ _____    ______ ____
ROOT
ATOM      1  N   UNL     1       4.460   4.061  17.772  0.00  0.00    +0.000 NA
ATOM      2  C   UNL     1       4.112   2.657  17.532  0.00  0.00    +0.000 C 
ATOM      3  C   UNL     1       2.818   2.157  18.176  0.00  0.00    +0.000 C 
ATOM      4  C   UNL     1       1.658   3.152  18.046  0.00  0.00    +0.000 C 
ATOM      5  C   UNL     1       0.585   2.886  19.091  0.00  0.00    +0.000 C 
ATOM      6  O   UNL     1       0.943   3.645  20.269  0.00  0.00    +0.000 OA
ATOM      7  C   UNL     1       2.131   4.427  19.957  0.00  0.00    +0.000 C 
ATOM      8  C   UNL     1       2.090   4.552  18.443  0.00  0.00    +0.000 C 
ATOM      9  C   UNL     1       3.348   5.004  17.731  0.00  0.00    +0.000 C 
ENDROOT
BRANCH   1  10
ATOM     10  C   UNL     1       5.589   4.516  16.921  0.00  0.00    +0.000 C 
BRANCH  10  14
ATOM     11  C   UNL     1       8.123   7.711  18.423  0.00  0.00    +0.000 A 
ATOM     12  C   UNL     1       7.177   7.973  17.433  0.00  0.00    +0.000 A 
ATOM     13  C   UNL     1       6.326   6.962  16.976  0.00  0.00    +0.000 A 
ATOM     14  C   UNL     1       6.432   5.656  17.479  0.00  0.00    +0.000 A 
ATOM     15  C   UNL     1       7.384   5.409  18.481  0.00  0.00    +0.000 A 
ATOM     16  C   UNL     1       8.231   6.421  18.940  0.00  0.00    +0.000 A 
BRANCH  11  18
ATOM     17  C   UNL     1       8.619   9.999  18.120  0.00  0.00    +0.000 C 
ATOM     18  O   UNL     1       8.906   8.774  18.786  0.00  0.00    +0.000 OA
ENDBRANCH  11  18
ENDBRANCH  10  14
ENDBRANCH   1  10
BRANCH   7  19
ATOM     19  C   UNL     1       2.097   5.761  20.696  0.00  0.00    +0.000 C 
BRANCH  19  20
ATOM     20  N   UNL     1       2.018   6.882  19.775  0.00  0.00    +0.000 N 
ATOM     21  C   UNL     1       1.517   8.093  20.187  0.00  0.00    +0.000 C 
ATOM     22  O   UNL     1       1.192   8.286  21.355  0.00  0.00    +0.000 OA
ATOM     23  N   UNL     1       1.440   9.066  19.208  0.00  0.00    +0.000 N 
ATOM     24  C   UNL     1       1.953   8.957  17.846  0.00  0.00    +0.000 C 
ATOM     25  C   UNL     1       0.969  10.386  19.587  0.00  0.00    +0.000 C 
ATOM     26  H   UNL     1       1.745   6.608  18.844  0.00  0.00    +0.000 HD
ENDBRANCH  19  20
ENDBRANCH   7  19
TORSDOF 5
ENDMDL
MODEL 3
REMARK VINA RESULT:      -7.5      2.159      6.104
REMARK  Name = 
REMARK  8 active torsions:
REMARK  status: ('A' for Active; 'I' for Inactive)
REMARK    1  A    between atoms: C_1  and  O_2
REMARK    2  A    between atoms: O_2  and  C_3
REMARK    3  A    between atoms: C_6  and  C_7
REMARK    4  A    between atoms: C_7  and  N_8
REMARK    5  A    between atoms: C_14  and  C_15
REMARK    6  A    between atoms: C_15  and  N_16
REMARK    7  A    between atoms: N_19  and  C_20
REMARK    8  A    between atoms: N_19  and  C_21
REMARK                            x       y       z     vdW  Elec       q    Type
REMARK                         _______ _______ _______ _____ _____    ______ ____
ROOT
ATOM      1  N   UNL     1       2.237   5.834  19.911  0.00  0.00    +0.000 NA
ATOM      2  C   UNL     1       1.254   4.845  20.365  0.00  0.00    +0.000 C 
ATOM      3  C   UNL     1       1.392   3.435  19.790  0.00  0.00    +0.000 C 
ATOM      4  C   UNL     1       2.844   2.943  19.743  0.00  0.00    +0.000 C 
ATOM      5  C   UNL     1       3.010   1.814  18.739  0.00  0.00    +0.000 C 
ATOM      6  O   UNL     1       3.305   2.423  17.461  0.00  0.00    +0.000 OA
ATOM      7  C   UNL     1       3.414   3.861  17.662  0.00  0.00    +0.000 C 
ATOM      8  C   UNL     1       3.758   3.991  19.136  0.00  0.00    +0.000 C 
ATOM      9  C   UNL     1       3.608   5.352  19.786  0.00  0.00    +0.000 C 
ENDROOT
BRANCH   1  10
ATOM     10  C   UNL     1       2.175   7.094  20.695  0.00  0.00    +0.000 C 
BRANCH  10  14
ATOM     11  C   UNL     1       0.051  10.323  18.707  0.00  0.00    +0.000 A 
ATOM     12  C   UNL     1      -0.227  10.015  20.039  0.00  0.00    +0.000 A 
ATOM     13  C   UNL     1       0.482   9.008  20.700  0.00  0.00    +0.000 A 
ATOM     14  C   UNL     1       1.464   8.264  20.027  0.00  0.00    +0.000 A 
ATOM     15  C   UNL     1       1.739   8.590  18.689  0.00  0.00    +0.000 A 
ATOM     16  C   UNL     1       1.032   9.600  18.031  0.00  0.00    +0.000 A 
BRANCH  11  18
ATOM     17  C   UNL     1      -2.050  10.958  17.840  0.00  0.00    +0.000 C 
ATOM     18  O   UNL     1      -0.711  11.320  18.161  0.00  0.00    +0.000 OA
ENDBRANCH  11  18
ENDBRANCH  10  14
ENDBRANCH   1  10
BRANCH   7  19
ATOM     19  C   UNL     1       4.458   4.451  16.721  0.00  0.00    +0.000 C 
BRANCH  19  20
ATOM     20  N   UNL     1       5.588   5.000  17.451  0.00  0.00    +0.000 N 
ATOM     21  C   UNL     1       6.113   6.224  17.113  0.00  0.00    +0.000 C 
ATOM     22  O   UNL     1       5.602   6.919  16.239  0.00  0.00    +0.000 OA
ATOM     23  N   UNL     1       7.221   6.615  17.841  0.00  0.00    +0.000 N 
ATOM     24  C   UNL     1       7.783   5.916  18.993  0.00  0.00    +0.000 C 
ATOM     25  C   UNL     1       7.795   7.922  17.572  0.00  0.00    +0.000 C 
ATOM     26  H   UNL     1       6.273   4.302  17.699  0.00  0.00    +0.000 HD
ENDBRANCH  19  20
ENDBRANCH   7  19
TORSDOF 5
ENDMDL
MODEL 4
REMARK VINA RESULT:      -7.4      2.708      6.321
REMARK  Name = 
REMARK  8 active torsions:
REMARK  status: ('A' for Active; 'I' for Inactive)
REMARK    1  A    between atoms: C_1  and  O_2
REMARK    2  A    between atoms: O_2  and  C_3
REMARK    3  A    between atoms: C_6  and  C_7
REMARK    4  A    between atoms: C_7  and  N_8
REMARK    5  A    between atoms: C_14  and  C_15
REMARK    6  A    between atoms: C_15  and  N_16
REMARK    7  A    between atoms: N_19  and  C_20
REMARK    8  A    between atoms: N_19  and  C_21
REMARK                            x       y       z     vdW  Elec       q    Type
REMARK                         _______ _______ _______ _____ _____    ______ ____
ROOT
ATOM      1  N   UNL     1       2.149   5.355  19.759  0.00  0.00    +0.000 NA
ATOM      2  C   UNL     1       1.169   4.264  19.736  0.00  0.00    +0.000 C 
ATOM      3  C   UNL     1       1.574   3.002  18.974  0.00  0.00    +0.000 C 
ATOM      4  C   UNL     1       3.023   2.576  19.241  0.00  0.00    +0.000 C 
ATOM      5  C   UNL     1       3.545   1.675  18.133  0.00  0.00    +0.000 C 
ATOM      6  O   UNL     1       4.113   2.535  17.119  0.00  0.00    +0.000 OA
ATOM      7  C   UNL     1       4.042   3.907  17.601  0.00  0.00    +0.000 C 
ATOM      8  C   UNL     1       3.972   3.753  19.111  0.00  0.00    +0.000 C 
ATOM      9  C   UNL     1       3.541   4.952  19.931  0.00  0.00    +0.000 C 
ENDROOT
BRANCH   1  10
ATOM     10  C   UNL     1       1.775   6.431  20.711  0.00  0.00    +0.000 C 
BRANCH  10  14
ATOM     11  C   UNL     1       1.192  10.354  18.933  0.00  0.00    +0.000 A 
ATOM     12  C   UNL     1       0.799  10.115  20.249  0.00  0.00    +0.000 A 
ATOM     13  C   UNL     1       1.023   8.870  20.845  0.00  0.00    +0.000 A 
ATOM     14  C   UNL     1       1.617   7.826  20.118  0.00  0.00    +0.000 A 
ATOM     15  C   UNL     1       2.013   8.083  18.796  0.00  0.00    +0.000 A 
ATOM     16  C   UNL     1       1.792   9.329  18.203  0.00  0.00    +0.000 A 
BRANCH  11  18
ATOM     17  C   UNL     1       1.315  12.683  19.291  0.00  0.00    +0.000 C 
ATOM     18  O   UNL     1       0.914  11.605  18.453  0.00  0.00    +0.000 OA
ENDBRANCH  11  18
ENDBRANCH  10  14
ENDBRANCH   1  10
BRANCH   7  19
ATOM     19  C   UNL     1       5.244   4.706  17.108  0.00  0.00    +0.000 C 
BRANCH  19  20
ATOM     20  N   UNL     1       5.566   4.391  15.726  0.00  0.00    +0.000 N 
ATOM     21  C   UNL     1       6.644   4.975  15.107  0.00  0.00    +0.000 C 
ATOM     22  O   UNL     1       7.406   5.720  15.719  0.00  0.00    +0.000 OA
ATOM     23  N   UNL     1       6.817   4.641  13.777  0.00  0.00    +0.000 N 
ATOM     24  C   UNL     1       6.049   3.645  13.035  0.00  0.00    +0.000 C 
ATOM     25  C   UNL     1       7.968   5.182  13.076  0.00  0.00    +0.000 C 
ATOM     26  H   UNL     1       4.749   4.291  15.144  0.00  0.00    +0.000 HD
ENDBRANCH  19  20
ENDBRANCH   7  19
TORSDOF 5
ENDMDL
MODEL 5
REMARK VINA RESULT:      -7.1      1.625      1.994
REMARK  Name = 
REMARK  8 active torsions:
REMARK  status: ('A' for Active; 'I' for Inactive)
REMARK    1  A    between atoms: C_1  and  O_2
REMARK    2  A    between atoms: O_2  and  C_3
REMARK    3  A    between atoms: C_6  and  C_7
REMARK    4  A    between atoms: C_7  and  N_8
REMARK    5  A    between atoms: C_14  and  C_15
REMARK    6  A    between atoms: C_15  and  N_16
REMARK    7  A    between atoms: N_19  and  C_20
REMARK    8  A    between atoms: N_19  and  C_21
REMARK                            x       y       z     vdW  Elec       q    Type
REMARK                         _______ _______ _______ _____ _____    ______ ____
ROOT
ATOM      1  N   UNL     1       4.857   4.548  19.026  0.00  0.00    +0.000 NA
ATOM      2  C   UNL     1       4.564   3.267  19.676  0.00  0.00    +0.000 C 
ATOM      3  C   UNL     1       3.178   3.126  20.308  0.00  0.00    +0.000 C 
ATOM      4  C   UNL     1       2.056   3.688  19.427  0.00  0.00    +0.000 C 
ATOM      5  C   UNL     1       0.816   4.001  20.250  0.00  0.00    +0.000 C 
ATOM      6  O   UNL     1       0.955   5.360  20.726  0.00  0.00    +0.000 OA
ATOM      7  C   UNL     1       2.176   5.913  20.157  0.00  0.00    +0.000 C 
ATOM      8  C   UNL     1       2.403   5.072  18.912  0.00  0.00    +0.000 C 
ATOM      9  C   UNL     1       3.766   5.130  18.253  0.00  0.00    +0.000 C 
ENDROOT
BRANCH   1  10
ATOM     10  C   UNL     1       6.117   4.508  18.242  0.00  0.00    +0.000 C 
BRANCH  10  14
ATOM     11  C   UNL     1       8.119   8.353  17.924  0.00  0.00    +0.000 A 
ATOM     12  C   UNL     1       8.489   7.449  18.920  0.00  0.00    +0.000 A 
ATOM     13  C   UNL     1       7.882   6.192  19.002  0.00  0.00    +0.000 A 
ATOM     14  C   UNL     1       6.865   5.829  18.106  0.00  0.00    +0.000 A 
ATOM     15  C   UNL     1       6.508   6.745  17.105  0.00  0.00    +0.000 A 
ATOM     16  C   UNL     1       7.118   8.000  17.021  0.00  0.00    +0.000 A 
BRANCH  11  18
ATOM     17  C   UNL     1       9.173  10.009  19.235  0.00  0.00    +0.000 C 
ATOM     18  O   UNL     1       8.773   9.555  17.946  0.00  0.00    +0.000 OA
ENDBRANCH  11  18
ENDBRANCH  10  14
ENDBRANCH   1  10
BRANCH   7  19
ATOM     19  C   UNL     1       2.005   7.404  19.884  0.00  0.00    +0.000 C 
BRANCH  19  20
ATOM     20  N   UNL     1       1.363   8.083  20.997  0.00  0.00    +0.000 N 
ATOM     21  C   UNL     1       0.836   9.341  20.840  0.00  0.00    +0.000 C 
ATOM     22  O   UNL     1       0.824   9.897  19.745  0.00  0.00    +0.000 OA
ATOM     23  N   UNL     1       0.302   9.907  21.983  0.00  0.00    +0.000 N 
ATOM     24  C   UNL     1       0.139   9.245  23.273  0.00  0.00    +0.000 C 
ATOM     25  C   UNL     1      -0.320  11.215  21.876  0.00  0.00    +0.000 C 
ATOM     26  H   UNL     1       1.834   7.929  21.875  0.00  0.00    +0.000 HD
ENDBRANCH  19  20
ENDBRANCH   7  19
TORSDOF 5
ENDMDL
MODEL 6
REMARK VINA RESULT:      -6.9      2.773      6.879
REMARK  Name = 
REMARK  8 active torsions:
REMARK  status: ('A' for Active; 'I' for Inactive)
REMARK    1  A    between atoms: C_1  and  O_2
REMARK    2  A    between atoms: O_2  and  C_3
REMARK    3  A    between atoms: C_6  and  C_7
REMARK    4  A    between atoms: C_7  and  N_8
REMARK    5  A    between atoms: C_14  and  C_15
REMARK    6  A    between atoms: C_15  and  N_16
REMARK    7  A    between atoms: N_19  and  C_20
REMARK    8  A    between atoms: N_19  and  C_21
REMARK                            x       y       z     vdW  Elec       q    Type
REMARK                         _______ _______ _______ _____ _____    ______ ____
ROOT
ATOM      1  N   UNL     1       2.959   6.605  17.802  0.00  0.00    +0.000 NA
ATOM      2  C   UNL     1       1.665   5.950  18.017  0.00  0.00    +0.000 C 
ATOM      3  C   UNL     1       1.679   4.423  18.091  0.00  0.00    +0.000 C 
ATOM      4  C   UNL     1       2.841   3.871  18.926  0.00  0.00    +0.000 C 
ATOM      5  C   UNL     1       3.132   2.421  18.573  0.00  0.00    +0.000 C 
ATOM      6  O   UNL     1       4.082   2.432  17.483  0.00  0.00    +0.000 OA
ATOM      7  C   UNL     1       4.448   3.817  17.219  0.00  0.00    +0.000 C 
ATOM      8  C   UNL     1       4.155   4.521  18.533  0.00  0.00    +0.000 C 
ATOM      9  C   UNL     1       4.086   6.034  18.531  0.00  0.00    +0.000 C 
ENDROOT
BRANCH   1  10
ATOM     10  C   UNL     1       2.884   8.077  17.984  0.00  0.00    +0.000 C 
BRANCH  10  14
ATOM     11  C   UNL     1       0.015   9.603  20.869  0.00  0.00    +0.000 A 
ATOM     12  C   UNL     1       0.019  10.086  19.561  0.00  0.00    +0.000 A 
ATOM     13  C   UNL     1       0.908   9.569  18.614  0.00  0.00    +0.000 A 
ATOM     14  C   UNL     1       1.837   8.579  18.970  0.00  0.00    +0.000 A 
ATOM     15  C   UNL     1       1.816   8.097  20.288  0.00  0.00    +0.000 A 
ATOM     16  C   UNL     1       0.924   8.611  21.233  0.00  0.00    +0.000 A 
BRANCH  11  18
ATOM     17  C   UNL     1      -0.512  11.458  22.230  0.00  0.00    +0.000 C 
ATOM     18  O   UNL     1      -0.892  10.188  21.710  0.00  0.00    +0.000 OA
ENDBRANCH  11  18
ENDBRANCH  10  14
ENDBRANCH   1  10
BRANCH   7  19
ATOM     19  C   UNL     1       5.904   3.904  16.773  0.00  0.00    +0.000 C 
BRANCH  19  20
ATOM     20  N   UNL     1       6.030   3.789  15.330  0.00  0.00    +0.000 N 
ATOM     21  C   UNL     1       6.867   4.623  14.631  0.00  0.00    +0.000 C 
ATOM     22  O   UNL     1       7.585   5.437  15.206  0.00  0.00    +0.000 OA
ATOM     23  N   UNL     1       6.860   4.455  13.258  0.00  0.00    +0.000 N 
ATOM     24  C   UNL     1       6.157   3.407  12.525  0.00  0.00    +0.000 C 
ATOM     25  C   UNL     1       7.762   5.268  12.462  0.00  0.00    +0.000 C 
ATOM     26  H   UNL     1       5.153   3.592  14.873  0.00  0.00    +0.000 HD
ENDBRANCH  19  20
ENDBRANCH   7  19
TORSDOF 5
ENDMDL
MODEL 7
REMARK VINA RESULT:      -6.9      2.785      6.836
REMARK  Name = 
REMARK  8 active torsions:
REMARK  status: ('A' for Active; 'I' for Inactive)
REMARK    1  A    between atoms: C_1  and  O_2
REMARK    2  A    between atoms: O_2  and  C_3
REMARK    3  A    between atoms: C_6  and  C_7
REMARK    4  A    between atoms: C_7  and  N_8
REMARK    5  A    between atoms: C_14  and  C_15
REMARK    6  A    between atoms: C_15  and  N_16
REMARK    7  A    between atoms: N_19  and  C_20
REMARK    8  A    between atoms: N_19  and  C_21
REMARK                            x       y       z     vdW  Elec       q    Type
REMARK                         _______ _______ _______ _____ _____    ______ ____
ROOT
ATOM      1  N   UNL     1       2.942   6.537  17.787  0.00  0.00    +0.000 NA
ATOM      2  C   UNL     1       1.657   5.866  18.006  0.00  0.00    +0.000 C 
ATOM      3  C   UNL     1       1.686   4.338  18.054  0.00  0.00    +0.000 C 
ATOM      4  C   UNL     1       2.862   3.784  18.866  0.00  0.00    +0.000 C 
ATOM      5  C   UNL     1       3.163   2.343  18.486  0.00  0.00    +0.000 C 
ATOM      6  O   UNL     1       4.100   2.381  17.386  0.00  0.00    +0.000 OA
ATOM      7  C   UNL     1       4.450   3.773  17.141  0.00  0.00    +0.000 C 
ATOM      8  C   UNL     1       4.166   4.453  18.470  0.00  0.00    +0.000 C 
ATOM      9  C   UNL     1       4.083   5.965  18.493  0.00  0.00    +0.000 C 
ENDROOT
BRANCH   1  10
ATOM     10  C   UNL     1       2.856   8.005  17.994  0.00  0.00    +0.000 C 
BRANCH  10  14
ATOM     11  C   UNL     1      -0.020   9.257  21.002  0.00  0.00    +0.000 A 
ATOM     12  C   UNL     1       0.907   8.257  21.292  0.00  0.00    +0.000 A 
ATOM     13  C   UNL     1       1.865   7.879  20.346  0.00  0.00    +0.000 A 
ATOM     14  C   UNL     1       1.890   8.474  19.076  0.00  0.00    +0.000 A 
ATOM     15  C   UNL     1       0.955   9.484  18.801  0.00  0.00    +0.000 A 
ATOM     16  C   UNL     1       0.001   9.865  19.748  0.00  0.00    +0.000 A 
BRANCH  11  18
ATOM     17  C   UNL     1      -0.451  10.437  23.001  0.00  0.00    +0.000 C 
ATOM     18  O   UNL     1      -0.915   9.538  22.000  0.00  0.00    +0.000 OA
ENDBRANCH  11  18
ENDBRANCH  10  14
ENDBRANCH   1  10
BRANCH   7  19
ATOM     19  C   UNL     1       5.900   3.882  16.680  0.00  0.00    +0.000 C 
BRANCH  19  20
ATOM     20  N   UNL     1       6.013   3.766  15.236  0.00  0.00    +0.000 N 
ATOM     21  C   UNL     1       6.859   4.586  14.530  0.00  0.00    +0.000 C 
ATOM     22  O   UNL     1       7.595   5.387  15.100  0.00  0.00    +0.000 OA
ATOM     23  N   UNL     1       6.838   4.420  13.158  0.00  0.00    +0.000 N 
ATOM     24  C   UNL     1       6.112   3.385  12.429  0.00  0.00    +0.000 C 
ATOM     25  C   UNL     1       7.748   5.219  12.355  0.00  0.00    +0.000 C 
ATOM     26  H   UNL     1       5.129   3.584  14.785  0.00  0.00    +0.000 HD
ENDBRANCH  19  20
ENDBRANCH   7  19
TORSDOF 5
ENDMDL
MODEL 8
REMARK VINA RESULT:      -6.8      2.613      3.639
REMARK  Name = 
REMARK  8 active torsions:
REMARK  status: ('A' for Active; 'I' for Inactive)
REMARK    1  A    between atoms: C_1  and  O_2
REMARK    2  A    between atoms: O_2  and  C_3
REMARK    3  A    between atoms: C_6  and  C_7
REMARK    4  A    between atoms: C_7  and  N_8
REMARK    5  A    between atoms: C_14  and  C_15
REMARK    6  A    between atoms: C_15  and  N_16
REMARK    7  A    between atoms: N_19  and  C_20
REMARK    8  A    between atoms: N_19  and  C_21
REMARK                            x       y       z     vdW  Elec       q    Type
REMARK                         _______ _______ _______ _____ _____    ______ ____
ROOT
ATOM      1  N   UNL     1       5.100   4.649  18.952  0.00  0.00    +0.000 NA
ATOM      2  C   UNL     1       4.759   3.342  19.522  0.00  0.00    +0.000 C 
ATOM      3  C   UNL     1       3.334   3.181  20.052  0.00  0.00    +0.000 C 
ATOM      4  C   UNL     1       2.275   3.789  19.124  0.00  0.00    +0.000 C 
ATOM      5  C   UNL     1       0.983   4.073  19.874  0.00  0.00    +0.000 C 
ATOM      6  O   UNL     1       1.094   5.408  20.420  0.00  0.00    +0.000 OA
ATOM      7  C   UNL     1       2.353   5.979  19.960  0.00  0.00    +0.000 C 
ATOM      8  C   UNL     1       2.662   5.193  18.696  0.00  0.00    +0.000 C 
ATOM      9  C   UNL     1       4.066   5.272  18.134  0.00  0.00    +0.000 C 
ENDROOT
BRANCH   1  10
ATOM     10  C   UNL     1       6.411   4.636  18.253  0.00  0.00    +0.000 C 
BRANCH  10  14
ATOM     11  C   UNL     1       6.407   4.286  13.922  0.00  0.00    +0.000 A 
ATOM     12  C   UNL     1       5.552   3.496  14.690  0.00  0.00    +0.000 A 
ATOM     13  C   UNL     1       5.514   3.634  16.081  0.00  0.00    +0.000 A 
ATOM     14  C   UNL     1       6.359   4.544  16.733  0.00  0.00    +0.000 A 
ATOM     15  C   UNL     1       7.209   5.337  15.947  0.00  0.00    +0.000 A 
ATOM     16  C   UNL     1       7.244   5.202  14.556  0.00  0.00    +0.000 A 
BRANCH  11  18
ATOM     17  C   UNL     1       5.612   2.920  12.168  0.00  0.00    +0.000 C 
ATOM     18  O   UNL     1       6.365   4.058  12.572  0.00  0.00    +0.000 OA
ENDBRANCH  11  18
ENDBRANCH  10  14
ENDBRANCH   1  10
BRANCH   7  19
ATOM     19  C   UNL     1       2.206   7.481  19.743  0.00  0.00    +0.000 C 
BRANCH  19  20
ATOM     20  N   UNL     1       1.531   8.121  20.860  0.00  0.00    +0.000 N 
ATOM     21  C   UNL     1       0.915   9.338  20.702  0.00  0.00    +0.000 C 
ATOM     22  O   UNL     1       0.851   9.885  19.604  0.00  0.00    +0.000 OA
ATOM     23  N   UNL     1       0.357   9.872  21.849  0.00  0.00    +0.000 N 
ATOM     24  C   UNL     1       0.256   9.208  23.145  0.00  0.00    +0.000 C 
ATOM     25  C   UNL     1      -0.357  11.133  21.743  0.00  0.00    +0.000 C 
ATOM     26  H   UNL     1       2.022   8.006  21.733  0.00  0.00    +0.000 HD
ENDBRANCH  19  20
ENDBRANCH   7  19
TORSDOF 5
ENDMDL
MODEL 9
REMARK VINA RESULT:      -6.8      2.113      6.284
REMARK  Name = 
REMARK  8 active torsions:
REMARK  status: ('A' for Active; 'I' for Inactive)
REMARK    1  A    between atoms: C_1  and  O_2
REMARK    2  A    between atoms: O_2  and  C_3
REMARK    3  A    between atoms: C_6  and  C_7
REMARK    4  A    between atoms: C_7  and  N_8
REMARK    5  A    between atoms: C_14  and  C_15
REMARK    6  A    between atoms: C_15  and  N_16
REMARK    7  A    between atoms: N_19  and  C_20
REMARK    8  A    between atoms: N_19  and  C_21
REMARK                            x       y       z     vdW  Elec       q    Type
REMARK                         _______ _______ _______ _____ _____    ______ ____
ROOT
ATOM      1  N   UNL     1       3.658   6.883  17.872  0.00  0.00    +0.000 NA
ATOM      2  C   UNL     1       4.730   7.714  17.316  0.00  0.00    +0.000 C 
ATOM      3  C   UNL     1       6.110   7.063  17.208  0.00  0.00    +0.000 C 
ATOM      4  C   UNL     1       6.057   5.623  16.685  0.00  0.00    +0.000 C 
ATOM      5  C   UNL     1       7.313   4.853  17.062  0.00  0.00    +0.000 C 
ATOM      6  O   UNL     1       7.073   4.260  18.359  0.00  0.00    +0.000 OA
ATOM      7  C   UNL     1       5.700   4.559  18.744  0.00  0.00    +0.000 C 
ATOM      8  C   UNL     1       5.004   4.811  17.417  0.00  0.00    +0.000 C 
ATOM      9  C   UNL     1       3.649   5.489  17.442  0.00  0.00    +0.000 C 
ENDROOT
BRANCH   1  10
ATOM     10  C   UNL     1       2.320   7.508  17.716  0.00  0.00    +0.000 C 
BRANCH  10  14
ATOM     11  C   UNL     1       0.935   9.655  21.231  0.00  0.00    +0.000 A 
ATOM     12  C   UNL     1       0.841  10.241  19.969  0.00  0.00    +0.000 A 
ATOM     13  C   UNL     1       1.242   9.541  18.827  0.00  0.00    +0.000 A 
ATOM     14  C   UNL     1       1.779   8.248  18.933  0.00  0.00    +0.000 A 
ATOM     15  C   UNL     1       1.861   7.669  20.208  0.00  0.00    +0.000 A 
ATOM     16  C   UNL     1       1.456   8.368  21.349  0.00  0.00    +0.000 A 
BRANCH  11  18
ATOM     17  C   UNL     1      -0.548   9.906  23.050  0.00  0.00    +0.000 C 
ATOM     18  O   UNL     1       0.522  10.438  22.276  0.00  0.00    +0.000 OA
ENDBRANCH  11  18
ENDBRANCH  10  14
ENDBRANCH   1  10
BRANCH   7  19
ATOM     19  C   UNL     1       5.113   3.406  19.550  0.00  0.00    +0.000 C 
BRANCH  19  20
ATOM     20  N   UNL     1       3.688   3.580  19.775  0.00  0.00    +0.000 N 
ATOM     21  C   UNL     1       2.778   2.717  19.214  0.00  0.00    +0.000 C 
ATOM     22  O   UNL     1       3.141   1.736  18.571  0.00  0.00    +0.000 OA
ATOM     23  N   UNL     1       1.450   3.018  19.452  0.00  0.00    +0.000 N 
ATOM     24  C   UNL     1       0.952   4.070  20.334  0.00  0.00    +0.000 C 
ATOM     25  C   UNL     1       0.437   2.117  18.932  0.00  0.00    +0.000 C 
ATOM     26  H   UNL     1       3.405   4.548  19.775  0.00  0.00    +0.000 HD
ENDBRANCH  19  20
ENDBRANCH   7  19
TORSDOF 5
ENDMDL
