MODEL 1
REMARK VINA RESULT:      -7.8      0.000      0.000
REMARK  Name = 
REMARK  6 active torsions:
REMARK  status: ('A' for Active; 'I' for Inactive)
REMARK    1  A    between atoms: C_1  and  O_2
REMARK    2  A    between atoms: O_2  and  C_3
REMARK    3  A    between atoms: C_6  and  N_7
REMARK    4  A    between atoms: C_11  and  C_12
REMARK    5  A    between atoms: C_18  and  O_19
REMARK    6  A    between atoms: O_19  and  C_20
REMARK                            x       y       z     vdW  Elec       q    Type
REMARK                         _______ _______ _______ _____ _____    ______ ____
ROOT
ATOM      1  N   UNL     1       8.195   9.732  17.927  0.00  0.00    +0.000 N 
ATOM      2  C   UNL     1       7.990   8.404  18.123  0.00  0.00    +0.000 A 
ATOM      3  N   UNL     1       8.519   7.570  19.007  0.00  0.00    +0.000 NA
ATOM      4  N   UNL     1       8.013   6.258  18.934  0.00  0.00    +0.000 NA
ATOM      5  C   UNL     1       7.134   6.123  17.966  0.00  0.00    +0.000 A 
ATOM      6  S   UNL     1       6.909   7.603  17.066  0.00  0.00    +0.000 S 
ATOM      7  H   UNL     1       7.626  10.180  17.216  0.00  0.00    +0.000 HD
ENDROOT
BRANCH   5   8
ATOM      8  C   UNL     1       6.238   4.928  17.678  0.00  0.00    +0.000 A 
ATOM      9  C   UNL     1       6.396   4.329  16.435  0.00  0.00    +0.000 A 
ATOM     10  N   UNL     1       5.204   3.776  16.126  0.00  0.00    +0.000 N 
ATOM     11  C   UNL     1       4.579   3.432  17.290  0.00  0.00    +0.000 A 
ATOM     12  C   UNL     1       3.527   2.535  17.419  0.00  0.00    +0.000 A 
ATOM     13  C   UNL     1       3.082   2.276  18.697  0.00  0.00    +0.000 A 
ATOM     14  C   UNL     1       3.604   2.948  19.804  0.00  0.00    +0.000 A 
ATOM     15  C   UNL     1       4.617   3.937  19.647  0.00  0.00    +0.000 A 
ATOM     16  C   UNL     1       5.182   4.159  18.339  0.00  0.00    +0.000 A 
ATOM     17  H   UNL     1       4.899   3.506  15.201  0.00  0.00    +0.000 HD
BRANCH  14  18
ATOM     18  O   UNL     1       3.028   2.442  20.933  0.00  0.00    +0.000 OA
ATOM     19  C   UNL     1       1.900   3.029  21.540  0.00  0.00    +0.000 C 
ENDBRANCH  14  18
ENDBRANCH   5   8
BRANCH   1  23
ATOM     20  C   UNL     1      11.270  12.175  19.520  0.00  0.00    +0.000 A 
ATOM     21  C   UNL     1      11.068  12.088  18.142  0.00  0.00    +0.000 A 
ATOM     22  C   UNL     1      10.025  11.299  17.629  0.00  0.00    +0.000 A 
ATOM     23  C   UNL     1       9.175  10.577  18.483  0.00  0.00    +0.000 A 
ATOM     24  C   UNL     1       9.385  10.695  19.859  0.00  0.00    +0.000 A 
ATOM     25  C   UNL     1      10.417  11.494  20.375  0.00  0.00    +0.000 A 
BRANCH  20  27
ATOM     26  C   UNL     1      12.333  14.275  19.375  0.00  0.00    +0.000 C 
ATOM     27  O   UNL     1      12.326  12.955  19.906  0.00  0.00    +0.000 OA
ENDBRANCH  20  27
ENDBRANCH   1  23
TORSDOF 4
ENDMDL
MODEL 2
REMARK VINA RESULT:      -7.7      0.641      1.147
REMARK  Name = 
REMARK  6 active torsions:
REMARK  status: ('A' for Active; 'I' for Inactive)
REMARK    1  A    between atoms: C_1  and  O_2
REMARK    2  A    between atoms: O_2  and  C_3
REMARK    3  A    between atoms: C_6  and  N_7
REMARK    4  A    between atoms: C_11  and  C_12
REMARK    5  A    between atoms: C_18  and  O_19
REMARK    6  A    between atoms: O_19  and  C_20
REMARK                            x       y       z     vdW  Elec       q    Type
REMARK                         _______ _______ _______ _____ _____    ______ ____
ROOT
ATOM      1  N   UNL     1       8.243   9.715  17.917  0.00  0.00    +0.000 N 
ATOM      2  C   UNL     1       7.998   8.393  18.114  0.00  0.00    +0.000 A 
ATOM      3  N   UNL     1       8.573   7.521  18.931  0.00  0.00    +0.000 NA
ATOM      4  N   UNL     1       8.004   6.234  18.890  0.00  0.00    +0.000 NA
ATOM      5  C   UNL     1       7.029   6.155  18.012  0.00  0.00    +0.000 A 
ATOM      6  S   UNL     1       6.784   7.658  17.159  0.00  0.00    +0.000 S 
ATOM      7  H   UNL     1       7.627  10.199  17.272  0.00  0.00    +0.000 HD
ENDROOT
BRANCH   5   8
ATOM      8  C   UNL     1       6.057   5.005  17.798  0.00  0.00    +0.000 A 
ATOM      9  C   UNL     1       6.430   4.054  16.858  0.00  0.00    +0.000 A 
ATOM     10  N   UNL     1       5.284   3.532  16.369  0.00  0.00    +0.000 N 
ATOM     11  C   UNL     1       4.334   3.601  17.347  0.00  0.00    +0.000 A 
ATOM     12  C   UNL     1       3.153   2.872  17.393  0.00  0.00    +0.000 A 
ATOM     13  C   UNL     1       2.358   3.041  18.505  0.00  0.00    +0.000 A 
ATOM     14  C   UNL     1       2.680   3.966  19.501  0.00  0.00    +0.000 A 
ATOM     15  C   UNL     1       3.845   4.779  19.393  0.00  0.00    +0.000 A 
ATOM     16  C   UNL     1       4.756   4.555  18.298  0.00  0.00    +0.000 A 
ATOM     17  H   UNL     1       5.188   3.026  15.500  0.00  0.00    +0.000 HD
BRANCH  14  18
ATOM     18  O   UNL     1       1.759   3.867  20.503  0.00  0.00    +0.000 OA
ATOM     19  C   UNL     1       2.063   3.308  21.760  0.00  0.00    +0.000 C 
ENDBRANCH  14  18
ENDBRANCH   5   8
BRANCH   1  23
ATOM     20  C   UNL     1      11.332  12.219  19.381  0.00  0.00    +0.000 A 
ATOM     21  C   UNL     1      10.388  11.667  20.247  0.00  0.00    +0.000 A 
ATOM     22  C   UNL     1       9.388  10.813  19.753  0.00  0.00    +0.000 A 
ATOM     23  C   UNL     1       9.309  10.506  18.385  0.00  0.00    +0.000 A 
ATOM     24  C   UNL     1      10.276  11.055  17.539  0.00  0.00    +0.000 A 
ATOM     25  C   UNL     1      11.285  11.897  18.033  0.00  0.00    +0.000 A 
BRANCH  20  27
ATOM     26  C   UNL     1      12.036  14.440  19.742  0.00  0.00    +0.000 C 
ATOM     27  O   UNL     1      12.247  13.051  19.967  0.00  0.00    +0.000 OA
ENDBRANCH  20  27
ENDBRANCH   1  23
TORSDOF 4
ENDMDL
MODEL 3
REMARK VINA RESULT:      -7.3      7.606      9.719
REMARK  Name = 
REMARK  6 active torsions:
REMARK  status: ('A' for Active; 'I' for Inactive)
REMARK    1  A    between atoms: C_1  and  O_2
REMARK    2  A    between atoms: O_2  and  C_3
REMARK    3  A    between atoms: C_6  and  N_7
REMARK    4  A    between atoms: C_11  and  C_12
REMARK    5  A    between atoms: C_18  and  O_19
REMARK    6  A    between atoms: O_19  and  C_20
REMARK                            x       y       z     vdW  Elec       q    Type
REMARK                         _______ _______ _______ _____ _____    ______ ____
ROOT
ATOM      1  N   UNL     1       2.943   6.573  18.661  0.00  0.00    +0.000 N 
ATOM      2  C   UNL     1       2.372   7.787  18.452  0.00  0.00    +0.000 A 
ATOM      3  N   UNL     1       2.406   8.587  17.395  0.00  0.00    +0.000 NA
ATOM      4  N   UNL     1       1.638   9.759  17.535  0.00  0.00    +0.000 NA
ATOM      5  C   UNL     1       1.066   9.833  18.716  0.00  0.00    +0.000 A 
ATOM      6  S   UNL     1       1.476   8.476  19.736  0.00  0.00    +0.000 S 
ATOM      7  H   UNL     1       2.727   6.115  19.541  0.00  0.00    +0.000 HD
ENDROOT
BRANCH   5   8
ATOM      8  C   UNL     1       0.026  10.837  19.189  0.00  0.00    +0.000 A 
ATOM      9  C   UNL     1       0.472  11.812  20.072  0.00  0.00    +0.000 A 
ATOM     10  N   UNL     1      -0.597  12.166  20.818  0.00  0.00    +0.000 N 
ATOM     11  C   UNL     1      -1.721  11.988  20.065  0.00  0.00    +0.000 A 
ATOM     12  C   UNL     1      -2.966  12.553  20.308  0.00  0.00    +0.000 A 
ATOM     13  C   UNL     1      -3.957  12.299  19.385  0.00  0.00    +0.000 A 
ATOM     14  C   UNL     1      -3.746  11.445  18.301  0.00  0.00    +0.000 A 
ATOM     15  C   UNL     1      -2.492  10.794  18.117  0.00  0.00    +0.000 A 
ATOM     16  C   UNL     1      -1.399  11.117  19.001  0.00  0.00    +0.000 A 
ATOM     17  H   UNL     1      -0.564  12.638  21.711  0.00  0.00    +0.000 HD
BRANCH  14  18
ATOM     18  O   UNL     1      -4.869  11.439  17.525  0.00  0.00    +0.000 OA
ATOM     19  C   UNL     1      -5.800  12.496  17.528  0.00  0.00    +0.000 C 
ENDBRANCH  14  18
ENDBRANCH   5   8
BRANCH   1  23
ATOM     20  C   UNL     1       5.787   4.630  16.193  0.00  0.00    +0.000 A 
ATOM     21  C   UNL     1       5.970   5.956  16.588  0.00  0.00    +0.000 A 
ATOM     22  C   UNL     1       5.036   6.577  17.432  0.00  0.00    +0.000 A 
ATOM     23  C   UNL     1       3.898   5.889  17.886  0.00  0.00    +0.000 A 
ATOM     24  C   UNL     1       3.746   4.557  17.493  0.00  0.00    +0.000 A 
ATOM     25  C   UNL     1       4.687   3.928  16.661  0.00  0.00    +0.000 A 
BRANCH  20  27
ATOM     26  C   UNL     1       6.391   4.086  13.979  0.00  0.00    +0.000 C 
ATOM     27  O   UNL     1       6.748   4.132  15.356  0.00  0.00    +0.000 OA
ENDBRANCH  20  27
ENDBRANCH   1  23
TORSDOF 4
ENDMDL
MODEL 4
REMARK VINA RESULT:      -7.3      6.898      8.270
REMARK  Name = 
REMARK  6 active torsions:
REMARK  status: ('A' for Active; 'I' for Inactive)
REMARK    1  A    between atoms: C_1  and  O_2
REMARK    2  A    between atoms: O_2  and  C_3
REMARK    3  A    between atoms: C_6  and  N_7
REMARK    4  A    between atoms: C_11  and  C_12
REMARK    5  A    between atoms: C_18  and  O_19
REMARK    6  A    between atoms: O_19  and  C_20
REMARK                            x       y       z     vdW  Elec       q    Type
REMARK                         _______ _______ _______ _____ _____    ______ ____
ROOT
ATOM      1  N   UNL     1       0.603  10.700  19.558  0.00  0.00    +0.000 N 
ATOM      2  C   UNL     1       1.181   9.474  19.630  0.00  0.00    +0.000 A 
ATOM      3  N   UNL     1       1.373   8.668  20.665  0.00  0.00    +0.000 NA
ATOM      4  N   UNL     1       1.969   7.436  20.332  0.00  0.00    +0.000 NA
ATOM      5  C   UNL     1       2.247   7.355  19.050  0.00  0.00    +0.000 A 
ATOM      6  S   UNL     1       1.821   8.812  18.187  0.00  0.00    +0.000 S 
ATOM      7  H   UNL     1       0.514  11.108  18.633  0.00  0.00    +0.000 HD
ENDROOT
BRANCH   5   8
ATOM      8  C   UNL     1       2.723   6.137  18.273  0.00  0.00    +0.000 A 
ATOM      9  C   UNL     1       1.922   5.005  18.357  0.00  0.00    +0.000 A 
ATOM     10  N   UNL     1       2.742   3.947  18.177  0.00  0.00    +0.000 N 
ATOM     11  C   UNL     1       3.777   4.339  17.378  0.00  0.00    +0.000 A 
ATOM     12  C   UNL     1       4.626   3.501  16.669  0.00  0.00    +0.000 A 
ATOM     13  C   UNL     1       5.569   4.103  15.865  0.00  0.00    +0.000 A 
ATOM     14  C   UNL     1       5.722   5.490  15.830  0.00  0.00    +0.000 A 
ATOM     15  C   UNL     1       4.908   6.336  16.638  0.00  0.00    +0.000 A 
ATOM     16  C   UNL     1       3.840   5.750  17.410  0.00  0.00    +0.000 A 
ATOM     17  H   UNL     1       2.541   2.992  18.441  0.00  0.00    +0.000 HD
BRANCH  14  18
ATOM     18  O   UNL     1       6.674   5.801  14.903  0.00  0.00    +0.000 OA
ATOM     19  C   UNL     1       7.110   4.885  13.926  0.00  0.00    +0.000 C 
ENDBRANCH  14  18
ENDBRANCH   5   8
BRANCH   1  23
ATOM     20  C   UNL     1      -0.755  13.297  22.620  0.00  0.00    +0.000 A 
ATOM     21  C   UNL     1      -1.257  12.000  22.508  0.00  0.00    +0.000 A 
ATOM     22  C   UNL     1      -0.775  11.139  21.508  0.00  0.00    +0.000 A 
ATOM     23  C   UNL     1       0.207  11.563  20.598  0.00  0.00    +0.000 A 
ATOM     24  C   UNL     1       0.708  12.860  20.742  0.00  0.00    +0.000 A 
ATOM     25  C   UNL     1       0.239  13.717  21.750  0.00  0.00    +0.000 A 
BRANCH  20  27
ATOM     26  C   UNL     1      -2.696  13.833  23.847  0.00  0.00    +0.000 C 
ATOM     27  O   UNL     1      -1.309  14.053  23.616  0.00  0.00    +0.000 OA
ENDBRANCH  20  27
ENDBRANCH   1  23
TORSDOF 4
ENDMDL
MODEL 5
REMARK VINA RESULT:      -7.3      6.664      8.747
REMARK  Name = 
REMARK  6 active torsions:
REMARK  status: ('A' for Active; 'I' for Inactive)
REMARK    1  A    between atoms: C_1  and  O_2
REMARK    2  A    between atoms: O_2  and  C_3
REMARK    3  A    between atoms: C_6  and  N_7
REMARK    4  A    between atoms: C_11  and  C_12
REMARK    5  A    between atoms: C_18  and  O_19
REMARK    6  A    between atoms: O_19  and  C_20
REMARK                            x       y       z     vdW  Elec       q    Type
REMARK                         _______ _______ _______ _____ _____    ______ ____
ROOT
ATOM      1  N   UNL     1       0.557   9.178  20.476  0.00  0.00    +0.000 N 
ATOM      2  C   UNL     1       1.412   8.617  19.583  0.00  0.00    +0.000 A 
ATOM      3  N   UNL     1       1.768   9.005  18.366  0.00  0.00    +0.000 NA
ATOM      4  N   UNL     1       2.733   8.180  17.758  0.00  0.00    +0.000 NA
ATOM      5  C   UNL     1       3.060   7.161  18.521  0.00  0.00    +0.000 A 
ATOM      6  S   UNL     1       2.164   7.144  20.020  0.00  0.00    +0.000 S 
ATOM      7  H   UNL     1       0.486   8.727  21.383  0.00  0.00    +0.000 HD
ENDROOT
BRANCH   5   8
ATOM      8  C   UNL     1       4.181   6.156  18.307  0.00  0.00    +0.000 A 
ATOM      9  C   UNL     1       4.457   5.309  19.373  0.00  0.00    +0.000 A 
ATOM     10  N   UNL     1       5.762   4.977  19.267  0.00  0.00    +0.000 N 
ATOM     11  C   UNL     1       6.103   5.008  17.946  0.00  0.00    +0.000 A 
ATOM     12  C   UNL     1       7.213   4.402  17.374  0.00  0.00    +0.000 A 
ATOM     13  C   UNL     1       7.341   4.497  16.006  0.00  0.00    +0.000 A 
ATOM     14  C   UNL     1       6.443   5.240  15.237  0.00  0.00    +0.000 A 
ATOM     15  C   UNL     1       5.361   5.938  15.848  0.00  0.00    +0.000 A 
ATOM     16  C   UNL     1       5.134   5.775  17.263  0.00  0.00    +0.000 A 
ATOM     17  H   UNL     1       6.340   4.607  20.008  0.00  0.00    +0.000 HD
BRANCH  14  18
ATOM     18  O   UNL     1       6.773   5.098  13.920  0.00  0.00    +0.000 OA
ATOM     19  C   UNL     1       6.443   3.949  13.174  0.00  0.00    +0.000 C 
ENDBRANCH  14  18
ENDBRANCH   5   8
BRANCH   1  23
ATOM     20  C   UNL     1      -2.280  12.301  20.075  0.00  0.00    +0.000 A 
ATOM     21  C   UNL     1      -1.541  12.152  21.250  0.00  0.00    +0.000 A 
ATOM     22  C   UNL     1      -0.582  11.132  21.357  0.00  0.00    +0.000 A 
ATOM     23  C   UNL     1      -0.352  10.238  20.298  0.00  0.00    +0.000 A 
ATOM     24  C   UNL     1      -1.090  10.418  19.126  0.00  0.00    +0.000 A 
ATOM     25  C   UNL     1      -2.039  11.446  19.010  0.00  0.00    +0.000 A 
BRANCH  20  27
ATOM     26  C   UNL     1      -4.557  12.901  20.176  0.00  0.00    +0.000 C 
ATOM     27  O   UNL     1      -3.199  13.314  20.088  0.00  0.00    +0.000 OA
ENDBRANCH  20  27
ENDBRANCH   1  23
TORSDOF 4
ENDMDL
MODEL 6
REMARK VINA RESULT:      -7.3      7.386      8.657
REMARK  Name = 
REMARK  6 active torsions:
REMARK  status: ('A' for Active; 'I' for Inactive)
REMARK    1  A    between atoms: C_1  and  O_2
REMARK    2  A    between atoms: O_2  and  C_3
REMARK    3  A    between atoms: C_6  and  N_7
REMARK    4  A    between atoms: C_11  and  C_12
REMARK    5  A    between atoms: C_18  and  O_19
REMARK    6  A    between atoms: O_19  and  C_20
REMARK                            x       y       z     vdW  Elec       q    Type
REMARK                         _______ _______ _______ _____ _____    ______ ____
ROOT
ATOM      1  N   UNL     1       0.109  10.884  18.302  0.00  0.00    +0.000 N 
ATOM      2  C   UNL     1       0.792   9.838  18.835  0.00  0.00    +0.000 A 
ATOM      3  N   UNL     1       0.808   9.356  20.070  0.00  0.00    +0.000 NA
ATOM      4  N   UNL     1       1.613   8.212  20.231  0.00  0.00    +0.000 NA
ATOM      5  C   UNL     1       2.217   7.876  19.114  0.00  0.00    +0.000 A 
ATOM      6  S   UNL     1       1.856   8.977  17.808  0.00  0.00    +0.000 S 
ATOM      7  H   UNL     1       0.212  11.032  17.303  0.00  0.00    +0.000 HD
ENDROOT
BRANCH   5   8
ATOM      8  C   UNL     1       3.019   6.615  18.829  0.00  0.00    +0.000 A 
ATOM      9  C   UNL     1       2.745   5.518  19.636  0.00  0.00    +0.000 A 
ATOM     10  N   UNL     1       3.880   4.787  19.681  0.00  0.00    +0.000 N 
ATOM     11  C   UNL     1       4.557   4.978  18.512  0.00  0.00    +0.000 A 
ATOM     12  C   UNL     1       5.559   4.162  18.004  0.00  0.00    +0.000 A 
ATOM     13  C   UNL     1       6.070   4.497  16.769  0.00  0.00    +0.000 A 
ATOM     14  C   UNL     1       5.662   5.650  16.096  0.00  0.00    +0.000 A 
ATOM     15  C   UNL     1       4.702   6.531  16.673  0.00  0.00    +0.000 A 
ATOM     16  C   UNL     1       4.068   6.160  17.913  0.00  0.00    +0.000 A 
ATOM     17  H   UNL     1       4.107   4.091  20.377  0.00  0.00    +0.000 HD
BRANCH  14  18
ATOM     18  O   UNL     1       6.278   5.687  14.879  0.00  0.00    +0.000 OA
ATOM     19  C   UNL     1       6.627   4.520  14.169  0.00  0.00    +0.000 C 
ENDBRANCH  14  18
ENDBRANCH   5   8
BRANCH   1  23
ATOM     20  C   UNL     1      -2.026  13.895  20.383  0.00  0.00    +0.000 A 
ATOM     21  C   UNL     1      -0.729  14.127  19.922  0.00  0.00    +0.000 A 
ATOM     22  C   UNL     1      -0.045  13.131  19.207  0.00  0.00    +0.000 A 
ATOM     23  C   UNL     1      -0.640  11.885  18.949  0.00  0.00    +0.000 A 
ATOM     24  C   UNL     1      -1.946  11.683  19.404  0.00  0.00    +0.000 A 
ATOM     25  C   UNL     1      -2.637  12.682  20.106  0.00  0.00    +0.000 A 
BRANCH  20  27
ATOM     26  C   UNL     1      -3.472  14.539  22.131  0.00  0.00    +0.000 C 
ATOM     27  O   UNL     1      -2.589  14.926  21.085  0.00  0.00    +0.000 OA
ENDBRANCH  20  27
ENDBRANCH   1  23
TORSDOF 4
ENDMDL
MODEL 7
REMARK VINA RESULT:      -7.2      8.269     11.235
REMARK  Name = 
REMARK  6 active torsions:
REMARK  status: ('A' for Active; 'I' for Inactive)
REMARK    1  A    between atoms: C_1  and  O_2
REMARK    2  A    between atoms: O_2  and  C_3
REMARK    3  A    between atoms: C_6  and  N_7
REMARK    4  A    between atoms: C_11  and  C_12
REMARK    5  A    between atoms: C_18  and  O_19
REMARK    6  A    between atoms: O_19  and  C_20
REMARK                            x       y       z     vdW  Elec       q    Type
REMARK                         _______ _______ _______ _____ _____    ______ ____
ROOT
ATOM      1  N   UNL     1       1.451   7.018  21.144  0.00  0.00    +0.000 N 
ATOM      2  C   UNL     1       1.144   8.319  20.906  0.00  0.00    +0.000 A 
ATOM      3  N   UNL     1       1.119   9.007  19.773  0.00  0.00    +0.000 NA
ATOM      4  N   UNL     1       0.694  10.342  19.920  0.00  0.00    +0.000 NA
ATOM      5  C   UNL     1       0.440  10.641  21.174  0.00  0.00    +0.000 A 
ATOM      6  S   UNL     1       0.748   9.300  22.250  0.00  0.00    +0.000 S 
ATOM      7  H   UNL     1       1.343   6.692  22.099  0.00  0.00    +0.000 HD
ENDROOT
BRANCH   5   8
ATOM      8  C   UNL     1      -0.205  11.906  21.721  0.00  0.00    +0.000 A 
ATOM      9  C   UNL     1       0.353  13.107  21.303  0.00  0.00    +0.000 A 
ATOM     10  N   UNL     1       0.116  13.999  22.290  0.00  0.00    +0.000 N 
ATOM     11  C   UNL     1      -1.040  13.639  22.921  0.00  0.00    +0.000 A 
ATOM     12  C   UNL     1      -1.819  14.456  23.729  0.00  0.00    +0.000 A 
ATOM     13  C   UNL     1      -2.988  13.918  24.219  0.00  0.00    +0.000 A 
ATOM     14  C   UNL     1      -3.335  12.586  23.984  0.00  0.00    +0.000 A 
ATOM     15  C   UNL     1      -2.479  11.730  23.232  0.00  0.00    +0.000 A 
ATOM     16  C   UNL     1      -1.300  12.285  22.615  0.00  0.00    +0.000 A 
ATOM     17  H   UNL     1       0.607  14.870  22.430  0.00  0.00    +0.000 HD
BRANCH  14  18
ATOM     18  O   UNL     1      -4.567  12.353  24.524  0.00  0.00    +0.000 OA
ATOM     19  C   UNL     1      -5.754  12.843  23.946  0.00  0.00    +0.000 C 
ENDBRANCH  14  18
ENDBRANCH   5   8
BRANCH   1  23
ATOM     20  C   UNL     1       3.208   4.041  18.691  0.00  0.00    +0.000 A 
ATOM     21  C   UNL     1       2.087   3.754  19.473  0.00  0.00    +0.000 A 
ATOM     22  C   UNL     1       1.497   4.759  20.256  0.00  0.00    +0.000 A 
ATOM     23  C   UNL     1       2.021   6.062  20.281  0.00  0.00    +0.000 A 
ATOM     24  C   UNL     1       3.131   6.330  19.476  0.00  0.00    +0.000 A 
ATOM     25  C   UNL     1       3.715   5.331  18.680  0.00  0.00    +0.000 A 
BRANCH  20  27
ATOM     26  C   UNL     1       3.705   1.736  18.668  0.00  0.00    +0.000 C 
ATOM     27  O   UNL     1       3.712   2.984  17.984  0.00  0.00    +0.000 OA
ENDBRANCH  20  27
ENDBRANCH   1  23
TORSDOF 4
ENDMDL
MODEL 8
REMARK VINA RESULT:      -7.2      7.626      9.894
REMARK  Name = 
REMARK  6 active torsions:
REMARK  status: ('A' for Active; 'I' for Inactive)
REMARK    1  A    between atoms: C_1  and  O_2
REMARK    2  A    between atoms: O_2  and  C_3
REMARK    3  A    between atoms: C_6  and  N_7
REMARK    4  A    between atoms: C_11  and  C_12
REMARK    5  A    between atoms: C_18  and  O_19
REMARK    6  A    between atoms: O_19  and  C_20
REMARK                            x       y       z     vdW  Elec       q    Type
REMARK                         _______ _______ _______ _____ _____    ______ ____
ROOT
ATOM      1  N   UNL     1       2.849   6.673  18.704  0.00  0.00    +0.000 N 
ATOM      2  C   UNL     1       2.262   7.892  18.584  0.00  0.00    +0.000 A 
ATOM      3  N   UNL     1       2.146   8.695  17.537  0.00  0.00    +0.000 NA
ATOM      4  N   UNL     1       1.413   9.871  17.791  0.00  0.00    +0.000 NA
ATOM      5  C   UNL     1       1.021   9.943  19.044  0.00  0.00    +0.000 A 
ATOM      6  S   UNL     1       1.567   8.580  19.988  0.00  0.00    +0.000 S 
ATOM      7  H   UNL     1       2.762   6.213  19.605  0.00  0.00    +0.000 HD
ENDROOT
BRANCH   5   8
ATOM      8  C   UNL     1       0.068  10.952  19.667  0.00  0.00    +0.000 A 
ATOM      9  C   UNL     1       0.599  11.768  20.656  0.00  0.00    +0.000 A 
ATOM     10  N   UNL     1      -0.428  12.099  21.468  0.00  0.00    +0.000 N 
ATOM     11  C   UNL     1      -1.574  12.104  20.726  0.00  0.00    +0.000 A 
ATOM     12  C   UNL     1      -2.768  12.723  21.069  0.00  0.00    +0.000 A 
ATOM     13  C   UNL     1      -3.788  12.666  20.146  0.00  0.00    +0.000 A 
ATOM     14  C   UNL     1      -3.659  11.947  18.955  0.00  0.00    +0.000 A 
ATOM     15  C   UNL     1      -2.461  11.235  18.659  0.00  0.00    +0.000 A 
ATOM     16  C   UNL     1      -1.334  11.359  19.551  0.00  0.00    +0.000 A 
ATOM     17  H   UNL     1      -0.347  12.447  22.413  0.00  0.00    +0.000 HD
BRANCH  14  18
ATOM     18  O   UNL     1      -4.790  12.125  18.212  0.00  0.00    +0.000 OA
ATOM     19  C   UNL     1      -6.023  11.535  18.554  0.00  0.00    +0.000 C 
ENDBRANCH  14  18
ENDBRANCH   5   8
BRANCH   1  23
ATOM     20  C   UNL     1       5.391   4.498  16.102  0.00  0.00    +0.000 A 
ATOM     21  C   UNL     1       4.299   3.883  16.715  0.00  0.00    +0.000 A 
ATOM     22  C   UNL     1       3.446   4.623  17.549  0.00  0.00    +0.000 A 
ATOM     23  C   UNL     1       3.677   5.987  17.795  0.00  0.00    +0.000 A 
ATOM     24  C   UNL     1       4.765   6.586  17.156  0.00  0.00    +0.000 A 
ATOM     25  C   UNL     1       5.610   5.852  16.309  0.00  0.00    +0.000 A 
BRANCH  20  27
ATOM     26  C   UNL     1       6.433   4.159  14.015  0.00  0.00    +0.000 C 
ATOM     27  O   UNL     1       6.164   3.678  15.327  0.00  0.00    +0.000 OA
ENDBRANCH  20  27
ENDBRANCH   1  23
TORSDOF 4
ENDMDL
MODEL 9
REMARK VINA RESULT:      -7.2      7.527      8.733
REMARK  Name = 
REMARK  6 active torsions:
REMARK  status: ('A' for Active; 'I' for Inactive)
REMARK    1  A    between atoms: C_1  and  O_2
REMARK    2  A    between atoms: O_2  and  C_3
REMARK    3  A    between atoms: C_6  and  N_7
REMARK    4  A    between atoms: C_11  and  C_12
REMARK    5  A    between atoms: C_18  and  O_19
REMARK    6  A    between atoms: O_19  and  C_20
REMARK                            x       y       z     vdW  Elec       q    Type
REMARK                         _______ _______ _______ _____ _____    ______ ____
ROOT
ATOM      1  N   UNL     1       0.182  11.202  18.487  0.00  0.00    +0.000 N 
ATOM      2  C   UNL     1       0.801  10.095  18.972  0.00  0.00    +0.000 A 
ATOM      3  N   UNL     1       0.808   9.573  20.191  0.00  0.00    +0.000 NA
ATOM      4  N   UNL     1       1.533   8.371  20.298  0.00  0.00    +0.000 NA
ATOM      5  C   UNL     1       2.089   8.030  19.157  0.00  0.00    +0.000 A 
ATOM      6  S   UNL     1       1.780   9.195  17.895  0.00  0.00    +0.000 S 
ATOM      7  H   UNL     1       0.275  11.375  17.491  0.00  0.00    +0.000 HD
ENDROOT
BRANCH   5   8
ATOM      8  C   UNL     1       2.794   6.726  18.816  0.00  0.00    +0.000 A 
ATOM      9  C   UNL     1       2.394   5.606  19.533  0.00  0.00    +0.000 A 
ATOM     10  N   UNL     1       3.460   4.777  19.570  0.00  0.00    +0.000 N 
ATOM     11  C   UNL     1       4.202   4.987  18.444  0.00  0.00    +0.000 A 
ATOM     12  C   UNL     1       5.153   4.123  17.919  0.00  0.00    +0.000 A 
ATOM     13  C   UNL     1       5.745   4.493  16.731  0.00  0.00    +0.000 A 
ATOM     14  C   UNL     1       5.466   5.720  16.125  0.00  0.00    +0.000 A 
ATOM     15  C   UNL     1       4.559   6.640  16.726  0.00  0.00    +0.000 A 
ATOM     16  C   UNL     1       3.840   6.244  17.911  0.00  0.00    +0.000 A 
ATOM     17  H   UNL     1       3.597   4.019  20.223  0.00  0.00    +0.000 HD
BRANCH  14  18
ATOM     18  O   UNL     1       6.136   5.784  14.938  0.00  0.00    +0.000 OA
ATOM     19  C   UNL     1       6.960   4.739  14.474  0.00  0.00    +0.000 C 
ENDBRANCH  14  18
ENDBRANCH   5   8
BRANCH   1  23
ATOM     20  C   UNL     1      -1.944  14.297  20.452  0.00  0.00    +0.000 A 
ATOM     21  C   UNL     1      -2.498  13.023  20.316  0.00  0.00    +0.000 A 
ATOM     22  C   UNL     1      -1.770  11.999  19.691  0.00  0.00    +0.000 A 
ATOM     23  C   UNL     1      -0.481  12.231  19.181  0.00  0.00    +0.000 A 
ATOM     24  C   UNL     1       0.060  13.509  19.346  0.00  0.00    +0.000 A 
ATOM     25  C   UNL     1      -0.660  14.531  19.984  0.00  0.00    +0.000 A 
BRANCH  20  27
ATOM     26  C   UNL     1      -4.095  14.812  21.268  0.00  0.00    +0.000 C 
ATOM     27  O   UNL     1      -2.749  15.222  21.059  0.00  0.00    +0.000 OA
ENDBRANCH  20  27
ENDBRANCH   1  23
TORSDOF 4
ENDMDL
