MODEL 1
REMARK VINA RESULT:      -9.6      0.000      0.000
REMARK  Name = 
REMARK  9 active torsions:
REMARK  status: ('A' for Active; 'I' for Inactive)
REMARK    1  A    between atoms: C_1  and  N_2
REMARK    2  A    between atoms: C_3  and  C_5
REMARK    3  A    between atoms: C_5  and  C_6
REMARK    4  A    between atoms: C_9  and  C_10
REMARK    5  A    between atoms: C_11  and  C_12
REMARK    6  A    between atoms: C_12  and  C_13
REMARK    7  A    between atoms: C_13  and  N_14
REMARK    8  A    between atoms: C_19  and  O_20
REMARK    9  A    between atoms: O_20  and  C_21
REMARK                            x       y       z     vdW  Elec       q    Type
REMARK                         _______ _______ _______ _____ _____    ______ ____
ROOT
ATOM      1  C   UNL     1       6.595   6.955  17.444  0.00  0.00    +0.000 C 
ATOM      2  N   UNL     1       6.422   6.405  18.758  0.00  0.00    +0.000 N 
ATOM      3  C   UNL     1       7.274   5.359  18.979  0.00  0.00    +0.000 C 
ATOM      4  O   UNL     1       7.455   4.812  20.054  0.00  0.00    +0.000 OA
ATOM      5  N   UNL     1       7.875   5.035  17.806  0.00  0.00    +0.000 N 
ATOM      6  C   UNL     1       7.415   5.823  16.799  0.00  0.00    +0.000 C 
ATOM      7  O   UNL     1       7.674   5.686  15.605  0.00  0.00    +0.000 OA
ATOM      8  H   UNL     1       5.836   6.795  19.488  0.00  0.00    +0.000 HD
ATOM      9  H   UNL     1       8.497   4.256  17.700  0.00  0.00    +0.000 HD
ENDROOT
BRANCH   1  11
ATOM     10  C   UNL     1       8.037   9.162  17.747  0.00  0.00    +0.000 C 
ATOM     11  C   UNL     1       7.421   8.150  17.557  0.00  0.00    +0.000 C 
BRANCH  10  15
ATOM     12  C   UNL     1       9.882  12.834  18.718  0.00  0.00    +0.000 A 
ATOM     13  C   UNL     1       8.774  12.766  17.857  0.00  0.00    +0.000 A 
ATOM     14  C   UNL     1       8.165  11.551  17.552  0.00  0.00    +0.000 A 
ATOM     15  C   UNL     1       8.640  10.383  18.128  0.00  0.00    +0.000 A 
ATOM     16  C   UNL     1       9.710  10.411  19.015  0.00  0.00    +0.000 A 
ATOM     17  C   UNL     1      10.325  11.632  19.307  0.00  0.00    +0.000 A 
BRANCH  12  18
ATOM     18  C   UNL     1      10.585  14.160  18.968  0.00  0.00    +0.000 C 
ATOM     19  C   UNL     1      11.814  14.454  18.103  0.00  0.00    +0.000 C 
ATOM     20  C   UNL     1      11.998  14.145  19.552  0.00  0.00    +0.000 C 
BRANCH  18  23
ATOM     21  C   UNL     1       8.399  17.178  18.360  0.00  0.00    +0.000 C 
ATOM     22  N   UNL     1       9.287  16.057  18.217  0.00  0.00    +0.000 N 
ATOM     23  C   UNL     1       9.698  15.328  19.308  0.00  0.00    +0.000 C 
ATOM     24  O   UNL     1       9.381  15.564  20.467  0.00  0.00    +0.000 OA
ATOM     25  H   UNL     1       9.670  15.833  17.309  0.00  0.00    +0.000 HD
ENDBRANCH  18  23
ENDBRANCH  12  18
ENDBRANCH  10  15
ENDBRANCH   1  11
BRANCH   1  26
ATOM     26  C   UNL     1       5.311   7.317  16.701  0.00  0.00    +0.000 C 
BRANCH  26  27
ATOM     27  N   UNL     1       4.107   6.738  17.258  0.00  0.00    +0.000 N 
ATOM     28  C   UNL     1       3.097   7.566  17.859  0.00  0.00    +0.000 C 
ATOM     29  C   UNL     1       2.458   6.548  18.727  0.00  0.00    +0.000 A 
ATOM     30  C   UNL     1       2.310   6.496  20.092  0.00  0.00    +0.000 A 
ATOM     31  C   UNL     1       1.823   5.309  20.648  0.00  0.00    +0.000 A 
ATOM     32  C   UNL     1       1.412   4.242  19.829  0.00  0.00    +0.000 A 
ATOM     33  C   UNL     1       1.792   4.224  18.494  0.00  0.00    +0.000 A 
ATOM     34  C   UNL     1       2.464   5.341  18.044  0.00  0.00    +0.000 A 
ATOM     35  C   UNL     1       3.768   5.394  17.325  0.00  0.00    +0.000 C 
ATOM     36  O   UNL     1       4.465   4.441  17.036  0.00  0.00    +0.000 OA
BRANCH  32  37
ATOM     37  O   UNL     1       0.724   3.250  20.468  0.00  0.00    +0.000 OA
ATOM     38  C   UNL     1       1.382   2.679  21.596  0.00  0.00    +0.000 C 
ENDBRANCH  32  37
ENDBRANCH  26  27
ENDBRANCH   1  26
TORSDOF 7
ENDMDL
MODEL 2
REMARK VINA RESULT:      -9.4      5.681      7.939
REMARK  Name = 
REMARK  9 active torsions:
REMARK  status: ('A' for Active; 'I' for Inactive)
REMARK    1  A    between atoms: C_1  and  N_2
REMARK    2  A    between atoms: C_3  and  C_5
REMARK    3  A    between atoms: C_5  and  C_6
REMARK    4  A    between atoms: C_9  and  C_10
REMARK    5  A    between atoms: C_11  and  C_12
REMARK    6  A    between atoms: C_12  and  C_13
REMARK    7  A    between atoms: C_13  and  N_14
REMARK    8  A    between atoms: C_19  and  O_20
REMARK    9  A    between atoms: O_20  and  C_21
REMARK                            x       y       z     vdW  Elec       q    Type
REMARK                         _______ _______ _______ _____ _____    ______ ____
ROOT
ATOM      1  C   UNL     1       2.672   3.858  20.131  0.00  0.00    +0.000 C 
ATOM      2  N   UNL     1       2.047   3.320  18.957  0.00  0.00    +0.000 N 
ATOM      3  C   UNL     1       0.840   2.749  19.250  0.00  0.00    +0.000 C 
ATOM      4  O   UNL     1       0.026   2.360  18.430  0.00  0.00    +0.000 OA
ATOM      5  N   UNL     1       0.706   2.686  20.599  0.00  0.00    +0.000 N 
ATOM      6  C   UNL     1       1.816   3.175  21.213  0.00  0.00    +0.000 C 
ATOM      7  O   UNL     1       2.046   3.134  22.420  0.00  0.00    +0.000 OA
ATOM      8  H   UNL     1       2.379   3.437  18.006  0.00  0.00    +0.000 HD
ATOM      9  H   UNL     1      -0.070   2.249  21.059  0.00  0.00    +0.000 HD
ENDROOT
BRANCH   1  11
ATOM     10  C   UNL     1       2.191   6.467  20.065  0.00  0.00    +0.000 C 
ATOM     11  C   UNL     1       2.430   5.295  20.156  0.00  0.00    +0.000 C 
BRANCH  10  15
ATOM     12  C   UNL     1       1.001  10.428  19.212  0.00  0.00    +0.000 A 
ATOM     13  C   UNL     1       0.789   9.846  20.472  0.00  0.00    +0.000 A 
ATOM     14  C   UNL     1       1.195   8.542  20.747  0.00  0.00    +0.000 A 
ATOM     15  C   UNL     1       1.848   7.807  19.770  0.00  0.00    +0.000 A 
ATOM     16  C   UNL     1       2.112   8.360  18.522  0.00  0.00    +0.000 A 
ATOM     17  C   UNL     1       1.690   9.664  18.247  0.00  0.00    +0.000 A 
BRANCH  12  18
ATOM     18  C   UNL     1       0.471  11.821  18.905  0.00  0.00    +0.000 C 
ATOM     19  C   UNL     1       1.489  12.840  18.386  0.00  0.00    +0.000 C 
ATOM     20  C   UNL     1       0.940  12.994  19.766  0.00  0.00    +0.000 C 
BRANCH  18  23
ATOM     21  C   UNL     1      -2.500  10.767  16.827  0.00  0.00    +0.000 C 
ATOM     22  N   UNL     1      -1.204  10.877  17.439  0.00  0.00    +0.000 N 
ATOM     23  C   UNL     1      -0.916  11.889  18.323  0.00  0.00    +0.000 C 
ATOM     24  O   UNL     1      -1.694  12.778  18.647  0.00  0.00    +0.000 OA
ATOM     25  H   UNL     1      -0.468  10.239  17.172  0.00  0.00    +0.000 HD
ENDBRANCH  18  23
ENDBRANCH  12  18
ENDBRANCH  10  15
ENDBRANCH   1  11
BRANCH   1  26
ATOM     26  C   UNL     1       4.174   3.614  20.255  0.00  0.00    +0.000 C 
BRANCH  26  27
ATOM     27  N   UNL     1       4.940   3.942  19.072  0.00  0.00    +0.000 N 
ATOM     28  C   UNL     1       5.736   5.138  19.014  0.00  0.00    +0.000 C 
ATOM     29  C   UNL     1       5.797   5.298  17.541  0.00  0.00    +0.000 A 
ATOM     30  C   UNL     1       5.367   6.320  16.729  0.00  0.00    +0.000 A 
ATOM     31  C   UNL     1       5.391   6.106  15.348  0.00  0.00    +0.000 A 
ATOM     32  C   UNL     1       5.924   4.921  14.808  0.00  0.00    +0.000 A 
ATOM     33  C   UNL     1       6.120   3.825  15.637  0.00  0.00    +0.000 A 
ATOM     34  C   UNL     1       5.877   4.032  16.978  0.00  0.00    +0.000 A 
ATOM     35  C   UNL     1       5.003   3.232  17.882  0.00  0.00    +0.000 C 
ATOM     36  O   UNL     1       4.342   2.263  17.564  0.00  0.00    +0.000 OA
BRANCH  32  37
ATOM     37  O   UNL     1       6.125   4.937  13.457  0.00  0.00    +0.000 OA
ATOM     38  C   UNL     1       6.138   3.660  12.827  0.00  0.00    +0.000 C 
ENDBRANCH  32  37
ENDBRANCH  26  27
ENDBRANCH   1  26
TORSDOF 7
ENDMDL
MODEL 3
REMARK VINA RESULT:      -9.4      5.454      8.016
REMARK  Name = 
REMARK  9 active torsions:
REMARK  status: ('A' for Active; 'I' for Inactive)
REMARK    1  A    between atoms: C_1  and  N_2
REMARK    2  A    between atoms: C_3  and  C_5
REMARK    3  A    between atoms: C_5  and  C_6
REMARK    4  A    between atoms: C_9  and  C_10
REMARK    5  A    between atoms: C_11  and  C_12
REMARK    6  A    between atoms: C_12  and  C_13
REMARK    7  A    between atoms: C_13  and  N_14
REMARK    8  A    between atoms: C_19  and  O_20
REMARK    9  A    between atoms: O_20  and  C_21
REMARK                            x       y       z     vdW  Elec       q    Type
REMARK                         _______ _______ _______ _____ _____    ______ ____
ROOT
ATOM      1  C   UNL     1       2.939   3.683  19.660  0.00  0.00    +0.000 C 
ATOM      2  N   UNL     1       2.064   3.146  18.657  0.00  0.00    +0.000 N 
ATOM      3  C   UNL     1       0.993   2.508  19.218  0.00  0.00    +0.000 C 
ATOM      4  O   UNL     1       0.017   2.100  18.611  0.00  0.00    +0.000 OA
ATOM      5  N   UNL     1       1.202   2.402  20.555  0.00  0.00    +0.000 N 
ATOM      6  C   UNL     1       2.409   2.929  20.893  0.00  0.00    +0.000 C 
ATOM      7  O   UNL     1       2.934   2.867  22.003  0.00  0.00    +0.000 OA
ATOM      8  H   UNL     1       2.143   3.305  17.659  0.00  0.00    +0.000 HD
ATOM      9  H   UNL     1       0.585   1.914  21.175  0.00  0.00    +0.000 HD
ENDROOT
BRANCH   1  11
ATOM     10  C   UNL     1       2.344   6.264  19.818  0.00  0.00    +0.000 C 
ATOM     11  C   UNL     1       2.651   5.105  19.799  0.00  0.00    +0.000 C 
BRANCH  10  15
ATOM     12  C   UNL     1       1.096  10.273  19.363  0.00  0.00    +0.000 A 
ATOM     13  C   UNL     1       1.673   9.552  18.304  0.00  0.00    +0.000 A 
ATOM     14  C   UNL     1       2.071   8.226  18.461  0.00  0.00    +0.000 A 
ATOM     15  C   UNL     1       1.871   7.590  19.677  0.00  0.00    +0.000 A 
ATOM     16  C   UNL     1       1.269   8.256  20.738  0.00  0.00    +0.000 A 
ATOM     17  C   UNL     1       0.884   9.590  20.578  0.00  0.00    +0.000 A 
BRANCH  12  18
ATOM     18  C   UNL     1       0.750  11.745  19.196  0.00  0.00    +0.000 C 
ATOM     19  C   UNL     1       1.842  12.640  18.605  0.00  0.00    +0.000 C 
ATOM     20  C   UNL     1       1.489  12.777  20.049  0.00  0.00    +0.000 C 
BRANCH  18  23
ATOM     21  C   UNL     1      -2.465  11.463  17.237  0.00  0.00    +0.000 C 
ATOM     22  N   UNL     1      -1.118  11.326  17.719  0.00  0.00    +0.000 N 
ATOM     23  C   UNL     1      -0.669  12.051  18.797  0.00  0.00    +0.000 C 
ATOM     24  O   UNL     1      -1.336  12.872  19.415  0.00  0.00    +0.000 OA
ATOM     25  H   UNL     1      -0.466  10.734  17.225  0.00  0.00    +0.000 HD
ENDBRANCH  18  23
ENDBRANCH  12  18
ENDBRANCH  10  15
ENDBRANCH   1  11
BRANCH   1  26
ATOM     26  C   UNL     1       4.433   3.511  19.398  0.00  0.00    +0.000 C 
BRANCH  26  27
ATOM     27  N   UNL     1       4.930   4.221  18.239  0.00  0.00    +0.000 N 
ATOM     28  C   UNL     1       4.076   4.489  17.114  0.00  0.00    +0.000 C 
ATOM     29  C   UNL     1       5.120   4.657  16.074  0.00  0.00    +0.000 A 
ATOM     30  C   UNL     1       5.349   3.963  14.911  0.00  0.00    +0.000 A 
ATOM     31  C   UNL     1       6.532   4.231  14.216  0.00  0.00    +0.000 A 
ATOM     32  C   UNL     1       7.410   5.243  14.646  0.00  0.00    +0.000 A 
ATOM     33  C   UNL     1       7.284   5.752  15.932  0.00  0.00    +0.000 A 
ATOM     34  C   UNL     1       6.207   5.290  16.659  0.00  0.00    +0.000 A 
ATOM     35  C   UNL     1       6.216   4.697  18.026  0.00  0.00    +0.000 C 
ATOM     36  O   UNL     1       7.197   4.508  18.717  0.00  0.00    +0.000 OA
BRANCH  32  37
ATOM     37  O   UNL     1       8.389   5.580  13.755  0.00  0.00    +0.000 OA
ATOM     38  C   UNL     1       8.009   5.531  12.383  0.00  0.00    +0.000 C 
ENDBRANCH  32  37
ENDBRANCH  26  27
ENDBRANCH   1  26
TORSDOF 7
ENDMDL
MODEL 4
REMARK VINA RESULT:      -9.3      5.545      8.179
REMARK  Name = 
REMARK  9 active torsions:
REMARK  status: ('A' for Active; 'I' for Inactive)
REMARK    1  A    between atoms: C_1  and  N_2
REMARK    2  A    between atoms: C_3  and  C_5
REMARK    3  A    between atoms: C_5  and  C_6
REMARK    4  A    between atoms: C_9  and  C_10
REMARK    5  A    between atoms: C_11  and  C_12
REMARK    6  A    between atoms: C_12  and  C_13
REMARK    7  A    between atoms: C_13  and  N_14
REMARK    8  A    between atoms: C_19  and  O_20
REMARK    9  A    between atoms: O_20  and  C_21
REMARK                            x       y       z     vdW  Elec       q    Type
REMARK                         _______ _______ _______ _____ _____    ______ ____
ROOT
ATOM      1  C   UNL     1       2.744   3.863  19.821  0.00  0.00    +0.000 C 
ATOM      2  N   UNL     1       1.922   3.351  18.762  0.00  0.00    +0.000 N 
ATOM      3  C   UNL     1       0.836   2.680  19.252  0.00  0.00    +0.000 C 
ATOM      4  O   UNL     1      -0.106   2.282  18.589  0.00  0.00    +0.000 OA
ATOM      5  N   UNL     1       0.989   2.529  20.593  0.00  0.00    +0.000 N 
ATOM      6  C   UNL     1       2.172   3.059  21.002  0.00  0.00    +0.000 C 
ATOM      7  O   UNL     1       2.649   2.964  22.131  0.00  0.00    +0.000 OA
ATOM      8  H   UNL     1       2.042   3.546  17.775  0.00  0.00    +0.000 HD
ATOM      9  H   UNL     1       0.352   2.012  21.168  0.00  0.00    +0.000 HD
ENDROOT
BRANCH   1  11
ATOM     10  C   UNL     1       2.145   6.440  20.025  0.00  0.00    +0.000 C 
ATOM     11  C   UNL     1       2.430   5.275  19.997  0.00  0.00    +0.000 C 
BRANCH  10  15
ATOM     12  C   UNL     1       0.870  10.441  19.581  0.00  0.00    +0.000 A 
ATOM     13  C   UNL     1       0.794   9.772  20.813  0.00  0.00    +0.000 A 
ATOM     14  C   UNL     1       1.228   8.455  20.953  0.00  0.00    +0.000 A 
ATOM     15  C   UNL     1       1.773   7.795  19.862  0.00  0.00    +0.000 A 
ATOM     16  C   UNL     1       1.901   8.434  18.635  0.00  0.00    +0.000 A 
ATOM     17  C   UNL     1       1.452   9.750  18.498  0.00  0.00    +0.000 A 
BRANCH  12  18
ATOM     18  C   UNL     1       0.309  11.847  19.430  0.00  0.00    +0.000 C 
ATOM     19  C   UNL     1       1.244  12.892  18.815  0.00  0.00    +0.000 C 
ATOM     20  C   UNL     1       0.912  12.974  20.269  0.00  0.00    +0.000 C 
BRANCH  18  23
ATOM     21  C   UNL     1      -3.367  12.561  19.910  0.00  0.00    +0.000 C 
ATOM     22  N   UNL     1      -1.955  12.371  20.098  0.00  0.00    +0.000 N 
ATOM     23  C   UNL     1      -1.149  11.945  19.069  0.00  0.00    +0.000 C 
ATOM     24  O   UNL     1      -1.541  11.672  17.941  0.00  0.00    +0.000 OA
ATOM     25  H   UNL     1      -1.550  12.490  21.016  0.00  0.00    +0.000 HD
ENDBRANCH  18  23
ENDBRANCH  12  18
ENDBRANCH  10  15
ENDBRANCH   1  11
BRANCH   1  26
ATOM     26  C   UNL     1       4.252   3.719  19.620  0.00  0.00    +0.000 C 
BRANCH  26  27
ATOM     27  N   UNL     1       4.769   4.377  18.439  0.00  0.00    +0.000 N 
ATOM     28  C   UNL     1       3.935   4.597  17.289  0.00  0.00    +0.000 C 
ATOM     29  C   UNL     1       4.995   4.717  16.260  0.00  0.00    +0.000 A 
ATOM     30  C   UNL     1       5.242   3.972  15.133  0.00  0.00    +0.000 A 
ATOM     31  C   UNL     1       6.437   4.206  14.446  0.00  0.00    +0.000 A 
ATOM     32  C   UNL     1       7.311   5.234  14.846  0.00  0.00    +0.000 A 
ATOM     33  C   UNL     1       7.165   5.799  16.106  0.00  0.00    +0.000 A 
ATOM     34  C   UNL     1       6.075   5.372  16.835  0.00  0.00    +0.000 A 
ATOM     35  C   UNL     1       6.060   4.840  18.227  0.00  0.00    +0.000 C 
ATOM     36  O   UNL     1       7.029   4.680  18.942  0.00  0.00    +0.000 OA
BRANCH  32  37
ATOM     37  O   UNL     1       8.305   5.530  13.958  0.00  0.00    +0.000 OA
ATOM     38  C   UNL     1       7.950   5.415  12.583  0.00  0.00    +0.000 C 
ENDBRANCH  32  37
ENDBRANCH  26  27
ENDBRANCH   1  26
TORSDOF 7
ENDMDL
MODEL 5
REMARK VINA RESULT:      -9.2      5.200      7.723
REMARK  Name = 
REMARK  9 active torsions:
REMARK  status: ('A' for Active; 'I' for Inactive)
REMARK    1  A    between atoms: C_1  and  N_2
REMARK    2  A    between atoms: C_3  and  C_5
REMARK    3  A    between atoms: C_5  and  C_6
REMARK    4  A    between atoms: C_9  and  C_10
REMARK    5  A    between atoms: C_11  and  C_12
REMARK    6  A    between atoms: C_12  and  C_13
REMARK    7  A    between atoms: C_13  and  N_14
REMARK    8  A    between atoms: C_19  and  O_20
REMARK    9  A    between atoms: O_20  and  C_21
REMARK                            x       y       z     vdW  Elec       q    Type
REMARK                         _______ _______ _______ _____ _____    ______ ____
ROOT
ATOM      1  C   UNL     1       2.759   3.901  19.983  0.00  0.00    +0.000 C 
ATOM      2  N   UNL     1       2.074   3.246  18.905  0.00  0.00    +0.000 N 
ATOM      3  C   UNL     1       0.857   2.769  19.303  0.00  0.00    +0.000 C 
ATOM      4  O   UNL     1       0.000   2.314  18.563  0.00  0.00    +0.000 OA
ATOM      5  N   UNL     1       0.767   2.883  20.653  0.00  0.00    +0.000 N 
ATOM      6  C   UNL     1       1.915   3.396  21.167  0.00  0.00    +0.000 C 
ATOM      7  O   UNL     1       2.184   3.498  22.362  0.00  0.00    +0.000 OA
ATOM      8  H   UNL     1       2.378   3.228  17.938  0.00  0.00    +0.000 HD
ATOM      9  H   UNL     1      -0.009   2.541  21.187  0.00  0.00    +0.000 HD
ENDROOT
BRANCH   1  11
ATOM     10  C   UNL     1       2.315   6.507  19.753  0.00  0.00    +0.000 C 
ATOM     11  C   UNL     1       2.575   5.338  19.831  0.00  0.00    +0.000 C 
BRANCH  10  15
ATOM     12  C   UNL     1       0.710  10.413  19.763  0.00  0.00    +0.000 A 
ATOM     13  C   UNL     1       0.723   9.615  20.918  0.00  0.00    +0.000 A 
ATOM     14  C   UNL     1       1.265   8.331  20.908  0.00  0.00    +0.000 A 
ATOM     15  C   UNL     1       1.830   7.835  19.743  0.00  0.00    +0.000 A 
ATOM     16  C   UNL     1       1.872   8.608  18.588  0.00  0.00    +0.000 A 
ATOM     17  C   UNL     1       1.315   9.890  18.601  0.00  0.00    +0.000 A 
BRANCH  12  18
ATOM     18  C   UNL     1       0.035  11.776  19.773  0.00  0.00    +0.000 C 
ATOM     19  C   UNL     1      -1.463  11.793  20.088  0.00  0.00    +0.000 C 
ATOM     20  C   UNL     1      -1.006  12.091  18.698  0.00  0.00    +0.000 C 
BRANCH  18  23
ATOM     21  C   UNL     1       1.957  15.025  19.717  0.00  0.00    +0.000 C 
ATOM     22  N   UNL     1       1.211  13.849  19.364  0.00  0.00    +0.000 N 
ATOM     23  C   UNL     1       0.855  12.918  20.311  0.00  0.00    +0.000 C 
ATOM     24  O   UNL     1       1.147  12.983  21.499  0.00  0.00    +0.000 OA
ATOM     25  H   UNL     1       0.995  13.664  18.395  0.00  0.00    +0.000 HD
ENDBRANCH  18  23
ENDBRANCH  12  18
ENDBRANCH  10  15
ENDBRANCH   1  11
BRANCH   1  26
ATOM     26  C   UNL     1       4.255   3.609  20.093  0.00  0.00    +0.000 C 
BRANCH  26  27
ATOM     27  N   UNL     1       5.013   3.876  18.890  0.00  0.00    +0.000 N 
ATOM     28  C   UNL     1       5.905   5.001  18.812  0.00  0.00    +0.000 C 
ATOM     29  C   UNL     1       5.940   5.160  17.338  0.00  0.00    +0.000 A 
ATOM     30  C   UNL     1       5.576   6.217  16.539  0.00  0.00    +0.000 A 
ATOM     31  C   UNL     1       5.545   6.007  15.157  0.00  0.00    +0.000 A 
ATOM     32  C   UNL     1       5.961   4.783  14.602  0.00  0.00    +0.000 A 
ATOM     33  C   UNL     1       6.087   3.671  15.424  0.00  0.00    +0.000 A 
ATOM     34  C   UNL     1       5.898   3.894  16.772  0.00  0.00    +0.000 A 
ATOM     35  C   UNL     1       4.984   3.167  17.698  0.00  0.00    +0.000 C 
ATOM     36  O   UNL     1       4.236   2.258  17.397  0.00  0.00    +0.000 OA
BRANCH  32  37
ATOM     37  O   UNL     1       6.127   4.786  13.246  0.00  0.00    +0.000 OA
ATOM     38  C   UNL     1       6.186   3.500  12.636  0.00  0.00    +0.000 C 
ENDBRANCH  32  37
ENDBRANCH  26  27
ENDBRANCH   1  26
TORSDOF 7
ENDMDL
MODEL 6
REMARK VINA RESULT:      -9.1      5.206      7.948
REMARK  Name = 
REMARK  9 active torsions:
REMARK  status: ('A' for Active; 'I' for Inactive)
REMARK    1  A    between atoms: C_1  and  N_2
REMARK    2  A    between atoms: C_3  and  C_5
REMARK    3  A    between atoms: C_5  and  C_6
REMARK    4  A    between atoms: C_9  and  C_10
REMARK    5  A    between atoms: C_11  and  C_12
REMARK    6  A    between atoms: C_12  and  C_13
REMARK    7  A    between atoms: C_13  and  N_14
REMARK    8  A    between atoms: C_19  and  O_20
REMARK    9  A    between atoms: O_20  and  C_21
REMARK                            x       y       z     vdW  Elec       q    Type
REMARK                         _______ _______ _______ _____ _____    ______ ____
ROOT
ATOM      1  C   UNL     1       2.632   4.029  20.017  0.00  0.00    +0.000 C 
ATOM      2  N   UNL     1       1.896   3.540  18.886  0.00  0.00    +0.000 N 
ATOM      3  C   UNL     1       0.835   2.771  19.275  0.00  0.00    +0.000 C 
ATOM      4  O   UNL     1      -0.047   2.361  18.539  0.00  0.00    +0.000 OA
ATOM      5  N   UNL     1       0.933   2.539  20.608  0.00  0.00    +0.000 N 
ATOM      6  C   UNL     1       2.058   3.112  21.112  0.00  0.00    +0.000 C 
ATOM      7  O   UNL     1       2.485   2.970  22.256  0.00  0.00    +0.000 OA
ATOM      8  H   UNL     1       2.050   3.809  17.921  0.00  0.00    +0.000 HD
ATOM      9  H   UNL     1       0.304   1.945  21.115  0.00  0.00    +0.000 HD
ENDROOT
BRANCH   1  11
ATOM     10  C   UNL     1       1.883   6.552  20.357  0.00  0.00    +0.000 C 
ATOM     11  C   UNL     1       2.218   5.403  20.268  0.00  0.00    +0.000 C 
BRANCH  10  15
ATOM     12  C   UNL     1       0.597  10.567  20.106  0.00  0.00    +0.000 A 
ATOM     13  C   UNL     1       0.485   9.826  21.293  0.00  0.00    +0.000 A 
ATOM     14  C   UNL     1       0.922   8.505  21.370  0.00  0.00    +0.000 A 
ATOM     15  C   UNL     1       1.507   7.912  20.261  0.00  0.00    +0.000 A 
ATOM     16  C   UNL     1       1.672   8.623  19.078  0.00  0.00    +0.000 A 
ATOM     17  C   UNL     1       1.220   9.944  19.004  0.00  0.00    +0.000 A 
BRANCH  12  18
ATOM     18  C   UNL     1       0.034  11.977  20.019  0.00  0.00    +0.000 C 
ATOM     19  C   UNL     1      -1.396  12.109  19.488  0.00  0.00    +0.000 C 
ATOM     20  C   UNL     1      -0.257  12.571  18.640  0.00  0.00    +0.000 C 
BRANCH  18  23
ATOM     21  C   UNL     1       1.788  14.902  21.639  0.00  0.00    +0.000 C 
ATOM     22  N   UNL     1       1.332  13.892  20.724  0.00  0.00    +0.000 N 
ATOM     23  C   UNL     1       0.440  12.922  21.118  0.00  0.00    +0.000 C 
ATOM     24  O   UNL     1      -0.018  12.811  22.249  0.00  0.00    +0.000 OA
ATOM     25  H   UNL     1       1.715  13.849  19.791  0.00  0.00    +0.000 HD
ENDBRANCH  18  23
ENDBRANCH  12  18
ENDBRANCH  10  15
ENDBRANCH   1  11
BRANCH   1  26
ATOM     26  C   UNL     1       4.153   3.993  19.886  0.00  0.00    +0.000 C 
BRANCH  26  27
ATOM     27  N   UNL     1       4.668   4.585  18.669  0.00  0.00    +0.000 N 
ATOM     28  C   UNL     1       3.825   4.763  17.519  0.00  0.00    +0.000 C 
ATOM     29  C   UNL     1       4.877   4.815  16.475  0.00  0.00    +0.000 A 
ATOM     30  C   UNL     1       5.099   4.012  15.382  0.00  0.00    +0.000 A 
ATOM     31  C   UNL     1       6.291   4.194  14.673  0.00  0.00    +0.000 A 
ATOM     32  C   UNL     1       7.185   5.225  15.014  0.00  0.00    +0.000 A 
ATOM     33  C   UNL     1       7.061   5.853  16.246  0.00  0.00    +0.000 A 
ATOM     34  C   UNL     1       5.973   5.480  17.006  0.00  0.00    +0.000 A 
ATOM     35  C   UNL     1       5.964   5.016  18.422  0.00  0.00    +0.000 C 
ATOM     36  O   UNL     1       6.938   4.874  19.134  0.00  0.00    +0.000 OA
BRANCH  32  37
ATOM     37  O   UNL     1       8.174   5.461  14.102  0.00  0.00    +0.000 OA
ATOM     38  C   UNL     1       7.835   5.183  12.747  0.00  0.00    +0.000 C 
ENDBRANCH  32  37
ENDBRANCH  26  27
ENDBRANCH   1  26
TORSDOF 7
ENDMDL
MODEL 7
REMARK VINA RESULT:      -9.1      4.679      7.513
REMARK  Name = 
REMARK  9 active torsions:
REMARK  status: ('A' for Active; 'I' for Inactive)
REMARK    1  A    between atoms: C_1  and  N_2
REMARK    2  A    between atoms: C_3  and  C_5
REMARK    3  A    between atoms: C_5  and  C_6
REMARK    4  A    between atoms: C_9  and  C_10
REMARK    5  A    between atoms: C_11  and  C_12
REMARK    6  A    between atoms: C_12  and  C_13
REMARK    7  A    between atoms: C_13  and  N_14
REMARK    8  A    between atoms: C_19  and  O_20
REMARK    9  A    between atoms: O_20  and  C_21
REMARK                            x       y       z     vdW  Elec       q    Type
REMARK                         _______ _______ _______ _____ _____    ______ ____
ROOT
ATOM      1  C   UNL     1       2.701   3.868  20.131  0.00  0.00    +0.000 C 
ATOM      2  N   UNL     1       2.058   3.302  18.980  0.00  0.00    +0.000 N 
ATOM      3  C   UNL     1       0.834   2.782  19.295  0.00  0.00    +0.000 C 
ATOM      4  O   UNL     1       0.007   2.385  18.492  0.00  0.00    +0.000 OA
ATOM      5  N   UNL     1       0.700   2.778  20.646  0.00  0.00    +0.000 N 
ATOM      6  C   UNL     1       1.825   3.256  21.240  0.00  0.00    +0.000 C 
ATOM      7  O   UNL     1       2.055   3.257  22.448  0.00  0.00    +0.000 OA
ATOM      8  H   UNL     1       2.392   3.369  18.025  0.00  0.00    +0.000 HD
ATOM      9  H   UNL     1      -0.089   2.385  21.124  0.00  0.00    +0.000 HD
ENDROOT
BRANCH   1  11
ATOM     10  C   UNL     1       2.234   6.478  20.026  0.00  0.00    +0.000 C 
ATOM     11  C   UNL     1       2.505   5.311  20.097  0.00  0.00    +0.000 C 
BRANCH  10  15
ATOM     12  C   UNL     1       0.912  10.456  19.515  0.00  0.00    +0.000 A 
ATOM     13  C   UNL     1       1.450   9.711  18.452  0.00  0.00    +0.000 A 
ATOM     14  C   UNL     1       1.873   8.396  18.628  0.00  0.00    +0.000 A 
ATOM     15  C   UNL     1       1.738   7.793  19.869  0.00  0.00    +0.000 A 
ATOM     16  C   UNL     1       1.175   8.482  20.937  0.00  0.00    +0.000 A 
ATOM     17  C   UNL     1       0.765   9.806  20.758  0.00  0.00    +0.000 A 
BRANCH  12  18
ATOM     18  C   UNL     1       0.539  11.918  19.322  0.00  0.00    +0.000 C 
ATOM     19  C   UNL     1      -0.827  12.350  19.862  0.00  0.00    +0.000 C 
ATOM     20  C   UNL     1      -0.619  12.265  18.386  0.00  0.00    +0.000 C 
BRANCH  18  23
ATOM     21  C   UNL     1       3.095  14.456  18.193  0.00  0.00    +0.000 C 
ATOM     22  N   UNL     1       2.063  13.457  18.249  0.00  0.00    +0.000 N 
ATOM     23  C   UNL     1       1.663  12.911  19.445  0.00  0.00    +0.000 C 
ATOM     24  O   UNL     1       2.143  13.191  20.537  0.00  0.00    +0.000 OA
ATOM     25  H   UNL     1       1.664  13.100  17.393  0.00  0.00    +0.000 HD
ENDBRANCH  18  23
ENDBRANCH  12  18
ENDBRANCH  10  15
ENDBRANCH   1  11
BRANCH   1  26
ATOM     26  C   UNL     1       4.195   3.581  20.266  0.00  0.00    +0.000 C 
BRANCH  26  27
ATOM     27  N   UNL     1       4.990   3.965  19.118  0.00  0.00    +0.000 N 
ATOM     28  C   UNL     1       5.816   5.140  19.151  0.00  0.00    +0.000 C 
ATOM     29  C   UNL     1       5.908   5.392  17.693  0.00  0.00    +0.000 A 
ATOM     30  C   UNL     1       5.519   6.475  16.941  0.00  0.00    +0.000 A 
ATOM     31  C   UNL     1       5.562   6.350  15.549  0.00  0.00    +0.000 A 
ATOM     32  C   UNL     1       6.074   5.189  14.943  0.00  0.00    +0.000 A 
ATOM     33  C   UNL     1       6.228   4.036  15.702  0.00  0.00    +0.000 A 
ATOM     34  C   UNL     1       5.966   4.164  17.050  0.00  0.00    +0.000 A 
ATOM     35  C   UNL     1       5.056   3.330  17.886  0.00  0.00    +0.000 C 
ATOM     36  O   UNL     1       4.377   2.402  17.495  0.00  0.00    +0.000 OA
BRANCH  32  37
ATOM     37  O   UNL     1       6.299   5.285  13.599  0.00  0.00    +0.000 OA
ATOM     38  C   UNL     1       6.589   4.057  12.939  0.00  0.00    +0.000 C 
ENDBRANCH  32  37
ENDBRANCH  26  27
ENDBRANCH   1  26
TORSDOF 7
ENDMDL
MODEL 8
REMARK VINA RESULT:      -9.1      5.699      7.998
REMARK  Name = 
REMARK  9 active torsions:
REMARK  status: ('A' for Active; 'I' for Inactive)
REMARK    1  A    between atoms: C_1  and  N_2
REMARK    2  A    between atoms: C_3  and  C_5
REMARK    3  A    between atoms: C_5  and  C_6
REMARK    4  A    between atoms: C_9  and  C_10
REMARK    5  A    between atoms: C_11  and  C_12
REMARK    6  A    between atoms: C_12  and  C_13
REMARK    7  A    between atoms: C_13  and  N_14
REMARK    8  A    between atoms: C_19  and  O_20
REMARK    9  A    between atoms: O_20  and  C_21
REMARK                            x       y       z     vdW  Elec       q    Type
REMARK                         _______ _______ _______ _____ _____    ______ ____
ROOT
ATOM      1  C   UNL     1       2.747   3.924  20.004  0.00  0.00    +0.000 C 
ATOM      2  N   UNL     1       2.078   3.267  18.918  0.00  0.00    +0.000 N 
ATOM      3  C   UNL     1       0.867   2.766  19.306  0.00  0.00    +0.000 C 
ATOM      4  O   UNL     1       0.021   2.303  18.559  0.00  0.00    +0.000 OA
ATOM      5  N   UNL     1       0.770   2.865  20.657  0.00  0.00    +0.000 N 
ATOM      6  C   UNL     1       1.908   3.394  21.180  0.00  0.00    +0.000 C 
ATOM      7  O   UNL     1       2.170   3.489  22.378  0.00  0.00    +0.000 OA
ATOM      8  H   UNL     1       2.385   3.263  17.952  0.00  0.00    +0.000 HD
ATOM      9  H   UNL     1      -0.002   2.505  21.185  0.00  0.00    +0.000 HD
ENDROOT
BRANCH   1  11
ATOM     10  C   UNL     1       2.260   6.525  19.803  0.00  0.00    +0.000 C 
ATOM     11  C   UNL     1       2.538   5.359  19.865  0.00  0.00    +0.000 C 
BRANCH  10  15
ATOM     12  C   UNL     1       0.607  10.410  19.881  0.00  0.00    +0.000 A 
ATOM     13  C   UNL     1       0.582   9.571  21.007  0.00  0.00    +0.000 A 
ATOM     14  C   UNL     1       1.139   8.295  20.975  0.00  0.00    +0.000 A 
ATOM     15  C   UNL     1       1.760   7.847  19.818  0.00  0.00    +0.000 A 
ATOM     16  C   UNL     1       1.841   8.661  18.694  0.00  0.00    +0.000 A 
ATOM     17  C   UNL     1       1.268   9.936  18.728  0.00  0.00    +0.000 A 
BRANCH  12  18
ATOM     18  C   UNL     1      -0.085  11.764  19.911  0.00  0.00    +0.000 C 
ATOM     19  C   UNL     1      -1.408  11.871  19.148  0.00  0.00    +0.000 C 
ATOM     20  C   UNL     1      -0.198  12.563  18.612  0.00  0.00    +0.000 C 
BRANCH  18  23
ATOM     21  C   UNL     1      -1.211  13.240  23.199  0.00  0.00    +0.000 C 
ATOM     22  N   UNL     1      -1.149  12.583  21.922  0.00  0.00    +0.000 N 
ATOM     23  C   UNL     1       0.020  12.534  21.201  0.00  0.00    +0.000 C 
ATOM     24  O   UNL     1       1.078  13.045  21.547  0.00  0.00    +0.000 OA
ATOM     25  H   UNL     1      -1.990  12.202  21.512  0.00  0.00    +0.000 HD
ENDBRANCH  18  23
ENDBRANCH  12  18
ENDBRANCH  10  15
ENDBRANCH   1  11
BRANCH   1  26
ATOM     26  C   UNL     1       4.247   3.658  20.118  0.00  0.00    +0.000 C 
BRANCH  26  27
ATOM     27  N   UNL     1       5.001   3.922  18.911  0.00  0.00    +0.000 N 
ATOM     28  C   UNL     1       5.880   5.056  18.821  0.00  0.00    +0.000 C 
ATOM     29  C   UNL     1       5.911   5.202  17.346  0.00  0.00    +0.000 A 
ATOM     30  C   UNL     1       5.534   6.246  16.538  0.00  0.00    +0.000 A 
ATOM     31  C   UNL     1       5.504   6.023  15.158  0.00  0.00    +0.000 A 
ATOM     32  C   UNL     1       5.934   4.799  14.614  0.00  0.00    +0.000 A 
ATOM     33  C   UNL     1       6.073   3.696  15.446  0.00  0.00    +0.000 A 
ATOM     34  C   UNL     1       5.883   3.930  16.792  0.00  0.00    +0.000 A 
ATOM     35  C   UNL     1       4.979   3.201  17.726  0.00  0.00    +0.000 C 
ATOM     36  O   UNL     1       4.241   2.281  17.434  0.00  0.00    +0.000 OA
BRANCH  32  37
ATOM     37  O   UNL     1       6.098   4.791  13.258  0.00  0.00    +0.000 OA
ATOM     38  C   UNL     1       6.233   3.502  12.667  0.00  0.00    +0.000 C 
ENDBRANCH  32  37
ENDBRANCH  26  27
ENDBRANCH   1  26
TORSDOF 7
ENDMDL
MODEL 9
REMARK VINA RESULT:      -9.0      5.696      7.945
REMARK  Name = 
REMARK  9 active torsions:
REMARK  status: ('A' for Active; 'I' for Inactive)
REMARK    1  A    between atoms: C_1  and  N_2
REMARK    2  A    between atoms: C_3  and  C_5
REMARK    3  A    between atoms: C_5  and  C_6
REMARK    4  A    between atoms: C_9  and  C_10
REMARK    5  A    between atoms: C_11  and  C_12
REMARK    6  A    between atoms: C_12  and  C_13
REMARK    7  A    between atoms: C_13  and  N_14
REMARK    8  A    between atoms: C_19  and  O_20
REMARK    9  A    between atoms: O_20  and  C_21
REMARK                            x       y       z     vdW  Elec       q    Type
REMARK                         _______ _______ _______ _____ _____    ______ ____
ROOT
ATOM      1  C   UNL     1       2.733   3.929  20.009  0.00  0.00    +0.000 C 
ATOM      2  N   UNL     1       2.074   3.299  18.900  0.00  0.00    +0.000 N 
ATOM      3  C   UNL     1       0.865   2.778  19.267  0.00  0.00    +0.000 C 
ATOM      4  O   UNL     1       0.027   2.332  18.502  0.00  0.00    +0.000 OA
ATOM      5  N   UNL     1       0.760   2.839  20.619  0.00  0.00    +0.000 N 
ATOM      6  C   UNL     1       1.891   3.360  21.164  0.00  0.00    +0.000 C 
ATOM      7  O   UNL     1       2.146   3.423  22.365  0.00  0.00    +0.000 OA
ATOM      8  H   UNL     1       2.387   3.325  17.936  0.00  0.00    +0.000 HD
ATOM      9  H   UNL     1      -0.013   2.458  21.132  0.00  0.00    +0.000 HD
ENDROOT
BRANCH   1  11
ATOM     10  C   UNL     1       2.226   6.530  19.869  0.00  0.00    +0.000 C 
ATOM     11  C   UNL     1       2.515   5.366  19.909  0.00  0.00    +0.000 C 
BRANCH  10  15
ATOM     12  C   UNL     1       0.827  10.514  19.887  0.00  0.00    +0.000 A 
ATOM     13  C   UNL     1       1.263   9.888  18.708  0.00  0.00    +0.000 A 
ATOM     14  C   UNL     1       1.712   8.569  18.711  0.00  0.00    +0.000 A 
ATOM     15  C   UNL     1       1.705   7.845  19.893  0.00  0.00    +0.000 A 
ATOM     16  C   UNL     1       1.245   8.416  21.074  0.00  0.00    +0.000 A 
ATOM     17  C   UNL     1       0.808   9.744  21.068  0.00  0.00    +0.000 A 
BRANCH  12  18
ATOM     18  C   UNL     1       0.424  11.981  19.878  0.00  0.00    +0.000 C 
ATOM     19  C   UNL     1       1.506  12.984  19.468  0.00  0.00    +0.000 C 
ATOM     20  C   UNL     1       1.064  12.927  20.894  0.00  0.00    +0.000 C 
BRANCH  18  23
ATOM     21  C   UNL     1      -3.231  12.871  20.209  0.00  0.00    +0.000 C 
ATOM     22  N   UNL     1      -1.859  12.525  20.462  0.00  0.00    +0.000 N 
ATOM     23  C   UNL     1      -0.983  12.280  19.431  0.00  0.00    +0.000 C 
ATOM     24  O   UNL     1      -1.277  12.306  18.243  0.00  0.00    +0.000 OA
ATOM     25  H   UNL     1      -1.541  12.397  21.412  0.00  0.00    +0.000 HD
ENDBRANCH  18  23
ENDBRANCH  12  18
ENDBRANCH  10  15
ENDBRANCH   1  11
BRANCH   1  26
ATOM     26  C   UNL     1       4.234   3.670  20.123  0.00  0.00    +0.000 C 
BRANCH  26  27
ATOM     27  N   UNL     1       4.991   3.963  18.925  0.00  0.00    +0.000 N 
ATOM     28  C   UNL     1       5.782   5.159  18.823  0.00  0.00    +0.000 C 
ATOM     29  C   UNL     1       5.834   5.270  17.346  0.00  0.00    +0.000 A 
ATOM     30  C   UNL     1       5.395   6.263  16.503  0.00  0.00    +0.000 A 
ATOM     31  C   UNL     1       5.412   6.004  15.129  0.00  0.00    +0.000 A 
ATOM     32  C   UNL     1       5.946   4.804  14.626  0.00  0.00    +0.000 A 
ATOM     33  C   UNL     1       6.152   3.736  15.489  0.00  0.00    +0.000 A 
ATOM     34  C   UNL     1       5.916   3.987  16.824  0.00  0.00    +0.000 A 
ATOM     35  C   UNL     1       5.051   3.213  17.759  0.00  0.00    +0.000 C 
ATOM     36  O   UNL     1       4.392   2.232  17.477  0.00  0.00    +0.000 OA
BRANCH  32  37
ATOM     37  O   UNL     1       6.140   4.776  13.274  0.00  0.00    +0.000 OA
ATOM     38  C   UNL     1       6.031   3.491  12.668  0.00  0.00    +0.000 C 
ENDBRANCH  32  37
ENDBRANCH  26  27
ENDBRANCH   1  26
TORSDOF 7
ENDMDL
