MODEL 1
REMARK VINA RESULT:      -6.0      0.000      0.000
REMARK  Name = 
REMARK  8 active torsions:
REMARK  status: ('A' for Active; 'I' for Inactive)
REMARK    1  A    between atoms: C_1  and  C_2
REMARK    2  A    between atoms: C_2  and  C_3
REMARK    3  A    between atoms: C_2  and  C_4
REMARK    4  A    between atoms: C_4  and  C_5
REMARK    5  A    between atoms: C_5  and  N_6
REMARK    6  A    between atoms: C_5  and  C_7
REMARK    7  A    between atoms: C_12  and  C_13
REMARK    8  A    between atoms: C_14  and  C_15
REMARK                            x       y       z     vdW  Elec       q    Type
REMARK                         _______ _______ _______ _____ _____    ______ ____
ROOT
ATOM      1  C   UNL     1       3.250   3.416  17.743  0.00  0.00    +0.000 C 
ATOM      2  O   UNL     1       3.372   2.191  17.629  0.00  0.00    +0.000 OA
ATOM      3  N   UNL     1       4.252   4.266  17.289  0.00  0.00    +0.000 N 
ATOM      4  C   UNL     1       5.337   3.649  16.543  0.00  0.00    +0.000 C 
ATOM      5  C   UNL     1       6.448   4.662  16.589  0.00  0.00    +0.000 C 
ATOM      6  C   UNL     1       5.722   6.007  16.507  0.00  0.00    +0.000 C 
ATOM      7  C   UNL     1       6.588   7.091  17.146  0.00  0.00    +0.000 C 
ATOM      8  C   UNL     1       4.307   5.740  17.129  0.00  0.00    +0.000 C 
ATOM      9  C   UNL     1       4.042   6.569  18.379  0.00  0.00    +0.000 C 
ENDROOT
BRANCH   1  10
ATOM     10  C   UNL     1       1.928   3.997  18.295  0.00  0.00    +0.000 C 
BRANCH  10  11
ATOM     11  N   UNL     1       1.011   4.221  17.152  0.00  0.00    +0.000 NA
ATOM     12  H   UNL     1       1.588   4.468  16.339  0.00  0.00    +0.000 HD
ATOM     13  H   UNL     1       0.448   5.050  17.335  0.00  0.00    +0.000 HD
ENDBRANCH  10  11
BRANCH  10  14
ATOM     14  C   UNL     1       1.220   3.046  19.284  0.00  0.00    +0.000 C 
BRANCH  14  16
ATOM     15  C   UNL     1       1.963   2.645  21.711  0.00  0.00    +0.000 C 
ATOM     16  C   UNL     1       1.157   3.524  20.752  0.00  0.00    +0.000 C 
ATOM     17  C   UNL     1       1.672   4.967  20.834  0.00  0.00    +0.000 C 
ENDBRANCH  14  16
ENDBRANCH  10  14
ENDBRANCH   1  10
TORSDOF 4
ENDMDL
MODEL 2
REMARK VINA RESULT:      -5.9      1.667      2.347
REMARK  Name = 
REMARK  8 active torsions:
REMARK  status: ('A' for Active; 'I' for Inactive)
REMARK    1  A    between atoms: C_1  and  C_2
REMARK    2  A    between atoms: C_2  and  C_3
REMARK    3  A    between atoms: C_2  and  C_4
REMARK    4  A    between atoms: C_4  and  C_5
REMARK    5  A    between atoms: C_5  and  N_6
REMARK    6  A    between atoms: C_5  and  C_7
REMARK    7  A    between atoms: C_12  and  C_13
REMARK    8  A    between atoms: C_14  and  C_15
REMARK                            x       y       z     vdW  Elec       q    Type
REMARK                         _______ _______ _______ _____ _____    ______ ____
ROOT
ATOM      1  C   UNL     1       4.868   4.006  18.656  0.00  0.00    +0.000 C 
ATOM      2  O   UNL     1       5.014   3.208  19.589  0.00  0.00    +0.000 OA
ATOM      3  N   UNL     1       5.861   4.937  18.369  0.00  0.00    +0.000 N 
ATOM      4  C   UNL     1       7.109   4.802  19.102  0.00  0.00    +0.000 C 
ATOM      5  C   UNL     1       7.779   6.140  18.952  0.00  0.00    +0.000 C 
ATOM      6  C   UNL     1       7.414   6.577  17.531  0.00  0.00    +0.000 C 
ATOM      7  C   UNL     1       7.468   8.101  17.438  0.00  0.00    +0.000 C 
ATOM      8  C   UNL     1       6.043   5.874  17.233  0.00  0.00    +0.000 C 
ATOM      9  C   UNL     1       4.912   6.862  16.979  0.00  0.00    +0.000 C 
ENDROOT
BRANCH   1  10
ATOM     10  C   UNL     1       3.624   3.889  17.746  0.00  0.00    +0.000 C 
BRANCH  10  11
ATOM     11  N   UNL     1       3.249   2.457  17.663  0.00  0.00    +0.000 NA
ATOM     12  H   UNL     1       2.245   2.390  17.865  0.00  0.00    +0.000 HD
ATOM     13  H   UNL     1       3.703   1.950  18.422  0.00  0.00    +0.000 HD
ENDBRANCH  10  11
BRANCH  10  14
ATOM     14  C   UNL     1       2.405   4.661  18.292  0.00  0.00    +0.000 C 
BRANCH  14  16
ATOM     15  C   UNL     1       1.956   5.919  20.488  0.00  0.00    +0.000 C 
ATOM     16  C   UNL     1       2.170   4.561  19.817  0.00  0.00    +0.000 C 
ATOM     17  C   UNL     1       0.952   3.667  20.080  0.00  0.00    +0.000 C 
ENDBRANCH  14  16
ENDBRANCH  10  14
ENDBRANCH   1  10
TORSDOF 4
ENDMDL
MODEL 3
REMARK VINA RESULT:      -5.9      1.536      5.240
REMARK  Name = 
REMARK  8 active torsions:
REMARK  status: ('A' for Active; 'I' for Inactive)
REMARK    1  A    between atoms: C_1  and  C_2
REMARK    2  A    between atoms: C_2  and  C_3
REMARK    3  A    between atoms: C_2  and  C_4
REMARK    4  A    between atoms: C_4  and  C_5
REMARK    5  A    between atoms: C_5  and  N_6
REMARK    6  A    between atoms: C_5  and  C_7
REMARK    7  A    between atoms: C_12  and  C_13
REMARK    8  A    between atoms: C_14  and  C_15
REMARK                            x       y       z     vdW  Elec       q    Type
REMARK                         _______ _______ _______ _____ _____    ______ ____
ROOT
ATOM      1  C   UNL     1       3.890   3.361  18.013  0.00  0.00    +0.000 C 
ATOM      2  O   UNL     1       3.691   2.194  17.658  0.00  0.00    +0.000 OA
ATOM      3  N   UNL     1       3.103   3.934  19.007  0.00  0.00    +0.000 N 
ATOM      4  C   UNL     1       2.179   3.047  19.695  0.00  0.00    +0.000 C 
ATOM      5  C   UNL     1       1.182   3.970  20.340  0.00  0.00    +0.000 C 
ATOM      6  C   UNL     1       2.021   5.179  20.763  0.00  0.00    +0.000 C 
ATOM      7  C   UNL     1       1.125   6.413  20.851  0.00  0.00    +0.000 C 
ATOM      8  C   UNL     1       3.218   5.214  19.748  0.00  0.00    +0.000 C 
ATOM      9  C   UNL     1       3.247   6.485  18.909  0.00  0.00    +0.000 C 
ENDROOT
BRANCH   1  10
ATOM     10  C   UNL     1       5.086   4.141  17.422  0.00  0.00    +0.000 C 
BRANCH  10  11
ATOM     11  N   UNL     1       6.245   3.960  18.329  0.00  0.00    +0.000 NA
ATOM     12  H   UNL     1       6.840   4.791  18.236  0.00  0.00    +0.000 HD
ATOM     13  H   UNL     1       6.817   3.189  17.987  0.00  0.00    +0.000 HD
ENDBRANCH  10  11
BRANCH  10  14
ATOM     14  C   UNL     1       5.502   3.634  16.024  0.00  0.00    +0.000 C 
BRANCH  14  16
ATOM     15  C   UNL     1       5.347   6.120  15.391  0.00  0.00    +0.000 C 
ATOM     16  C   UNL     1       5.457   4.679  14.887  0.00  0.00    +0.000 C 
ATOM     17  C   UNL     1       6.719   4.539  14.025  0.00  0.00    +0.000 C 
ENDBRANCH  14  16
ENDBRANCH  10  14
ENDBRANCH   1  10
TORSDOF 4
ENDMDL
MODEL 4
REMARK VINA RESULT:      -5.9      2.136      2.714
REMARK  Name = 
REMARK  8 active torsions:
REMARK  status: ('A' for Active; 'I' for Inactive)
REMARK    1  A    between atoms: C_1  and  C_2
REMARK    2  A    between atoms: C_2  and  C_3
REMARK    3  A    between atoms: C_2  and  C_4
REMARK    4  A    between atoms: C_4  and  C_5
REMARK    5  A    between atoms: C_5  and  N_6
REMARK    6  A    between atoms: C_5  and  C_7
REMARK    7  A    between atoms: C_12  and  C_13
REMARK    8  A    between atoms: C_14  and  C_15
REMARK                            x       y       z     vdW  Elec       q    Type
REMARK                         _______ _______ _______ _____ _____    ______ ____
ROOT
ATOM      1  C   UNL     1       2.788   5.964  18.679  0.00  0.00    +0.000 C 
ATOM      2  O   UNL     1       1.951   6.623  18.051  0.00  0.00    +0.000 OA
ATOM      3  N   UNL     1       4.108   5.911  18.244  0.00  0.00    +0.000 N 
ATOM      4  C   UNL     1       4.463   6.787  17.139  0.00  0.00    +0.000 C 
ATOM      5  C   UNL     1       5.742   6.209  16.598  0.00  0.00    +0.000 C 
ATOM      6  C   UNL     1       6.475   5.706  17.844  0.00  0.00    +0.000 C 
ATOM      7  C   UNL     1       7.436   4.586  17.450  0.00  0.00    +0.000 C 
ATOM      8  C   UNL     1       5.339   5.368  18.871  0.00  0.00    +0.000 C 
ATOM      9  C   UNL     1       5.310   3.896  19.261  0.00  0.00    +0.000 C 
ENDROOT
BRANCH   1  10
ATOM     10  C   UNL     1       2.380   5.290  20.009  0.00  0.00    +0.000 C 
BRANCH  10  11
ATOM     11  N   UNL     1       2.064   6.359  20.987  0.00  0.00    +0.000 NA
ATOM     12  H   UNL     1       2.941   6.620  21.452  0.00  0.00    +0.000 HD
ATOM     13  H   UNL     1       1.481   5.970  21.727  0.00  0.00    +0.000 HD
ENDBRANCH  10  11
BRANCH  10  14
ATOM     14  C   UNL     1       1.128   4.398  19.871  0.00  0.00    +0.000 C 
BRANCH  14  16
ATOM     15  C   UNL     1       1.991   2.087  19.147  0.00  0.00    +0.000 C 
ATOM     16  C   UNL     1       1.315   2.910  20.246  0.00  0.00    +0.000 C 
ATOM     17  C   UNL     1       2.147   2.817  21.532  0.00  0.00    +0.000 C 
ENDBRANCH  14  16
ENDBRANCH  10  14
ENDBRANCH   1  10
TORSDOF 4
ENDMDL
MODEL 5
REMARK VINA RESULT:      -5.9      2.201      2.821
REMARK  Name = 
REMARK  8 active torsions:
REMARK  status: ('A' for Active; 'I' for Inactive)
REMARK    1  A    between atoms: C_1  and  C_2
REMARK    2  A    between atoms: C_2  and  C_3
REMARK    3  A    between atoms: C_2  and  C_4
REMARK    4  A    between atoms: C_4  and  C_5
REMARK    5  A    between atoms: C_5  and  N_6
REMARK    6  A    between atoms: C_5  and  C_7
REMARK    7  A    between atoms: C_12  and  C_13
REMARK    8  A    between atoms: C_14  and  C_15
REMARK                            x       y       z     vdW  Elec       q    Type
REMARK                         _______ _______ _______ _____ _____    ______ ____
ROOT
ATOM      1  C   UNL     1       2.928   6.325  18.693  0.00  0.00    +0.000 C 
ATOM      2  O   UNL     1       2.140   7.083  18.114  0.00  0.00    +0.000 OA
ATOM      3  N   UNL     1       4.217   6.149  18.204  0.00  0.00    +0.000 N 
ATOM      4  C   UNL     1       4.619   7.014  17.106  0.00  0.00    +0.000 C 
ATOM      5  C   UNL     1       5.809   6.322  16.500  0.00  0.00    +0.000 C 
ATOM      6  C   UNL     1       6.533   5.713  17.703  0.00  0.00    +0.000 C 
ATOM      7  C   UNL     1       7.357   4.511  17.245  0.00  0.00    +0.000 C 
ATOM      8  C   UNL     1       5.408   5.466  18.768  0.00  0.00    +0.000 C 
ATOM      9  C   UNL     1       5.241   3.995  19.125  0.00  0.00    +0.000 C 
ENDROOT
BRANCH   1  10
ATOM     10  C   UNL     1       2.502   5.662  20.023  0.00  0.00    +0.000 C 
BRANCH  10  11
ATOM     11  N   UNL     1       2.000   6.725  20.926  0.00  0.00    +0.000 NA
ATOM     12  H   UNL     1       1.270   7.239  20.420  0.00  0.00    +0.000 HD
ATOM     13  H   UNL     1       2.741   7.406  21.082  0.00  0.00    +0.000 HD
ENDBRANCH  10  11
BRANCH  10  14
ATOM     14  C   UNL     1       1.371   4.627  19.843  0.00  0.00    +0.000 C 
BRANCH  14  16
ATOM     15  C   UNL     1       1.428   2.672  21.509  0.00  0.00    +0.000 C 
ATOM     16  C   UNL     1       1.760   3.152  20.095  0.00  0.00    +0.000 C 
ATOM     17  C   UNL     1       1.040   2.261  19.075  0.00  0.00    +0.000 C 
ENDBRANCH  14  16
ENDBRANCH  10  14
ENDBRANCH   1  10
TORSDOF 4
ENDMDL
MODEL 6
REMARK VINA RESULT:      -5.9      1.706      5.207
REMARK  Name = 
REMARK  8 active torsions:
REMARK  status: ('A' for Active; 'I' for Inactive)
REMARK    1  A    between atoms: C_1  and  C_2
REMARK    2  A    between atoms: C_2  and  C_3
REMARK    3  A    between atoms: C_2  and  C_4
REMARK    4  A    between atoms: C_4  and  C_5
REMARK    5  A    between atoms: C_5  and  N_6
REMARK    6  A    between atoms: C_5  and  C_7
REMARK    7  A    between atoms: C_12  and  C_13
REMARK    8  A    between atoms: C_14  and  C_15
REMARK                            x       y       z     vdW  Elec       q    Type
REMARK                         _______ _______ _______ _____ _____    ______ ____
ROOT
ATOM      1  C   UNL     1       5.101   4.283  16.584  0.00  0.00    +0.000 C 
ATOM      2  O   UNL     1       4.986   4.004  15.385  0.00  0.00    +0.000 OA
ATOM      3  N   UNL     1       4.043   4.064  17.460  0.00  0.00    +0.000 N 
ATOM      4  C   UNL     1       2.894   3.352  16.924  0.00  0.00    +0.000 C 
ATOM      5  C   UNL     1       1.780   3.660  17.886  0.00  0.00    +0.000 C 
ATOM      6  C   UNL     1       2.472   3.703  19.250  0.00  0.00    +0.000 C 
ATOM      7  C   UNL     1       1.663   4.581  20.203  0.00  0.00    +0.000 C 
ATOM      8  C   UNL     1       3.950   4.130  18.940  0.00  0.00    +0.000 C 
ATOM      9  C   UNL     1       4.334   5.455  19.587  0.00  0.00    +0.000 C 
ENDROOT
BRANCH   1  10
ATOM     10  C   UNL     1       6.465   4.776  17.120  0.00  0.00    +0.000 C 
BRANCH  10  11
ATOM     11  N   UNL     1       7.533   4.031  16.410  0.00  0.00    +0.000 NA
ATOM     12  H   UNL     1       7.601   4.419  15.463  0.00  0.00    +0.000 HD
ATOM     13  H   UNL     1       7.233   3.066  16.277  0.00  0.00    +0.000 HD
ENDBRANCH  10  11
BRANCH  10  14
ATOM     14  C   UNL     1       6.700   6.281  16.872  0.00  0.00    +0.000 C 
BRANCH  14  16
ATOM     15  C   UNL     1       8.057   6.279  19.055  0.00  0.00    +0.000 C 
ATOM     16  C   UNL     1       7.196   7.096  18.088  0.00  0.00    +0.000 C 
ATOM     17  C   UNL     1       7.999   8.304  17.591  0.00  0.00    +0.000 C 
ENDBRANCH  14  16
ENDBRANCH  10  14
ENDBRANCH   1  10
TORSDOF 4
ENDMDL
MODEL 7
REMARK VINA RESULT:      -5.8      1.768      5.412
REMARK  Name = 
REMARK  8 active torsions:
REMARK  status: ('A' for Active; 'I' for Inactive)
REMARK    1  A    between atoms: C_1  and  C_2
REMARK    2  A    between atoms: C_2  and  C_3
REMARK    3  A    between atoms: C_2  and  C_4
REMARK    4  A    between atoms: C_4  and  C_5
REMARK    5  A    between atoms: C_5  and  N_6
REMARK    6  A    between atoms: C_5  and  C_7
REMARK    7  A    between atoms: C_12  and  C_13
REMARK    8  A    between atoms: C_14  and  C_15
REMARK                            x       y       z     vdW  Elec       q    Type
REMARK                         _______ _______ _______ _____ _____    ______ ____
ROOT
ATOM      1  C   UNL     1       4.468   5.155  17.442  0.00  0.00    +0.000 C 
ATOM      2  O   UNL     1       4.225   6.232  16.886  0.00  0.00    +0.000 OA
ATOM      3  N   UNL     1       3.469   4.485  18.140  0.00  0.00    +0.000 N 
ATOM      4  C   UNL     1       2.125   5.031  18.033  0.00  0.00    +0.000 C 
ATOM      5  C   UNL     1       1.383   4.433  19.197  0.00  0.00    +0.000 C 
ATOM      6  C   UNL     1       1.959   3.020  19.313  0.00  0.00    +0.000 C 
ATOM      7  C   UNL     1       1.795   2.522  20.748  0.00  0.00    +0.000 C 
ATOM      8  C   UNL     1       3.415   3.128  18.738  0.00  0.00    +0.000 C 
ATOM      9  C   UNL     1       4.487   2.797  19.769  0.00  0.00    +0.000 C 
ENDROOT
BRANCH   1  10
ATOM     10  C   UNL     1       5.860   4.507  17.263  0.00  0.00    +0.000 C 
BRANCH  10  11
ATOM     11  N   UNL     1       5.728   3.396  16.289  0.00  0.00    +0.000 NA
ATOM     12  H   UNL     1       5.907   2.521  16.794  0.00  0.00    +0.000 HD
ATOM     13  H   UNL     1       6.481   3.463  15.605  0.00  0.00    +0.000 HD
ENDBRANCH  10  11
BRANCH  10  14
ATOM     14  C   UNL     1       6.914   5.490  16.711  0.00  0.00    +0.000 C 
BRANCH  14  16
ATOM     15  C   UNL     1       7.545   7.770  17.715  0.00  0.00    +0.000 C 
ATOM     16  C   UNL     1       7.743   6.254  17.769  0.00  0.00    +0.000 C 
ATOM     17  C   UNL     1       7.368   5.744  19.166  0.00  0.00    +0.000 C 
ENDBRANCH  14  16
ENDBRANCH  10  14
ENDBRANCH   1  10
TORSDOF 4
ENDMDL
MODEL 8
REMARK VINA RESULT:      -5.8      1.858      5.523
REMARK  Name = 
REMARK  8 active torsions:
REMARK  status: ('A' for Active; 'I' for Inactive)
REMARK    1  A    between atoms: C_1  and  C_2
REMARK    2  A    between atoms: C_2  and  C_3
REMARK    3  A    between atoms: C_2  and  C_4
REMARK    4  A    between atoms: C_4  and  C_5
REMARK    5  A    between atoms: C_5  and  N_6
REMARK    6  A    between atoms: C_5  and  C_7
REMARK    7  A    between atoms: C_12  and  C_13
REMARK    8  A    between atoms: C_14  and  C_15
REMARK                            x       y       z     vdW  Elec       q    Type
REMARK                         _______ _______ _______ _____ _____    ______ ____
ROOT
ATOM      1  C   UNL     1       4.091   5.824  18.044  0.00  0.00    +0.000 C 
ATOM      2  O   UNL     1       3.868   7.018  17.814  0.00  0.00    +0.000 OA
ATOM      3  N   UNL     1       3.273   5.114  18.917  0.00  0.00    +0.000 N 
ATOM      4  C   UNL     1       2.081   5.798  19.391  0.00  0.00    +0.000 C 
ATOM      5  C   UNL     1       1.666   5.027  20.614  0.00  0.00    +0.000 C 
ATOM      6  C   UNL     1       1.999   3.575  20.262  0.00  0.00    +0.000 C 
ATOM      7  C   UNL     1       2.226   2.781  21.548  0.00  0.00    +0.000 C 
ATOM      8  C   UNL     1       3.185   3.668  19.240  0.00  0.00    +0.000 C 
ATOM      9  C   UNL     1       4.460   3.007  19.749  0.00  0.00    +0.000 C 
ENDROOT
BRANCH   1  10
ATOM     10  C   UNL     1       5.217   5.100  17.272  0.00  0.00    +0.000 C 
BRANCH  10  11
ATOM     11  N   UNL     1       4.588   4.237  16.243  0.00  0.00    +0.000 NA
ATOM     12  H   UNL     1       3.997   4.838  15.658  0.00  0.00    +0.000 HD
ATOM     13  H   UNL     1       3.941   3.595  16.699  0.00  0.00    +0.000 HD
ENDBRANCH  10  11
BRANCH  10  14
ATOM     14  C   UNL     1       6.170   6.075  16.546  0.00  0.00    +0.000 C 
BRANCH  14  16
ATOM     15  C   UNL     1       7.640   7.889  17.620  0.00  0.00    +0.000 C 
ATOM     16  C   UNL     1       7.488   6.404  17.283  0.00  0.00    +0.000 C 
ATOM     17  C   UNL     1       7.560   5.582  18.577  0.00  0.00    +0.000 C 
ENDBRANCH  14  16
ENDBRANCH  10  14
ENDBRANCH   1  10
TORSDOF 4
ENDMDL
MODEL 9
REMARK VINA RESULT:      -5.8      2.262      3.021
REMARK  Name = 
REMARK  8 active torsions:
REMARK  status: ('A' for Active; 'I' for Inactive)
REMARK    1  A    between atoms: C_1  and  C_2
REMARK    2  A    between atoms: C_2  and  C_3
REMARK    3  A    between atoms: C_2  and  C_4
REMARK    4  A    between atoms: C_4  and  C_5
REMARK    5  A    between atoms: C_5  and  N_6
REMARK    6  A    between atoms: C_5  and  C_7
REMARK    7  A    between atoms: C_12  and  C_13
REMARK    8  A    between atoms: C_14  and  C_15
REMARK                            x       y       z     vdW  Elec       q    Type
REMARK                         _______ _______ _______ _____ _____    ______ ____
ROOT
ATOM      1  C   UNL     1       5.489   4.420  18.943  0.00  0.00    +0.000 C 
ATOM      2  O   UNL     1       6.131   5.039  19.799  0.00  0.00    +0.000 OA
ATOM      3  N   UNL     1       5.922   4.399  17.622  0.00  0.00    +0.000 N 
ATOM      4  C   UNL     1       7.225   4.989  17.356  0.00  0.00    +0.000 C 
ATOM      5  C   UNL     1       7.226   5.245  15.874  0.00  0.00    +0.000 C 
ATOM      6  C   UNL     1       6.449   4.059  15.296  0.00  0.00    +0.000 C 
ATOM      7  C   UNL     1       5.837   4.458  13.954  0.00  0.00    +0.000 C 
ATOM      8  C   UNL     1       5.475   3.617  16.443  0.00  0.00    +0.000 C 
ATOM      9  C   UNL     1       4.006   3.749  16.058  0.00  0.00    +0.000 C 
ENDROOT
BRANCH   1  10
ATOM     10  C   UNL     1       4.264   3.581  19.374  0.00  0.00    +0.000 C 
BRANCH  10  11
ATOM     11  N   UNL     1       4.759   2.357  20.048  0.00  0.00    +0.000 NA
ATOM     12  H   UNL     1       5.149   1.743  19.323  0.00  0.00    +0.000 HD
ATOM     13  H   UNL     1       3.965   1.842  20.426  0.00  0.00    +0.000 HD
ENDBRANCH  10  11
BRANCH  10  14
ATOM     14  C   UNL     1       3.347   4.324  20.368  0.00  0.00    +0.000 C 
BRANCH  14  16
ATOM     15  C   UNL     1       1.449   3.737  18.738  0.00  0.00    +0.000 C 
ATOM     16  C   UNL     1       1.828   4.115  20.171  0.00  0.00    +0.000 C 
ATOM     17  C   UNL     1       1.343   3.020  21.129  0.00  0.00    +0.000 C 
ENDBRANCH  14  16
ENDBRANCH  10  14
ENDBRANCH   1  10
TORSDOF 4
ENDMDL
