MODEL 1
REMARK VINA RESULT:      -7.9      0.000      0.000
REMARK  Name = 
REMARK  6 active torsions:
REMARK  status: ('A' for Active; 'I' for Inactive)
REMARK    1  A    between atoms: C_1  and  O_2
REMARK    2  A    between atoms: O_2  and  C_3
REMARK    3  A    between atoms: C_11  and  O_12
REMARK    4  A    between atoms: O_12  and  C_13
REMARK    5  A    between atoms: C_14  and  O_15
REMARK    6  A    between atoms: O_15  and  C_16
REMARK                            x       y       z     vdW  Elec       q    Type
REMARK                         _______ _______ _______ _____ _____    ______ ____
ROOT
ATOM      1  C   UNL     1       5.962   4.727  15.161  0.00  0.00    +0.000 A 
ATOM      2  C   UNL     1       5.677   6.047  14.896  0.00  0.00    +0.000 A 
ATOM      3  C   UNL     1       4.883   6.766  15.791  0.00  0.00    +0.000 A 
ATOM      4  C   UNL     1       4.347   6.201  16.984  0.00  0.00    +0.000 A 
ATOM      5  C   UNL     1       4.692   4.861  17.287  0.00  0.00    +0.000 A 
ATOM      6  C   UNL     1       5.482   4.159  16.337  0.00  0.00    +0.000 A 
ATOM      7  C   UNL     1       4.235   4.249  18.497  0.00  0.00    +0.000 A 
ATOM      8  C   UNL     1       4.637   2.936  18.873  0.00  0.00    +0.000 A 
ATOM      9  C   UNL     1       4.190   2.264  20.016  0.00  0.00    +0.000 A 
ATOM     10  C   UNL     1       3.306   2.933  20.851  0.00  0.00    +0.000 A 
ATOM     11  C   UNL     1       2.918   4.248  20.523  0.00  0.00    +0.000 A 
ATOM     12  C   UNL     1       3.360   4.943  19.362  0.00  0.00    +0.000 A 
ATOM     13  C   UNL     1       2.967   6.286  19.034  0.00  0.00    +0.000 A 
ATOM     14  C   UNL     1       2.078   7.031  19.840  0.00  0.00    +0.000 A 
ATOM     15  N   UNL     1       1.716   8.280  19.506  0.00  0.00    +0.000 N 
ATOM     16  C   UNL     1       2.185   8.893  18.421  0.00  0.00    +0.000 A 
ATOM     17  C   UNL     1       3.066   8.244  17.585  0.00  0.00    +0.000 A 
ATOM     18  C   UNL     1       3.474   6.916  17.860  0.00  0.00    +0.000 A 
ATOM     19  C   UNL     1       1.635  10.261  18.260  0.00  0.00    +0.000 C 
ATOM     20  C   UNL     1       0.715  10.409  19.469  0.00  0.00    +0.000 C 
ATOM     21  C   UNL     1       0.777   9.104  20.261  0.00  0.00    +0.000 C 
ENDROOT
BRANCH   1  23
ATOM     22  C   UNL     1       6.072   3.661  13.062  0.00  0.00    +0.000 C 
ATOM     23  O   UNL     1       6.651   3.874  14.349  0.00  0.00    +0.000 OA
ENDBRANCH   1  23
BRANCH   9  24
ATOM     24  O   UNL     1       4.588   0.995  20.334  0.00  0.00    +0.000 OA
ATOM     25  C   UNL     1       5.515   0.812  21.399  0.00  0.00    +0.000 C 
ENDBRANCH   9  24
BRANCH  10  26
ATOM     26  O   UNL     1       2.724   2.491  22.012  0.00  0.00    +0.000 OA
ATOM     27  C   UNL     1       1.304   2.517  22.111  0.00  0.00    +0.000 C 
ENDBRANCH  10  26
TORSDOF 3
ENDMDL
MODEL 2
REMARK VINA RESULT:      -6.9      8.807     10.390
REMARK  Name = 
REMARK  6 active torsions:
REMARK  status: ('A' for Active; 'I' for Inactive)
REMARK    1  A    between atoms: C_1  and  O_2
REMARK    2  A    between atoms: O_2  and  C_3
REMARK    3  A    between atoms: C_11  and  O_12
REMARK    4  A    between atoms: O_12  and  C_13
REMARK    5  A    between atoms: C_14  and  O_15
REMARK    6  A    between atoms: O_15  and  C_16
REMARK                            x       y       z     vdW  Elec       q    Type
REMARK                         _______ _______ _______ _____ _____    ______ ____
ROOT
ATOM      1  C   UNL     1      -3.181  10.821  16.005  0.00  0.00    +0.000 A 
ATOM      2  C   UNL     1      -4.497  10.928  16.394  0.00  0.00    +0.000 A 
ATOM      3  C   UNL     1      -4.795  11.433  17.660  0.00  0.00    +0.000 A 
ATOM      4  C   UNL     1      -3.797  11.856  18.585  0.00  0.00    +0.000 A 
ATOM      5  C   UNL     1      -2.446  11.804  18.160  0.00  0.00    +0.000 A 
ATOM      6  C   UNL     1      -2.187  11.261  16.873  0.00  0.00    +0.000 A 
ATOM      7  C   UNL     1      -1.397  12.266  19.017  0.00  0.00    +0.000 A 
ATOM      8  C   UNL     1      -0.041  12.311  18.587  0.00  0.00    +0.000 A 
ATOM      9  C   UNL     1       1.035  12.706  19.388  0.00  0.00    +0.000 A 
ATOM     10  C   UNL     1       0.757  13.099  20.690  0.00  0.00    +0.000 A 
ATOM     11  C   UNL     1      -0.581  13.099  21.134  0.00  0.00    +0.000 A 
ATOM     12  C   UNL     1      -1.686  12.696  20.332  0.00  0.00    +0.000 A 
ATOM     13  C   UNL     1      -3.050  12.703  20.784  0.00  0.00    +0.000 A 
ATOM     14  C   UNL     1      -3.409  13.098  22.092  0.00  0.00    +0.000 A 
ATOM     15  N   UNL     1      -4.690  13.084  22.495  0.00  0.00    +0.000 N 
ATOM     16  C   UNL     1      -5.688  12.726  21.692  0.00  0.00    +0.000 A 
ATOM     17  C   UNL     1      -5.429  12.337  20.396  0.00  0.00    +0.000 A 
ATOM     18  C   UNL     1      -4.100  12.303  19.908  0.00  0.00    +0.000 A 
ATOM     19  C   UNL     1      -7.008  12.784  22.365  0.00  0.00    +0.000 C 
ATOM     20  C   UNL     1      -6.659  13.260  23.773  0.00  0.00    +0.000 C 
ATOM     21  C   UNL     1      -5.143  13.441  23.837  0.00  0.00    +0.000 C 
ENDROOT
BRANCH   1  23
ATOM     22  C   UNL     1      -3.732  10.028  13.855  0.00  0.00    +0.000 C 
ATOM     23  O   UNL     1      -2.728  10.276  14.839  0.00  0.00    +0.000 OA
ENDBRANCH   1  23
BRANCH   9  24
ATOM     24  O   UNL     1       2.327  12.720  18.942  0.00  0.00    +0.000 OA
ATOM     25  C   UNL     1       2.813  13.882  18.279  0.00  0.00    +0.000 C 
ENDBRANCH   9  24
BRANCH  10  26
ATOM     26  O   UNL     1       1.630  13.516  21.664  0.00  0.00    +0.000 OA
ATOM     27  C   UNL     1       1.855  14.913  21.820  0.00  0.00    +0.000 C 
ENDBRANCH  10  26
TORSDOF 3
ENDMDL
MODEL 3
REMARK VINA RESULT:      -6.6      6.360     10.282
REMARK  Name = 
REMARK  6 active torsions:
REMARK  status: ('A' for Active; 'I' for Inactive)
REMARK    1  A    between atoms: C_1  and  O_2
REMARK    2  A    between atoms: O_2  and  C_3
REMARK    3  A    between atoms: C_11  and  O_12
REMARK    4  A    between atoms: O_12  and  C_13
REMARK    5  A    between atoms: C_14  and  O_15
REMARK    6  A    between atoms: O_15  and  C_16
REMARK                            x       y       z     vdW  Elec       q    Type
REMARK                         _______ _______ _______ _____ _____    ______ ____
ROOT
ATOM      1  C   UNL     1       0.757   9.702  19.888  0.00  0.00    +0.000 A 
ATOM      2  C   UNL     1       0.911  10.165  21.174  0.00  0.00    +0.000 A 
ATOM      3  C   UNL     1      -0.059  11.009  21.716  0.00  0.00    +0.000 A 
ATOM      4  C   UNL     1      -1.220  11.422  21.001  0.00  0.00    +0.000 A 
ATOM      5  C   UNL     1      -1.409  10.895  19.699  0.00  0.00    +0.000 A 
ATOM      6  C   UNL     1      -0.386  10.058  19.179  0.00  0.00    +0.000 A 
ATOM      7  C   UNL     1      -2.582  11.222  18.947  0.00  0.00    +0.000 A 
ATOM      8  C   UNL     1      -2.844  10.639  17.675  0.00  0.00    +0.000 A 
ATOM      9  C   UNL     1      -3.945  10.951  16.869  0.00  0.00    +0.000 A 
ATOM     10  C   UNL     1      -4.854  11.880  17.354  0.00  0.00    +0.000 A 
ATOM     11  C   UNL     1      -4.640  12.448  18.626  0.00  0.00    +0.000 A 
ATOM     12  C   UNL     1      -3.523  12.144  19.455  0.00  0.00    +0.000 A 
ATOM     13  C   UNL     1      -3.310  12.719  20.755  0.00  0.00    +0.000 A 
ATOM     14  C   UNL     1      -4.196  13.666  21.317  0.00  0.00    +0.000 A 
ATOM     15  N   UNL     1      -3.969  14.198  22.528  0.00  0.00    +0.000 N 
ATOM     16  C   UNL     1      -2.922  13.855  23.275  0.00  0.00    +0.000 A 
ATOM     17  C   UNL     1      -2.013  12.931  22.809  0.00  0.00    +0.000 A 
ATOM     18  C   UNL     1      -2.174  12.345  21.530  0.00  0.00    +0.000 A 
ATOM     19  C   UNL     1      -2.882  14.583  24.566  0.00  0.00    +0.000 C 
ATOM     20  C   UNL     1      -4.125  15.466  24.504  0.00  0.00    +0.000 C 
ATOM     21  C   UNL     1      -4.812  15.206  23.165  0.00  0.00    +0.000 C 
ENDROOT
BRANCH   1  23
ATOM     22  C   UNL     1       1.825   9.305  17.825  0.00  0.00    +0.000 C 
ATOM     23  O   UNL     1       1.652   8.940  19.194  0.00  0.00    +0.000 OA
ENDBRANCH   1  23
BRANCH   9  24
ATOM     24  O   UNL     1      -4.153  10.380  15.644  0.00  0.00    +0.000 OA
ATOM     25  C   UNL     1      -3.041  10.198  14.773  0.00  0.00    +0.000 C 
ENDBRANCH   9  24
BRANCH  10  26
ATOM     26  O   UNL     1      -5.995  12.355  16.756  0.00  0.00    +0.000 OA
ATOM     27  C   UNL     1      -6.781  13.311  17.460  0.00  0.00    +0.000 C 
ENDBRANCH  10  26
TORSDOF 3
ENDMDL
MODEL 4
REMARK VINA RESULT:      -6.6      6.109      9.834
REMARK  Name = 
REMARK  6 active torsions:
REMARK  status: ('A' for Active; 'I' for Inactive)
REMARK    1  A    between atoms: C_1  and  O_2
REMARK    2  A    between atoms: O_2  and  C_3
REMARK    3  A    between atoms: C_11  and  O_12
REMARK    4  A    between atoms: O_12  and  C_13
REMARK    5  A    between atoms: C_14  and  O_15
REMARK    6  A    between atoms: O_15  and  C_16
REMARK                            x       y       z     vdW  Elec       q    Type
REMARK                         _______ _______ _______ _____ _____    ______ ____
ROOT
ATOM      1  C   UNL     1       1.149   9.710  18.485  0.00  0.00    +0.000 A 
ATOM      2  C   UNL     1       1.503  10.071  19.764  0.00  0.00    +0.000 A 
ATOM      3  C   UNL     1       0.607  10.813  20.536  0.00  0.00    +0.000 A 
ATOM      4  C   UNL     1      -0.675  11.220  20.067  0.00  0.00    +0.000 A 
ATOM      5  C   UNL     1      -1.063  10.795  18.772  0.00  0.00    +0.000 A 
ATOM      6  C   UNL     1      -0.112  10.062  18.013  0.00  0.00    +0.000 A 
ATOM      7  C   UNL     1      -2.359  11.119  18.260  0.00  0.00    +0.000 A 
ATOM      8  C   UNL     1      -2.813  10.631  17.001  0.00  0.00    +0.000 A 
ATOM      9  C   UNL     1      -4.047  10.948  16.423  0.00  0.00    +0.000 A 
ATOM     10  C   UNL     1      -4.896  11.783  17.137  0.00  0.00    +0.000 A 
ATOM     11  C   UNL     1      -4.489  12.253  18.402  0.00  0.00    +0.000 A 
ATOM     12  C   UNL     1      -3.235  11.943  19.001  0.00  0.00    +0.000 A 
ATOM     13  C   UNL     1      -2.825  12.418  20.295  0.00  0.00    +0.000 A 
ATOM     14  C   UNL     1      -3.639  13.263  21.081  0.00  0.00    +0.000 A 
ATOM     15  N   UNL     1      -3.229  13.704  22.281  0.00  0.00    +0.000 N 
ATOM     16  C   UNL     1      -2.057  13.357  22.807  0.00  0.00    +0.000 A 
ATOM     17  C   UNL     1      -1.205  12.527  22.113  0.00  0.00    +0.000 A 
ATOM     18  C   UNL     1      -1.560  12.042  20.831  0.00  0.00    +0.000 A 
ATOM     19  C   UNL     1      -1.825  13.975  24.135  0.00  0.00    +0.000 C 
ATOM     20  C   UNL     1      -3.094  14.792  24.363  0.00  0.00    +0.000 C 
ATOM     21  C   UNL     1      -3.990  14.607  23.140  0.00  0.00    +0.000 C 
ENDROOT
BRANCH   1  23
ATOM     22  C   UNL     1       2.566   7.873  18.072  0.00  0.00    +0.000 C 
ATOM     23  O   UNL     1       1.941   9.060  17.584  0.00  0.00    +0.000 OA
ENDBRANCH   1  23
BRANCH   9  24
ATOM     24  O   UNL     1      -4.439  10.473  15.204  0.00  0.00    +0.000 OA
ATOM     25  C   UNL     1      -3.445  10.026  14.288  0.00  0.00    +0.000 C 
ENDBRANCH   9  24
BRANCH  10  26
ATOM     26  O   UNL     1      -6.140  12.243  16.785  0.00  0.00    +0.000 OA
ATOM     27  C   UNL     1      -6.515  13.556  17.186  0.00  0.00    +0.000 C 
ENDBRANCH  10  26
TORSDOF 3
ENDMDL
MODEL 5
REMARK VINA RESULT:      -6.6      5.754      9.148
REMARK  Name = 
REMARK  6 active torsions:
REMARK  status: ('A' for Active; 'I' for Inactive)
REMARK    1  A    between atoms: C_1  and  O_2
REMARK    2  A    between atoms: O_2  and  C_3
REMARK    3  A    between atoms: C_11  and  O_12
REMARK    4  A    between atoms: O_12  and  C_13
REMARK    5  A    between atoms: C_14  and  O_15
REMARK    6  A    between atoms: O_15  and  C_16
REMARK                            x       y       z     vdW  Elec       q    Type
REMARK                         _______ _______ _______ _____ _____    ______ ____
ROOT
ATOM      1  C   UNL     1      -3.276  10.450  15.531  0.00  0.00    +0.000 A 
ATOM      2  C   UNL     1      -4.387  11.225  15.776  0.00  0.00    +0.000 A 
ATOM      3  C   UNL     1      -4.539  11.820  17.029  0.00  0.00    +0.000 A 
ATOM      4  C   UNL     1      -3.593  11.673  18.083  0.00  0.00    +0.000 A 
ATOM      5  C   UNL     1      -2.419  10.926  17.810  0.00  0.00    +0.000 A 
ATOM      6  C   UNL     1      -2.316  10.319  16.529  0.00  0.00    +0.000 A 
ATOM      7  C   UNL     1      -1.400  10.786  18.804  0.00  0.00    +0.000 A 
ATOM      8  C   UNL     1      -0.172  10.119  18.531  0.00  0.00    +0.000 A 
ATOM      9  C   UNL     1       0.843   9.907  19.470  0.00  0.00    +0.000 A 
ATOM     10  C   UNL     1       0.646  10.396  20.753  0.00  0.00    +0.000 A 
ATOM     11  C   UNL     1      -0.546  11.092  21.044  0.00  0.00    +0.000 A 
ATOM     12  C   UNL     1      -1.589  11.312  20.101  0.00  0.00    +0.000 A 
ATOM     13  C   UNL     1      -2.800  12.027  20.398  0.00  0.00    +0.000 A 
ATOM     14  C   UNL     1      -3.067  12.560  21.679  0.00  0.00    +0.000 A 
ATOM     15  N   UNL     1      -4.211  13.214  21.935  0.00  0.00    +0.000 N 
ATOM     16  C   UNL     1      -5.142  13.418  21.005  0.00  0.00    +0.000 A 
ATOM     17  C   UNL     1      -4.958  12.941  19.726  0.00  0.00    +0.000 A 
ATOM     18  C   UNL     1      -3.787  12.222  19.388  0.00  0.00    +0.000 A 
ATOM     19  C   UNL     1      -6.317  14.155  21.529  0.00  0.00    +0.000 C 
ATOM     20  C   UNL     1      -5.953  14.392  22.992  0.00  0.00    +0.000 C 
ATOM     21  C   UNL     1      -4.582  13.764  23.236  0.00  0.00    +0.000 C 
ENDROOT
BRANCH   1  23
ATOM     22  C   UNL     1      -3.937   9.972  13.321  0.00  0.00    +0.000 C 
ATOM     23  O   UNL     1      -3.025   9.740  14.393  0.00  0.00    +0.000 OA
ENDBRANCH   1  23
BRANCH   9  24
ATOM     24  O   UNL     1       2.003   9.247  19.172  0.00  0.00    +0.000 OA
ATOM     25  C   UNL     1       2.217   8.800  17.837  0.00  0.00    +0.000 C 
ENDBRANCH   9  24
BRANCH  10  26
ATOM     26  O   UNL     1       1.477  10.309  21.841  0.00  0.00    +0.000 OA
ATOM     27  C   UNL     1       1.382   9.160  22.676  0.00  0.00    +0.000 C 
ENDBRANCH  10  26
TORSDOF 3
ENDMDL
MODEL 6
REMARK VINA RESULT:      -6.3      9.869     11.178
REMARK  Name = 
REMARK  6 active torsions:
REMARK  status: ('A' for Active; 'I' for Inactive)
REMARK    1  A    between atoms: C_1  and  O_2
REMARK    2  A    between atoms: O_2  and  C_3
REMARK    3  A    between atoms: C_11  and  O_12
REMARK    4  A    between atoms: O_12  and  C_13
REMARK    5  A    between atoms: C_14  and  O_15
REMARK    6  A    between atoms: O_15  and  C_16
REMARK                            x       y       z     vdW  Elec       q    Type
REMARK                         _______ _______ _______ _____ _____    ______ ____
ROOT
ATOM      1  C   UNL     1       9.324  10.215  18.953  0.00  0.00    +0.000 A 
ATOM      2  C   UNL     1      10.060  10.903  18.016  0.00  0.00    +0.000 A 
ATOM      3  C   UNL     1      10.460  12.212  18.290  0.00  0.00    +0.000 A 
ATOM      4  C   UNL     1      10.149  12.883  19.508  0.00  0.00    +0.000 A 
ATOM      5  C   UNL     1       9.445  12.152  20.497  0.00  0.00    +0.000 A 
ATOM      6  C   UNL     1       9.036  10.832  20.166  0.00  0.00    +0.000 A 
ATOM      7  C   UNL     1       9.148  12.746  21.764  0.00  0.00    +0.000 A 
ATOM      8  C   UNL     1       8.523  12.009  22.811  0.00  0.00    +0.000 A 
ATOM      9  C   UNL     1       8.164  12.542  24.053  0.00  0.00    +0.000 A 
ATOM     10  C   UNL     1       8.456  13.878  24.289  0.00  0.00    +0.000 A 
ATOM     11  C   UNL     1       9.107  14.623  23.285  0.00  0.00    +0.000 A 
ATOM     12  C   UNL     1       9.474  14.097  22.015  0.00  0.00    +0.000 A 
ATOM     13  C   UNL     1      10.145  14.857  20.995  0.00  0.00    +0.000 A 
ATOM     14  C   UNL     1      10.480  16.219  21.167  0.00  0.00    +0.000 A 
ATOM     15  N   UNL     1      11.095  16.911  20.195  0.00  0.00    +0.000 N 
ATOM     16  C   UNL     1      11.443  16.360  19.035  0.00  0.00    +0.000 A 
ATOM     17  C   UNL     1      11.164  15.034  18.788  0.00  0.00    +0.000 A 
ATOM     18  C   UNL     1      10.496  14.246  19.756  0.00  0.00    +0.000 A 
ATOM     19  C   UNL     1      12.100  17.325  18.121  0.00  0.00    +0.000 C 
ATOM     20  C   UNL     1      12.111  18.618  18.932  0.00  0.00    +0.000 C 
ATOM     21  C   UNL     1      11.444  18.327  20.275  0.00  0.00    +0.000 C 
ENDROOT
BRANCH   1  23
ATOM     22  C   UNL     1       7.939   8.806  17.668  0.00  0.00    +0.000 C 
ATOM     23  O   UNL     1       8.792   8.967  18.801  0.00  0.00    +0.000 OA
ENDBRANCH   1  23
BRANCH   9  24
ATOM     24  O   UNL     1       7.549  11.805  25.027  0.00  0.00    +0.000 OA
ATOM     25  C   UNL     1       6.127  11.741  25.045  0.00  0.00    +0.000 C 
ENDBRANCH   9  24
BRANCH  10  26
ATOM     26  O   UNL     1       8.199  14.626  25.411  0.00  0.00    +0.000 OA
ATOM     27  C   UNL     1       7.315  15.736  25.297  0.00  0.00    +0.000 C 
ENDBRANCH  10  26
TORSDOF 3
ENDMDL
MODEL 7
REMARK VINA RESULT:      -6.2      2.666      6.953
REMARK  Name = 
REMARK  6 active torsions:
REMARK  status: ('A' for Active; 'I' for Inactive)
REMARK    1  A    between atoms: C_1  and  O_2
REMARK    2  A    between atoms: O_2  and  C_3
REMARK    3  A    between atoms: C_11  and  O_12
REMARK    4  A    between atoms: O_12  and  C_13
REMARK    5  A    between atoms: C_14  and  O_15
REMARK    6  A    between atoms: O_15  and  C_16
REMARK                            x       y       z     vdW  Elec       q    Type
REMARK                         _______ _______ _______ _____ _____    ______ ____
ROOT
ATOM      1  C   UNL     1       2.519   3.442  21.438  0.00  0.00    +0.000 A 
ATOM      2  C   UNL     1       3.453   2.656  20.803  0.00  0.00    +0.000 A 
ATOM      3  C   UNL     1       4.079   3.138  19.652  0.00  0.00    +0.000 A 
ATOM      4  C   UNL     1       3.804   4.420  19.093  0.00  0.00    +0.000 A 
ATOM      5  C   UNL     1       2.888   5.252  19.783  0.00  0.00    +0.000 A 
ATOM      6  C   UNL     1       2.257   4.713  20.937  0.00  0.00    +0.000 A 
ATOM      7  C   UNL     1       2.609   6.573  19.310  0.00  0.00    +0.000 A 
ATOM      8  C   UNL     1       1.764   7.465  20.029  0.00  0.00    +0.000 A 
ATOM      9  C   UNL     1       1.413   8.749  19.598  0.00  0.00    +0.000 A 
ATOM     10  C   UNL     1       1.942   9.190  18.393  0.00  0.00    +0.000 A 
ATOM     11  C   UNL     1       2.810   8.342  17.676  0.00  0.00    +0.000 A 
ATOM     12  C   UNL     1       3.173   7.032  18.099  0.00  0.00    +0.000 A 
ATOM     13  C   UNL     1       4.063   6.172  17.369  0.00  0.00    +0.000 A 
ATOM     14  C   UNL     1       4.645   6.556  16.140  0.00  0.00    +0.000 A 
ATOM     15  N   UNL     1       5.465   5.730  15.471  0.00  0.00    +0.000 N 
ATOM     16  C   UNL     1       5.794   4.524  15.929  0.00  0.00    +0.000 A 
ATOM     17  C   UNL     1       5.281   4.074  17.125  0.00  0.00    +0.000 A 
ATOM     18  C   UNL     1       4.391   4.880  17.875  0.00  0.00    +0.000 A 
ATOM     19  C   UNL     1       6.705   3.797  15.011  0.00  0.00    +0.000 C 
ATOM     20  C   UNL     1       6.902   4.784  13.864  0.00  0.00    +0.000 C 
ATOM     21  C   UNL     1       6.079   6.032  14.181  0.00  0.00    +0.000 C 
ENDROOT
BRANCH   1  23
ATOM     22  C   UNL     1       0.915   1.955  22.316  0.00  0.00    +0.000 C 
ATOM     23  O   UNL     1       1.766   3.083  22.519  0.00  0.00    +0.000 OA
ENDBRANCH   1  23
BRANCH   9  24
ATOM     24  O   UNL     1       0.584   9.571  20.310  0.00  0.00    +0.000 OA
ATOM     25  C   UNL     1       0.723   9.627  21.726  0.00  0.00    +0.000 C 
ENDBRANCH   9  24
BRANCH  10  26
ATOM     26  O   UNL     1       1.743  10.391  17.758  0.00  0.00    +0.000 OA
ATOM     27  C   UNL     1       2.294  11.566  18.344  0.00  0.00    +0.000 C 
ENDBRANCH  10  26
TORSDOF 3
ENDMDL
MODEL 8
REMARK VINA RESULT:      -6.1      9.275     10.950
REMARK  Name = 
REMARK  6 active torsions:
REMARK  status: ('A' for Active; 'I' for Inactive)
REMARK    1  A    between atoms: C_1  and  O_2
REMARK    2  A    between atoms: O_2  and  C_3
REMARK    3  A    between atoms: C_11  and  O_12
REMARK    4  A    between atoms: O_12  and  C_13
REMARK    5  A    between atoms: C_14  and  O_15
REMARK    6  A    between atoms: O_15  and  C_16
REMARK                            x       y       z     vdW  Elec       q    Type
REMARK                         _______ _______ _______ _____ _____    ______ ____
ROOT
ATOM      1  C   UNL     1      -2.975  10.904  16.452  0.00  0.00    +0.000 A 
ATOM      2  C   UNL     1      -4.322  10.731  16.677  0.00  0.00    +0.000 A 
ATOM      3  C   UNL     1      -4.881  11.204  17.866  0.00  0.00    +0.000 A 
ATOM      4  C   UNL     1      -4.124  11.868  18.873  0.00  0.00    +0.000 A 
ATOM      5  C   UNL     1      -2.750  12.100  18.613  0.00  0.00    +0.000 A 
ATOM      6  C   UNL     1      -2.218  11.582  17.402  0.00  0.00    +0.000 A 
ATOM      7  C   UNL     1      -1.943  12.812  19.556  0.00  0.00    +0.000 A 
ATOM      8  C   UNL     1      -0.584  13.139  19.286  0.00  0.00    +0.000 A 
ATOM      9  C   UNL     1       0.271  13.790  20.182  0.00  0.00    +0.000 A 
ATOM     10  C   UNL     1      -0.249  14.158  21.415  0.00  0.00    +0.000 A 
ATOM     11  C   UNL     1      -1.602  13.879  21.698  0.00  0.00    +0.000 A 
ATOM     12  C   UNL     1      -2.483  13.214  20.798  0.00  0.00    +0.000 A 
ATOM     13  C   UNL     1      -3.863  12.937  21.086  0.00  0.00    +0.000 A 
ATOM     14  C   UNL     1      -4.463  13.289  22.316  0.00  0.00    +0.000 A 
ATOM     15  N   UNL     1      -5.752  13.009  22.567  0.00  0.00    +0.000 N 
ATOM     16  C   UNL     1      -6.539  12.410  21.676  0.00  0.00    +0.000 A 
ATOM     17  C   UNL     1      -6.039  12.042  20.447  0.00  0.00    +0.000 A 
ATOM     18  C   UNL     1      -4.683  12.284  20.120  0.00  0.00    +0.000 A 
ATOM     19  C   UNL     1      -7.916  12.200  22.185  0.00  0.00    +0.000 C 
ATOM     20  C   UNL     1      -7.860  12.792  23.591  0.00  0.00    +0.000 C 
ATOM     21  C   UNL     1      -6.439  13.304  23.821  0.00  0.00    +0.000 C 
ENDROOT
BRANCH   1  23
ATOM     22  C   UNL     1      -3.063  10.007  14.275  0.00  0.00    +0.000 C 
ATOM     23  O   UNL     1      -2.271  10.430  15.384  0.00  0.00    +0.000 OA
ENDBRANCH   1  23
BRANCH   9  24
ATOM     24  O   UNL     1       1.576  14.072  19.890  0.00  0.00    +0.000 OA
ATOM     25  C   UNL     1       2.602  13.453  20.661  0.00  0.00    +0.000 C 
ENDBRANCH   9  24
BRANCH  10  26
ATOM     26  O   UNL     1       0.382  14.791  22.456  0.00  0.00    +0.000 OA
ATOM     27  C   UNL     1      -0.418  15.385  23.473  0.00  0.00    +0.000 C 
ENDBRANCH  10  26
TORSDOF 3
ENDMDL
MODEL 9
REMARK VINA RESULT:      -6.0      8.603     10.837
REMARK  Name = 
REMARK  6 active torsions:
REMARK  status: ('A' for Active; 'I' for Inactive)
REMARK    1  A    between atoms: C_1  and  O_2
REMARK    2  A    between atoms: O_2  and  C_3
REMARK    3  A    between atoms: C_11  and  O_12
REMARK    4  A    between atoms: O_12  and  C_13
REMARK    5  A    between atoms: C_14  and  O_15
REMARK    6  A    between atoms: O_15  and  C_16
REMARK                            x       y       z     vdW  Elec       q    Type
REMARK                         _______ _______ _______ _____ _____    ______ ____
ROOT
ATOM      1  C   UNL     1      -3.863  10.621  16.935  0.00  0.00    +0.000 A 
ATOM      2  C   UNL     1      -5.129  11.026  17.293  0.00  0.00    +0.000 A 
ATOM      3  C   UNL     1      -5.290  11.858  18.402  0.00  0.00    +0.000 A 
ATOM      4  C   UNL     1      -4.201  12.321  19.194  0.00  0.00    +0.000 A 
ATOM      5  C   UNL     1      -2.894  11.954  18.789  0.00  0.00    +0.000 A 
ATOM      6  C   UNL     1      -2.776  11.088  17.668  0.00  0.00    +0.000 A 
ATOM      7  C   UNL     1      -1.750  12.431  19.505  0.00  0.00    +0.000 A 
ATOM      8  C   UNL     1      -0.423  12.154  19.070  0.00  0.00    +0.000 A 
ATOM      9  C   UNL     1       0.735  12.549  19.749  0.00  0.00    +0.000 A 
ATOM     10  C   UNL     1       0.577  13.279  20.920  0.00  0.00    +0.000 A 
ATOM     11  C   UNL     1      -0.725  13.598  21.356  0.00  0.00    +0.000 A 
ATOM     12  C   UNL     1      -1.912  13.200  20.679  0.00  0.00    +0.000 A 
ATOM     13  C   UNL     1      -3.238  13.532  21.122  0.00  0.00    +0.000 A 
ATOM     14  C   UNL     1      -3.476  14.278  22.299  0.00  0.00    +0.000 A 
ATOM     15  N   UNL     1      -4.725  14.566  22.699  0.00  0.00    +0.000 N 
ATOM     16  C   UNL     1      -5.800  14.192  22.010  0.00  0.00    +0.000 A 
ATOM     17  C   UNL     1      -5.659  13.472  20.844  0.00  0.00    +0.000 A 
ATOM     18  C   UNL     1      -4.374  13.110  20.372  0.00  0.00    +0.000 A 
ATOM     19  C   UNL     1      -7.065  14.619  22.655  0.00  0.00    +0.000 C 
ATOM     20  C   UNL     1      -6.587  15.352  23.905  0.00  0.00    +0.000 C 
ATOM     21  C   UNL     1      -5.060  15.297  23.918  0.00  0.00    +0.000 C 
ENDROOT
BRANCH   1  23
ATOM     22  C   UNL     1      -3.147  10.357  14.705  0.00  0.00    +0.000 C 
ATOM     23  O   UNL     1      -3.550   9.750  15.932  0.00  0.00    +0.000 OA
ENDBRANCH   1  23
BRANCH   9  24
ATOM     24  O   UNL     1       1.993  12.250  19.308  0.00  0.00    +0.000 OA
ATOM     25  C   UNL     1       2.582  13.069  18.303  0.00  0.00    +0.000 C 
ENDBRANCH   9  24
BRANCH  10  26
ATOM     26  O   UNL     1       1.544  13.768  21.762  0.00  0.00    +0.000 OA
ATOM     27  C   UNL     1       1.884  15.147  21.675  0.00  0.00    +0.000 C 
ENDBRANCH  10  26
TORSDOF 3
ENDMDL
