MODEL 1
REMARK VINA RESULT:     -10.2      0.000      0.000
REMARK  Name = 
REMARK  6 active torsions:
REMARK  status: ('A' for Active; 'I' for Inactive)
REMARK    1  A    between atoms: C_1  and  O_2
REMARK    2  A    between atoms: O_2  and  C_3
REMARK    3  A    between atoms: N_11  and  C_12
REMARK    4  A    between atoms: C_12  and  C_13
REMARK    5  A    between atoms: C_13  and  C_14
REMARK    6  A    between atoms: C_15  and  C_16
REMARK                            x       y       z     vdW  Elec       q    Type
REMARK                         _______ _______ _______ _____ _____    ______ ____
ROOT
ATOM      1  C   UNL     1       2.708   3.984  19.966  0.00  0.00    +0.000 C 
ATOM      2  N   UNL     1       1.967   3.388  18.881  0.00  0.00    +0.000 N 
ATOM      3  C   UNL     1       0.848   2.726  19.317  0.00  0.00    +0.000 C 
ATOM      4  O   UNL     1       0.040   2.151  18.609  0.00  0.00    +0.000 OA
ATOM      5  N   UNL     1       0.835   2.749  20.671  0.00  0.00    +0.000 N 
ATOM      6  C   UNL     1       2.013   3.266  21.138  0.00  0.00    +0.000 C 
ATOM      7  O   UNL     1       2.387   3.218  22.301  0.00  0.00    +0.000 OA
ATOM      8  H   UNL     1       2.338   3.217  17.950  0.00  0.00    +0.000 HD
ATOM      9  H   UNL     1       0.180   2.218  21.219  0.00  0.00    +0.000 HD
ENDROOT
BRANCH   1  10
ATOM     10  C   UNL     1       2.254   5.435  20.014  0.00  0.00    +0.000 C 
ATOM     11  C   UNL     1       1.865   6.678  20.056  0.00  0.00    +0.000 C 
BRANCH  11  12
ATOM     12  C   UNL     1       1.444   8.048  20.079  0.00  0.00    +0.000 A 
ATOM     13  C   UNL     1       1.706   8.871  18.979  0.00  0.00    +0.000 A 
ATOM     14  C   UNL     1       1.295  10.211  18.959  0.00  0.00    +0.000 A 
ATOM     15  C   UNL     1       0.611  10.682  20.084  0.00  0.00    +0.000 A 
ATOM     16  N   UNL     1       0.076  11.908  20.378  0.00  0.00    +0.000 N 
ATOM     17  N   UNL     1      -0.508  11.981  21.585  0.00  0.00    +0.000 NA
ATOM     18  C   UNL     1      -0.342  10.762  22.091  0.00  0.00    +0.000 A 
ATOM     19  N   UNL     1      -0.772  10.420  23.311  0.00  0.00    +0.000 N 
ATOM     20  C   UNL     1       0.340   9.894  21.197  0.00  0.00    +0.000 A 
ATOM     21  C   UNL     1       0.762   8.548  21.198  0.00  0.00    +0.000 A 
ATOM     22  H   UNL     1       0.077  12.738  19.798  0.00  0.00    +0.000 HD
ATOM     23  H   UNL     1      -1.353  11.077  23.817  0.00  0.00    +0.000 HD
ATOM     24  H   UNL     1      -0.790   9.466  23.642  0.00  0.00    +0.000 HD
ENDBRANCH  11  12
ENDBRANCH   1  10
BRANCH   1  25
ATOM     25  C   UNL     1       4.231   3.847  19.939  0.00  0.00    +0.000 C 
BRANCH  25  34
ATOM     26  C   UNL     1       7.288   5.088  14.889  0.00  0.00    +0.000 A 
ATOM     27  C   UNL     1       6.255   4.364  14.249  0.00  0.00    +0.000 A 
ATOM     28  C   UNL     1       5.199   3.789  14.979  0.00  0.00    +0.000 A 
ATOM     29  C   UNL     1       5.199   3.943  16.352  0.00  0.00    +0.000 A 
ATOM     30  C   UNL     1       6.243   4.639  16.958  0.00  0.00    +0.000 A 
ATOM     31  C   UNL     1       7.278   5.225  16.272  0.00  0.00    +0.000 A 
ATOM     32  C   UNL     1       6.030   4.649  18.404  0.00  0.00    +0.000 C 
ATOM     33  O   UNL     1       6.775   5.156  19.217  0.00  0.00    +0.000 OA
ATOM     34  N   UNL     1       4.837   3.996  18.623  0.00  0.00    +0.000 N 
ATOM     35  C   UNL     1       4.227   3.492  17.396  0.00  0.00    +0.000 C 
BRANCH  26  37
ATOM     36  C   UNL     1       8.018   5.444  12.666  0.00  0.00    +0.000 C 
ATOM     37  O   UNL     1       8.244   5.621  14.065  0.00  0.00    +0.000 OA
ENDBRANCH  26  37
ENDBRANCH  25  34
ENDBRANCH   1  25
TORSDOF 5
ENDMDL
MODEL 2
REMARK VINA RESULT:     -10.1      0.708      1.606
REMARK  Name = 
REMARK  6 active torsions:
REMARK  status: ('A' for Active; 'I' for Inactive)
REMARK    1  A    between atoms: C_1  and  O_2
REMARK    2  A    between atoms: O_2  and  C_3
REMARK    3  A    between atoms: N_11  and  C_12
REMARK    4  A    between atoms: C_12  and  C_13
REMARK    5  A    between atoms: C_13  and  C_14
REMARK    6  A    between atoms: C_15  and  C_16
REMARK                            x       y       z     vdW  Elec       q    Type
REMARK                         _______ _______ _______ _____ _____    ______ ____
ROOT
ATOM      1  C   UNL     1       2.648   4.103  20.110  0.00  0.00    +0.000 C 
ATOM      2  N   UNL     1       1.937   3.579  18.969  0.00  0.00    +0.000 N 
ATOM      3  C   UNL     1       0.846   2.833  19.334  0.00  0.00    +0.000 C 
ATOM      4  O   UNL     1       0.066   2.293  18.570  0.00  0.00    +0.000 OA
ATOM      5  N   UNL     1       0.828   2.729  20.683  0.00  0.00    +0.000 N 
ATOM      6  C   UNL     1       1.981   3.250  21.206  0.00  0.00    +0.000 C 
ATOM      7  O   UNL     1       2.353   3.110  22.361  0.00  0.00    +0.000 OA
ATOM      8  H   UNL     1       2.317   3.512  18.028  0.00  0.00    +0.000 HD
ATOM      9  H   UNL     1       0.194   2.122  21.175  0.00  0.00    +0.000 HD
ENDROOT
BRANCH   1  10
ATOM     10  C   UNL     1       2.131   5.522  20.289  0.00  0.00    +0.000 C 
ATOM     11  C   UNL     1       1.689   6.739  20.444  0.00  0.00    +0.000 C 
BRANCH  11  12
ATOM     12  C   UNL     1       1.217   8.083  20.596  0.00  0.00    +0.000 A 
ATOM     13  C   UNL     1       0.449   8.426  21.712  0.00  0.00    +0.000 A 
ATOM     14  C   UNL     1      -0.015   9.735  21.903  0.00  0.00    +0.000 A 
ATOM     15  C   UNL     1       0.326  10.678  20.928  0.00  0.00    +0.000 A 
ATOM     16  N   UNL     1       0.048  12.013  20.815  0.00  0.00    +0.000 N 
ATOM     17  N   UNL     1       0.551  12.591  19.712  0.00  0.00    +0.000 NA
ATOM     18  C   UNL     1       1.172  11.594  19.087  0.00  0.00    +0.000 A 
ATOM     19  N   UNL     1       1.797  11.752  17.915  0.00  0.00    +0.000 N 
ATOM     20  C   UNL     1       1.081  10.369  19.801  0.00  0.00    +0.000 A 
ATOM     21  C   UNL     1       1.540   9.046  19.628  0.00  0.00    +0.000 A 
ATOM     22  H   UNL     1      -0.480  12.591  21.457  0.00  0.00    +0.000 HD
ATOM     23  H   UNL     1       1.907  12.691  17.551  0.00  0.00    +0.000 HD
ATOM     24  H   UNL     1       2.397  11.048  17.510  0.00  0.00    +0.000 HD
ENDBRANCH  11  12
ENDBRANCH   1  10
BRANCH   1  25
ATOM     25  C   UNL     1       4.176   4.034  20.082  0.00  0.00    +0.000 C 
BRANCH  25  34
ATOM     26  C   UNL     1       7.208   5.083  14.973  0.00  0.00    +0.000 A 
ATOM     27  C   UNL     1       6.144   4.382  14.359  0.00  0.00    +0.000 A 
ATOM     28  C   UNL     1       5.079   3.855  15.112  0.00  0.00    +0.000 A 
ATOM     29  C   UNL     1       5.101   4.034  16.482  0.00  0.00    +0.000 A 
ATOM     30  C   UNL     1       6.175   4.705  17.063  0.00  0.00    +0.000 A 
ATOM     31  C   UNL     1       7.220   5.244  16.353  0.00  0.00    +0.000 A 
ATOM     32  C   UNL     1       5.981   4.748  18.510  0.00  0.00    +0.000 C 
ATOM     33  O   UNL     1       6.752   5.245  19.305  0.00  0.00    +0.000 OA
ATOM     34  N   UNL     1       4.770   4.139  18.756  0.00  0.00    +0.000 N 
ATOM     35  C   UNL     1       4.128   3.634  17.545  0.00  0.00    +0.000 C 
BRANCH  26  37
ATOM     36  C   UNL     1       7.938   5.343  12.737  0.00  0.00    +0.000 C 
ATOM     37  O   UNL     1       8.171   5.568  14.128  0.00  0.00    +0.000 OA
ENDBRANCH  26  37
ENDBRANCH  25  34
ENDBRANCH   1  25
TORSDOF 5
ENDMDL
MODEL 3
REMARK VINA RESULT:     -10.0      0.998      1.427
REMARK  Name = 
REMARK  6 active torsions:
REMARK  status: ('A' for Active; 'I' for Inactive)
REMARK    1  A    between atoms: C_1  and  O_2
REMARK    2  A    between atoms: O_2  and  C_3
REMARK    3  A    between atoms: N_11  and  C_12
REMARK    4  A    between atoms: C_12  and  C_13
REMARK    5  A    between atoms: C_13  and  C_14
REMARK    6  A    between atoms: C_15  and  C_16
REMARK                            x       y       z     vdW  Elec       q    Type
REMARK                         _______ _______ _______ _____ _____    ______ ____
ROOT
ATOM      1  C   UNL     1       2.681   3.946  20.011  0.00  0.00    +0.000 C 
ATOM      2  N   UNL     1       1.938   3.352  18.925  0.00  0.00    +0.000 N 
ATOM      3  C   UNL     1       0.808   2.709  19.360  0.00  0.00    +0.000 C 
ATOM      4  O   UNL     1      -0.003   2.140  18.652  0.00  0.00    +0.000 OA
ATOM      5  N   UNL     1       0.788   2.741  20.714  0.00  0.00    +0.000 N 
ATOM      6  C   UNL     1       1.970   3.246  21.184  0.00  0.00    +0.000 C 
ATOM      7  O   UNL     1       2.337   3.202  22.349  0.00  0.00    +0.000 OA
ATOM      8  H   UNL     1       2.312   3.169  17.998  0.00  0.00    +0.000 HD
ATOM      9  H   UNL     1       0.122   2.224  21.261  0.00  0.00    +0.000 HD
ENDROOT
BRANCH   1  10
ATOM     10  C   UNL     1       2.247   5.403  20.046  0.00  0.00    +0.000 C 
ATOM     11  C   UNL     1       1.874   6.652  20.076  0.00  0.00    +0.000 C 
BRANCH  11  12
ATOM     12  C   UNL     1       1.479   8.029  20.090  0.00  0.00    +0.000 A 
ATOM     13  C   UNL     1       1.782   8.848  18.998  0.00  0.00    +0.000 A 
ATOM     14  C   UNL     1       1.397  10.195  18.969  0.00  0.00    +0.000 A 
ATOM     15  C   UNL     1       0.696  10.679  20.078  0.00  0.00    +0.000 A 
ATOM     16  N   UNL     1       0.179  11.915  20.361  0.00  0.00    +0.000 N 
ATOM     17  N   UNL     1      -0.432  11.998  21.555  0.00  0.00    +0.000 NA
ATOM     18  C   UNL     1      -0.300  10.776  22.063  0.00  0.00    +0.000 A 
ATOM     19  N   UNL     1      -0.764  10.442  23.273  0.00  0.00    +0.000 N 
ATOM     20  C   UNL     1       0.385   9.896  21.184  0.00  0.00    +0.000 A 
ATOM     21  C   UNL     1       0.782   8.542  21.194  0.00  0.00    +0.000 A 
ATOM     22  H   UNL     1       0.208  12.745  19.782  0.00  0.00    +0.000 HD
ATOM     23  H   UNL     1      -1.345  11.110  23.766  0.00  0.00    +0.000 HD
ATOM     24  H   UNL     1      -0.808   9.488  23.603  0.00  0.00    +0.000 HD
ENDBRANCH  11  12
ENDBRANCH   1  10
BRANCH   1  25
ATOM     25  C   UNL     1       4.203   3.788  19.994  0.00  0.00    +0.000 C 
BRANCH  25  34
ATOM     26  C   UNL     1       6.645   4.600  14.539  0.00  0.00    +0.000 A 
ATOM     27  C   UNL     1       7.232   5.747  15.123  0.00  0.00    +0.000 A 
ATOM     28  C   UNL     1       6.991   6.093  16.465  0.00  0.00    +0.000 A 
ATOM     29  C   UNL     1       6.153   5.282  17.205  0.00  0.00    +0.000 A 
ATOM     30  C   UNL     1       5.567   4.174  16.596  0.00  0.00    +0.000 A 
ATOM     31  C   UNL     1       5.795   3.802  15.294  0.00  0.00    +0.000 A 
ATOM     32  C   UNL     1       4.715   3.493  17.568  0.00  0.00    +0.000 C 
ATOM     33  O   UNL     1       4.048   2.504  17.342  0.00  0.00    +0.000 OA
ATOM     34  N   UNL     1       4.847   4.187  18.750  0.00  0.00    +0.000 N 
ATOM     35  C   UNL     1       5.722   5.350  18.636  0.00  0.00    +0.000 C 
BRANCH  26  37
ATOM     36  C   UNL     1       6.159   3.403  12.556  0.00  0.00    +0.000 C 
ATOM     37  O   UNL     1       6.978   4.358  13.232  0.00  0.00    +0.000 OA
ENDBRANCH  26  37
ENDBRANCH  25  34
ENDBRANCH   1  25
TORSDOF 5
ENDMDL
MODEL 4
REMARK VINA RESULT:     -10.0      1.229      2.141
REMARK  Name = 
REMARK  6 active torsions:
REMARK  status: ('A' for Active; 'I' for Inactive)
REMARK    1  A    between atoms: C_1  and  O_2
REMARK    2  A    between atoms: O_2  and  C_3
REMARK    3  A    between atoms: N_11  and  C_12
REMARK    4  A    between atoms: C_12  and  C_13
REMARK    5  A    between atoms: C_13  and  C_14
REMARK    6  A    between atoms: C_15  and  C_16
REMARK                            x       y       z     vdW  Elec       q    Type
REMARK                         _______ _______ _______ _____ _____    ______ ____
ROOT
ATOM      1  C   UNL     1       2.602   4.111  20.125  0.00  0.00    +0.000 C 
ATOM      2  N   UNL     1       1.883   3.620  18.974  0.00  0.00    +0.000 N 
ATOM      3  C   UNL     1       0.784   2.880  19.324  0.00  0.00    +0.000 C 
ATOM      4  O   UNL     1      -0.004   2.366  18.550  0.00  0.00    +0.000 OA
ATOM      5  N   UNL     1       0.765   2.748  20.672  0.00  0.00    +0.000 N 
ATOM      6  C   UNL     1       1.925   3.244  21.203  0.00  0.00    +0.000 C 
ATOM      7  O   UNL     1       2.296   3.075  22.355  0.00  0.00    +0.000 OA
ATOM      8  H   UNL     1       2.263   3.567  18.032  0.00  0.00    +0.000 HD
ATOM      9  H   UNL     1       0.124   2.140  21.151  0.00  0.00    +0.000 HD
ENDROOT
BRANCH   1  10
ATOM     10  C   UNL     1       2.104   5.532  20.334  0.00  0.00    +0.000 C 
ATOM     11  C   UNL     1       1.677   6.751  20.514  0.00  0.00    +0.000 C 
BRANCH  11  12
ATOM     12  C   UNL     1       1.193   8.088  20.692  0.00  0.00    +0.000 A 
ATOM     13  C   UNL     1       0.477   8.418  21.846  0.00  0.00    +0.000 A 
ATOM     14  C   UNL     1       0.003   9.719  22.062  0.00  0.00    +0.000 A 
ATOM     15  C   UNL     1       0.280  10.668  21.073  0.00  0.00    +0.000 A 
ATOM     16  N   UNL     1      -0.024  12.000  20.977  0.00  0.00    +0.000 N 
ATOM     17  N   UNL     1       0.414  12.587  19.851  0.00  0.00    +0.000 NA
ATOM     18  C   UNL     1       1.017  11.600  19.194  0.00  0.00    +0.000 A 
ATOM     19  N   UNL     1       1.580  11.769  17.992  0.00  0.00    +0.000 N 
ATOM     20  C   UNL     1       0.982  10.373  19.910  0.00  0.00    +0.000 A 
ATOM     21  C   UNL     1       1.451   9.057  19.711  0.00  0.00    +0.000 A 
ATOM     22  H   UNL     1      -0.528  12.568  21.646  0.00  0.00    +0.000 HD
ATOM     23  H   UNL     1       1.657  12.710  17.626  0.00  0.00    +0.000 HD
ATOM     24  H   UNL     1       2.170  11.074  17.557  0.00  0.00    +0.000 HD
ENDBRANCH  11  12
ENDBRANCH   1  10
BRANCH   1  25
ATOM     25  C   UNL     1       4.129   4.023  20.094  0.00  0.00    +0.000 C 
BRANCH  25  34
ATOM     26  C   UNL     1       6.462   4.424  14.545  0.00  0.00    +0.000 A 
ATOM     27  C   UNL     1       6.981   5.658  15.002  0.00  0.00    +0.000 A 
ATOM     28  C   UNL     1       6.732   6.124  16.305  0.00  0.00    +0.000 A 
ATOM     29  C   UNL     1       5.953   5.343  17.137  0.00  0.00    +0.000 A 
ATOM     30  C   UNL     1       5.433   4.144  16.652  0.00  0.00    +0.000 A 
ATOM     31  C   UNL     1       5.671   3.656  15.391  0.00  0.00    +0.000 A 
ATOM     32  C   UNL     1       4.635   3.515  17.702  0.00  0.00    +0.000 C 
ATOM     33  O   UNL     1       4.030   2.469  17.588  0.00  0.00    +0.000 OA
ATOM     34  N   UNL     1       4.735   4.332  18.806  0.00  0.00    +0.000 N 
ATOM     35  C   UNL     1       5.534   5.530  18.560  0.00  0.00    +0.000 C 
BRANCH  26  37
ATOM     36  C   UNL     1       5.803   3.333  12.551  0.00  0.00    +0.000 C 
ATOM     37  O   UNL     1       6.797   4.071  13.265  0.00  0.00    +0.000 OA
ENDBRANCH  26  37
ENDBRANCH  25  34
ENDBRANCH   1  25
TORSDOF 5
ENDMDL
MODEL 5
REMARK VINA RESULT:      -9.4      2.267      2.964
REMARK  Name = 
REMARK  6 active torsions:
REMARK  status: ('A' for Active; 'I' for Inactive)
REMARK    1  A    between atoms: C_1  and  O_2
REMARK    2  A    between atoms: O_2  and  C_3
REMARK    3  A    between atoms: N_11  and  C_12
REMARK    4  A    between atoms: C_12  and  C_13
REMARK    5  A    between atoms: C_13  and  C_14
REMARK    6  A    between atoms: C_15  and  C_16
REMARK                            x       y       z     vdW  Elec       q    Type
REMARK                         _______ _______ _______ _____ _____    ______ ____
ROOT
ATOM      1  C   UNL     1       3.021   3.863  18.174  0.00  0.00    +0.000 C 
ATOM      2  N   UNL     1       1.832   3.250  17.633  0.00  0.00    +0.000 N 
ATOM      3  C   UNL     1       1.176   2.482  18.559  0.00  0.00    +0.000 C 
ATOM      4  O   UNL     1       0.139   1.870  18.369  0.00  0.00    +0.000 OA
ATOM      5  N   UNL     1       1.914   2.449  19.693  0.00  0.00    +0.000 N 
ATOM      6  C   UNL     1       3.128   3.043  19.475  0.00  0.00    +0.000 C 
ATOM      7  O   UNL     1       4.085   2.980  20.231  0.00  0.00    +0.000 OA
ATOM      8  H   UNL     1       1.632   3.148  16.641  0.00  0.00    +0.000 HD
ATOM      9  H   UNL     1       1.698   1.844  20.467  0.00  0.00    +0.000 HD
ENDROOT
BRANCH   1  10
ATOM     10  C   UNL     1       2.602   5.267  18.579  0.00  0.00    +0.000 C 
ATOM     11  C   UNL     1       2.244   6.472  18.926  0.00  0.00    +0.000 C 
BRANCH  11  12
ATOM     12  C   UNL     1       1.827   7.792  19.296  0.00  0.00    +0.000 A 
ATOM     13  C   UNL     1       1.863   8.821  18.350  0.00  0.00    +0.000 A 
ATOM     14  C   UNL     1       1.448  10.120  18.671  0.00  0.00    +0.000 A 
ATOM     15  C   UNL     1       0.996  10.338  19.976  0.00  0.00    +0.000 A 
ATOM     16  N   UNL     1       0.523  11.460  20.601  0.00  0.00    +0.000 N 
ATOM     17  N   UNL     1       0.187  11.276  21.889  0.00  0.00    +0.000 NA
ATOM     18  C   UNL     1       0.458   9.991  22.105  0.00  0.00    +0.000 A 
ATOM     19  N   UNL     1       0.278   9.404  23.294  0.00  0.00    +0.000 N 
ATOM     20  C   UNL     1       0.955   9.340  20.944  0.00  0.00    +0.000 A 
ATOM     21  C   UNL     1       1.377   8.039  20.601  0.00  0.00    +0.000 A 
ATOM     22  H   UNL     1       0.404  12.385  20.206  0.00  0.00    +0.000 HD
ATOM     23  H   UNL     1      -0.196   9.926  24.021  0.00  0.00    +0.000 HD
ATOM     24  H   UNL     1       0.332   8.405  23.429  0.00  0.00    +0.000 HD
ENDBRANCH  11  12
ENDBRANCH   1  10
BRANCH   1  25
ATOM     25  C   UNL     1       4.279   3.853  17.304  0.00  0.00    +0.000 C 
BRANCH  25  34
ATOM     26  C   UNL     1       8.077   8.505  17.878  0.00  0.00    +0.000 A 
ATOM     27  C   UNL     1       8.661   7.724  18.902  0.00  0.00    +0.000 A 
ATOM     28  C   UNL     1       8.151   6.459  19.245  0.00  0.00    +0.000 A 
ATOM     29  C   UNL     1       7.048   5.994  18.553  0.00  0.00    +0.000 A 
ATOM     30  C   UNL     1       6.477   6.796  17.567  0.00  0.00    +0.000 A 
ATOM     31  C   UNL     1       6.962   8.027  17.200  0.00  0.00    +0.000 A 
ATOM     32  C   UNL     1       5.323   6.102  17.000  0.00  0.00    +0.000 C 
ATOM     33  O   UNL     1       4.597   6.543  16.134  0.00  0.00    +0.000 OA
ATOM     34  N   UNL     1       5.260   4.879  17.632  0.00  0.00    +0.000 N 
ATOM     35  C   UNL     1       6.295   4.706  18.648  0.00  0.00    +0.000 C 
BRANCH  26  37
ATOM     36  C   UNL     1       9.201  10.389  18.766  0.00  0.00    +0.000 C 
ATOM     37  O   UNL     1       8.682   9.708  17.623  0.00  0.00    +0.000 OA
ENDBRANCH  26  37
ENDBRANCH  25  34
ENDBRANCH   1  25
TORSDOF 5
ENDMDL
MODEL 6
REMARK VINA RESULT:      -9.1      4.141     10.539
REMARK  Name = 
REMARK  6 active torsions:
REMARK  status: ('A' for Active; 'I' for Inactive)
REMARK    1  A    between atoms: C_1  and  O_2
REMARK    2  A    between atoms: O_2  and  C_3
REMARK    3  A    between atoms: N_11  and  C_12
REMARK    4  A    between atoms: C_12  and  C_13
REMARK    5  A    between atoms: C_13  and  C_14
REMARK    6  A    between atoms: C_15  and  C_16
REMARK                            x       y       z     vdW  Elec       q    Type
REMARK                         _______ _______ _______ _____ _____    ______ ____
ROOT
ATOM      1  C   UNL     1       0.621  10.157  19.980  0.00  0.00    +0.000 C 
ATOM      2  N   UNL     1      -0.770   9.863  19.726  0.00  0.00    +0.000 N 
ATOM      3  C   UNL     1      -1.143  10.179  18.446  0.00  0.00    +0.000 C 
ATOM      4  O   UNL     1      -2.251  10.015  17.966  0.00  0.00    +0.000 OA
ATOM      5  N   UNL     1      -0.097  10.778  17.828  0.00  0.00    +0.000 N 
ATOM      6  C   UNL     1       0.903  11.015  18.731  0.00  0.00    +0.000 C 
ATOM      7  O   UNL     1       1.875  11.728  18.530  0.00  0.00    +0.000 OA
ATOM      8  H   UNL     1      -1.471   9.711  20.446  0.00  0.00    +0.000 HD
ATOM      9  H   UNL     1      -0.174  11.212  16.924  0.00  0.00    +0.000 HD
ENDROOT
BRANCH   1  10
ATOM     10  C   UNL     1       1.354   8.841  19.777  0.00  0.00    +0.000 C 
ATOM     11  C   UNL     1       1.984   7.713  19.603  0.00  0.00    +0.000 C 
BRANCH  11  12
ATOM     12  C   UNL     1       2.683   6.473  19.435  0.00  0.00    +0.000 A 
ATOM     13  C   UNL     1       3.625   6.342  18.411  0.00  0.00    +0.000 A 
ATOM     14  C   UNL     1       4.339   5.150  18.227  0.00  0.00    +0.000 A 
ATOM     15  C   UNL     1       4.067   4.103  19.114  0.00  0.00    +0.000 A 
ATOM     16  N   UNL     1       4.581   2.839  19.217  0.00  0.00    +0.000 N 
ATOM     17  N   UNL     1       4.053   2.106  20.211  0.00  0.00    +0.000 NA
ATOM     18  C   UNL     1       3.164   2.924  20.768  0.00  0.00    +0.000 A 
ATOM     19  N   UNL     1       2.395   2.561  21.801  0.00  0.00    +0.000 N 
ATOM     20  C   UNL     1       3.131   4.197  20.138  0.00  0.00    +0.000 A 
ATOM     21  C   UNL     1       2.423   5.405  20.307  0.00  0.00    +0.000 A 
ATOM     22  H   UNL     1       5.294   2.412  18.638  0.00  0.00    +0.000 HD
ATOM     23  H   UNL     1       2.584   1.675  22.253  0.00  0.00    +0.000 HD
ATOM     24  H   UNL     1       1.833   3.215  22.327  0.00  0.00    +0.000 HD
ENDBRANCH  11  12
ENDBRANCH   1  10
BRANCH   1  25
ATOM     25  C   UNL     1       0.969  10.825  21.311  0.00  0.00    +0.000 C 
BRANCH  25  34
ATOM     26  C   UNL     1      -3.849  13.356  23.913  0.00  0.00    +0.000 A 
ATOM     27  C   UNL     1      -3.364  14.550  23.332  0.00  0.00    +0.000 A 
ATOM     28  C   UNL     1      -2.183  14.570  22.569  0.00  0.00    +0.000 A 
ATOM     29  C   UNL     1      -1.496  13.383  22.404  0.00  0.00    +0.000 A 
ATOM     30  C   UNL     1      -1.982  12.226  23.010  0.00  0.00    +0.000 A 
ATOM     31  C   UNL     1      -3.140  12.172  23.746  0.00  0.00    +0.000 A 
ATOM     32  C   UNL     1      -1.080  11.117  22.709  0.00  0.00    +0.000 C 
ATOM     33  O   UNL     1      -1.213   9.979  23.108  0.00  0.00    +0.000 OA
ATOM     34  N   UNL     1      -0.097  11.630  21.891  0.00  0.00    +0.000 N 
ATOM     35  C   UNL     1      -0.250  13.061  21.642  0.00  0.00    +0.000 C 
BRANCH  26  37
ATOM     36  C   UNL     1      -6.189  13.003  23.929  0.00  0.00    +0.000 C 
ATOM     37  O   UNL     1      -5.023  13.464  24.612  0.00  0.00    +0.000 OA
ENDBRANCH  26  37
ENDBRANCH  25  34
ENDBRANCH   1  25
TORSDOF 5
ENDMDL
MODEL 7
REMARK VINA RESULT:      -9.1      2.363      3.373
REMARK  Name = 
REMARK  6 active torsions:
REMARK  status: ('A' for Active; 'I' for Inactive)
REMARK    1  A    between atoms: C_1  and  O_2
REMARK    2  A    between atoms: O_2  and  C_3
REMARK    3  A    between atoms: N_11  and  C_12
REMARK    4  A    between atoms: C_12  and  C_13
REMARK    5  A    between atoms: C_13  and  C_14
REMARK    6  A    between atoms: C_15  and  C_16
REMARK                            x       y       z     vdW  Elec       q    Type
REMARK                         _______ _______ _______ _____ _____    ______ ____
ROOT
ATOM      1  C   UNL     1       3.018   3.844  18.128  0.00  0.00    +0.000 C 
ATOM      2  N   UNL     1       1.805   3.246  17.623  0.00  0.00    +0.000 N 
ATOM      3  C   UNL     1       1.246   2.370  18.517  0.00  0.00    +0.000 C 
ATOM      4  O   UNL     1       0.213   1.745  18.350  0.00  0.00    +0.000 OA
ATOM      5  N   UNL     1       2.075   2.253  19.581  0.00  0.00    +0.000 N 
ATOM      6  C   UNL     1       3.250   2.907  19.329  0.00  0.00    +0.000 C 
ATOM      7  O   UNL     1       4.268   2.803  19.998  0.00  0.00    +0.000 OA
ATOM      8  H   UNL     1       1.528   3.234  16.645  0.00  0.00    +0.000 HD
ATOM      9  H   UNL     1       1.938   1.570  20.306  0.00  0.00    +0.000 HD
ENDROOT
BRANCH   1  10
ATOM     10  C   UNL     1       2.596   5.188  18.701  0.00  0.00    +0.000 C 
ATOM     11  C   UNL     1       2.235   6.340  19.192  0.00  0.00    +0.000 C 
BRANCH  11  12
ATOM     12  C   UNL     1       1.817   7.597  19.740  0.00  0.00    +0.000 A 
ATOM     13  C   UNL     1       1.336   7.654  21.052  0.00  0.00    +0.000 A 
ATOM     14  C   UNL     1       0.934   8.868  21.627  0.00  0.00    +0.000 A 
ATOM     15  C   UNL     1       1.039  10.013  20.831  0.00  0.00    +0.000 A 
ATOM     16  N   UNL     1       0.747  11.327  21.082  0.00  0.00    +0.000 N 
ATOM     17  N   UNL     1       0.977  12.152  20.047  0.00  0.00    +0.000 NA
ATOM     18  C   UNL     1       1.429  11.343  19.092  0.00  0.00    +0.000 A 
ATOM     19  N   UNL     1       1.760  11.778  17.872  0.00  0.00    +0.000 N 
ATOM     20  C   UNL     1       1.506   9.991  19.521  0.00  0.00    +0.000 A 
ATOM     21  C   UNL     1       1.905   8.759  18.961  0.00  0.00    +0.000 A 
ATOM     22  H   UNL     1       0.387  11.727  21.940  0.00  0.00    +0.000 HD
ATOM     23  H   UNL     1       1.785  12.778  17.709  0.00  0.00    +0.000 HD
ATOM     24  H   UNL     1       2.246  11.207  17.195  0.00  0.00    +0.000 HD
ENDBRANCH  11  12
ENDBRANCH   1  10
BRANCH   1  25
ATOM     25  C   UNL     1       4.200   3.961  17.165  0.00  0.00    +0.000 C 
BRANCH  25  34
ATOM     26  C   UNL     1       8.001   8.582  17.933  0.00  0.00    +0.000 A 
ATOM     27  C   UNL     1       8.632   7.729  18.869  0.00  0.00    +0.000 A 
ATOM     28  C   UNL     1       8.141   6.438  19.135  0.00  0.00    +0.000 A 
ATOM     29  C   UNL     1       7.012   6.020  18.457  0.00  0.00    +0.000 A 
ATOM     30  C   UNL     1       6.396   6.891  17.560  0.00  0.00    +0.000 A 
ATOM     31  C   UNL     1       6.860   8.149  17.268  0.00  0.00    +0.000 A 
ATOM     32  C   UNL     1       5.222   6.233  16.991  0.00  0.00    +0.000 C 
ATOM     33  O   UNL     1       4.458   6.734  16.192  0.00  0.00    +0.000 OA
ATOM     34  N   UNL     1       5.190   4.966  17.529  0.00  0.00    +0.000 N 
ATOM     35  C   UNL     1       6.268   4.723  18.484  0.00  0.00    +0.000 C 
BRANCH  26  37
ATOM     36  C   UNL     1       9.284  10.332  18.877  0.00  0.00    +0.000 C 
ATOM     37  O   UNL     1       8.591   9.805  17.745  0.00  0.00    +0.000 OA
ENDBRANCH  26  37
ENDBRANCH  25  34
ENDBRANCH   1  25
TORSDOF 5
ENDMDL
MODEL 8
REMARK VINA RESULT:      -8.9      4.084     10.573
REMARK  Name = 
REMARK  6 active torsions:
REMARK  status: ('A' for Active; 'I' for Inactive)
REMARK    1  A    between atoms: C_1  and  O_2
REMARK    2  A    between atoms: O_2  and  C_3
REMARK    3  A    between atoms: N_11  and  C_12
REMARK    4  A    between atoms: C_12  and  C_13
REMARK    5  A    between atoms: C_13  and  C_14
REMARK    6  A    between atoms: C_15  and  C_16
REMARK                            x       y       z     vdW  Elec       q    Type
REMARK                         _______ _______ _______ _____ _____    ______ ____
ROOT
ATOM      1  C   UNL     1       0.675  10.041  19.999  0.00  0.00    +0.000 C 
ATOM      2  N   UNL     1      -0.736   9.922  19.717  0.00  0.00    +0.000 N 
ATOM      3  C   UNL     1      -1.014  10.073  18.383  0.00  0.00    +0.000 C 
ATOM      4  O   UNL     1      -2.118  10.001  17.873  0.00  0.00    +0.000 OA
ATOM      5  N   UNL     1       0.133  10.395  17.738  0.00  0.00    +0.000 N 
ATOM      6  C   UNL     1       1.129  10.625  18.648  0.00  0.00    +0.000 C 
ATOM      7  O   UNL     1       2.208  11.139  18.391  0.00  0.00    +0.000 OA
ATOM      8  H   UNL     1      -1.475  10.001  20.410  0.00  0.00    +0.000 HD
ATOM      9  H   UNL     1       0.154  10.679  16.774  0.00  0.00    +0.000 HD
ENDROOT
BRANCH   1  10
ATOM     10  C   UNL     1       1.196   8.613  20.051  0.00  0.00    +0.000 C 
ATOM     11  C   UNL     1       1.643   7.389  20.096  0.00  0.00    +0.000 C 
BRANCH  11  12
ATOM     12  C   UNL     1       2.150   6.051  20.164  0.00  0.00    +0.000 A 
ATOM     13  C   UNL     1       1.398   5.057  20.797  0.00  0.00    +0.000 A 
ATOM     14  C   UNL     1       1.853   3.733  20.868  0.00  0.00    +0.000 A 
ATOM     15  C   UNL     1       3.089   3.455  20.276  0.00  0.00    +0.000 A 
ATOM     16  N   UNL     1       3.804   2.292  20.162  0.00  0.00    +0.000 N 
ATOM     17  N   UNL     1       4.976   2.425  19.520  0.00  0.00    +0.000 NA
ATOM     18  C   UNL     1       5.024   3.718  19.212  0.00  0.00    +0.000 A 
ATOM     19  N   UNL     1       6.060   4.272  18.572  0.00  0.00    +0.000 N 
ATOM     20  C   UNL     1       3.867   4.420  19.645  0.00  0.00    +0.000 A 
ATOM     21  C   UNL     1       3.390   5.746  19.584  0.00  0.00    +0.000 A 
ATOM     22  H   UNL     1       3.548   1.373  20.501  0.00  0.00    +0.000 HD
ATOM     23  H   UNL     1       6.777   3.662  18.200  0.00  0.00    +0.000 HD
ATOM     24  H   UNL     1       6.040   5.211  18.200  0.00  0.00    +0.000 HD
ENDBRANCH  11  12
ENDBRANCH   1  10
BRANCH   1  25
ATOM     25  C   UNL     1       1.083  10.860  21.224  0.00  0.00    +0.000 C 
BRANCH  25  34
ATOM     26  C   UNL     1      -3.669  13.659  23.669  0.00  0.00    +0.000 A 
ATOM     27  C   UNL     1      -3.140  14.811  23.043  0.00  0.00    +0.000 A 
ATOM     28  C   UNL     1      -1.952  14.759  22.291  0.00  0.00    +0.000 A 
ATOM     29  C   UNL     1      -1.304  13.543  22.183  0.00  0.00    +0.000 A 
ATOM     30  C   UNL     1      -1.834  12.430  22.833  0.00  0.00    +0.000 A 
ATOM     31  C   UNL     1      -2.999  12.446  23.560  0.00  0.00    +0.000 A 
ATOM     32  C   UNL     1      -0.967  11.280  22.588  0.00  0.00    +0.000 C 
ATOM     33  O   UNL     1      -1.141  10.165  23.034  0.00  0.00    +0.000 OA
ATOM     34  N   UNL     1       0.039  11.725  21.759  0.00  0.00    +0.000 N 
ATOM     35  C   UNL     1      -0.064  13.148  21.447  0.00  0.00    +0.000 C 
BRANCH  26  37
ATOM     36  C   UNL     1      -5.916  12.976  23.962  0.00  0.00    +0.000 C 
ATOM     37  O   UNL     1      -4.844  13.835  24.352  0.00  0.00    +0.000 OA
ENDBRANCH  26  37
ENDBRANCH  25  34
ENDBRANCH   1  25
TORSDOF 5
ENDMDL
MODEL 9
REMARK VINA RESULT:      -8.9      4.594     10.659
REMARK  Name = 
REMARK  6 active torsions:
REMARK  status: ('A' for Active; 'I' for Inactive)
REMARK    1  A    between atoms: C_1  and  O_2
REMARK    2  A    between atoms: O_2  and  C_3
REMARK    3  A    between atoms: N_11  and  C_12
REMARK    4  A    between atoms: C_12  and  C_13
REMARK    5  A    between atoms: C_13  and  C_14
REMARK    6  A    between atoms: C_15  and  C_16
REMARK                            x       y       z     vdW  Elec       q    Type
REMARK                         _______ _______ _______ _____ _____    ______ ____
ROOT
ATOM      1  C   UNL     1       0.510  10.222  20.072  0.00  0.00    +0.000 C 
ATOM      2  N   UNL     1      -0.861   9.945  19.719  0.00  0.00    +0.000 N 
ATOM      3  C   UNL     1      -1.151  10.314  18.431  0.00  0.00    +0.000 C 
ATOM      4  O   UNL     1      -2.228  10.176  17.876  0.00  0.00    +0.000 OA
ATOM      5  N   UNL     1      -0.067  10.933  17.906  0.00  0.00    +0.000 N 
ATOM      6  C   UNL     1       0.874  11.128  18.880  0.00  0.00    +0.000 C 
ATOM      7  O   UNL     1       1.858  11.843  18.770  0.00  0.00    +0.000 OA
ATOM      8  H   UNL     1      -1.608   9.768  20.386  0.00  0.00    +0.000 HD
ATOM      9  H   UNL     1      -0.085  11.404  17.018  0.00  0.00    +0.000 HD
ENDROOT
BRANCH   1  10
ATOM     10  C   UNL     1       1.252   8.911  19.863  0.00  0.00    +0.000 C 
ATOM     11  C   UNL     1       1.888   7.787  19.684  0.00  0.00    +0.000 C 
BRANCH  11  12
ATOM     12  C   UNL     1       2.581   6.552  19.463  0.00  0.00    +0.000 A 
ATOM     13  C   UNL     1       3.482   6.444  18.399  0.00  0.00    +0.000 A 
ATOM     14  C   UNL     1       4.189   5.258  18.163  0.00  0.00    +0.000 A 
ATOM     15  C   UNL     1       3.955   4.193  19.039  0.00  0.00    +0.000 A 
ATOM     16  N   UNL     1       4.474   2.927  19.094  0.00  0.00    +0.000 N 
ATOM     17  N   UNL     1       3.987   2.173  20.094  0.00  0.00    +0.000 NA
ATOM     18  C   UNL     1       3.120   2.978  20.703  0.00  0.00    +0.000 A 
ATOM     19  N   UNL     1       2.393   2.592  21.758  0.00  0.00    +0.000 N 
ATOM     20  C   UNL     1       3.060   4.263  20.101  0.00  0.00    +0.000 A 
ATOM     21  C   UNL     1       2.357   5.466  20.322  0.00  0.00    +0.000 A 
ATOM     22  H   UNL     1       5.164   2.514  18.479  0.00  0.00    +0.000 HD
ATOM     23  H   UNL     1       2.601   1.697  22.184  0.00  0.00    +0.000 HD
ATOM     24  H   UNL     1       1.852   3.234  22.319  0.00  0.00    +0.000 HD
ENDBRANCH  11  12
ENDBRANCH   1  10
BRANCH   1  25
ATOM     25  C   UNL     1       0.775  10.833  21.449  0.00  0.00    +0.000 C 
BRANCH  25  34
ATOM     26  C   UNL     1      -3.155  14.999  23.342  0.00  0.00    +0.000 A 
ATOM     27  C   UNL     1      -3.794  13.909  23.978  0.00  0.00    +0.000 A 
ATOM     28  C   UNL     1      -3.296  12.599  23.869  0.00  0.00    +0.000 A 
ATOM     29  C   UNL     1      -2.159  12.397  23.110  0.00  0.00    +0.000 A 
ATOM     30  C   UNL     1      -1.566  13.485  22.472  0.00  0.00    +0.000 A 
ATOM     31  C   UNL     1      -2.019  14.777  22.573  0.00  0.00    +0.000 A 
ATOM     32  C   UNL     1      -0.402  13.018  21.722  0.00  0.00    +0.000 C 
ATOM     33  O   UNL     1       0.318  13.719  21.040  0.00  0.00    +0.000 OA
ATOM     34  N   UNL     1      -0.301  11.667  21.967  0.00  0.00    +0.000 N 
ATOM     35  C   UNL     1      -1.371  11.159  22.822  0.00  0.00    +0.000 C 
BRANCH  26  37
ATOM     36  C   UNL     1      -4.488  16.360  24.746  0.00  0.00    +0.000 C 
ATOM     37  O   UNL     1      -3.724  16.229  23.546  0.00  0.00    +0.000 OA
ENDBRANCH  26  37
ENDBRANCH  25  34
ENDBRANCH   1  25
TORSDOF 5
ENDMDL
