MODEL 1
REMARK VINA RESULT:      -7.9      0.000      0.000
REMARK  Name = 
REMARK  10 active torsions:
REMARK  status: ('A' for Active; 'I' for Inactive)
REMARK    1  A    between atoms: C_1  and  O_2
REMARK    2  A    between atoms: O_2  and  C_3
REMARK    3  A    between atoms: C_7  and  N_8
REMARK    4  A    between atoms: C_11  and  C_12
REMARK    5  A    between atoms: C_12  and  C_13
REMARK    6  A    between atoms: N_15  and  C_16
REMARK    7  A    between atoms: N_22  and  C_23
REMARK    8  A    between atoms: C_23  and  C_24
REMARK    9  A    between atoms: C_24  and  C_25
REMARK   10  A    between atoms: C_29  and  C_30
REMARK                            x       y       z     vdW  Elec       q    Type
REMARK                         _______ _______ _______ _____ _____    ______ ____
ROOT
ATOM      1  N   UNL     1       2.137   7.785  19.026  0.00  0.00    +0.000 N 
ATOM      2  C   UNL     1       1.689   7.752  20.325  0.00  0.00    +0.000 C 
ATOM      3  O   UNL     1       1.730   6.837  21.142  0.00  0.00    +0.000 OA
ATOM      4  C   UNL     1       1.117   9.117  20.682  0.00  0.00    +0.000 C 
ATOM      5  N   UNL     1       1.232   9.808  19.418  0.00  0.00    +0.000 N 
ATOM      6  C   UNL     1       1.827   9.006  18.453  0.00  0.00    +0.000 C 
ATOM      7  O   UNL     1       1.994   9.373  17.296  0.00  0.00    +0.000 OA
ENDROOT
BRANCH   1  12
ATOM      8  C   UNL     1       2.655   4.403  17.510  0.00  0.00    +0.000 A 
ATOM      9  C   UNL     1       3.977   4.495  17.085  0.00  0.00    +0.000 A 
ATOM     10  C   UNL     1       4.682   5.687  17.244  0.00  0.00    +0.000 A 
ATOM     11  C   UNL     1       4.073   6.789  17.852  0.00  0.00    +0.000 A 
ATOM     12  C   UNL     1       2.760   6.707  18.334  0.00  0.00    +0.000 A 
ATOM     13  C   UNL     1       2.061   5.507  18.124  0.00  0.00    +0.000 A 
BRANCH   8  15
ATOM     14  C   UNL     1       2.563   2.082  17.998  0.00  0.00    +0.000 C 
ATOM     15  O   UNL     1       2.040   3.201  17.284  0.00  0.00    +0.000 OA
ENDBRANCH   8  15
ENDBRANCH   1  12
BRANCH   4  16
ATOM     16  C   UNL     1      -0.252   8.993  21.335  0.00  0.00    +0.000 C 
BRANCH  16  17
ATOM     17  C   UNL     1      -0.488  10.052  22.382  0.00  0.00    +0.000 C 
ATOM     18  O   UNL     1       0.144  10.008  23.431  0.00  0.00    +0.000 OA
ATOM     19  N   UNL     1      -1.433  11.000  22.028  0.00  0.00    +0.000 N 
ATOM     20  H   UNL     1      -2.020  10.814  21.221  0.00  0.00    +0.000 HD
BRANCH  19  21
ATOM     21  C   UNL     1      -1.757  12.146  22.785  0.00  0.00    +0.000 A 
ATOM     22  C   UNL     1      -0.868  13.215  22.958  0.00  0.00    +0.000 A 
ATOM     23  C   UNL     1      -1.222  14.316  23.732  0.00  0.00    +0.000 A 
ATOM     24  C   UNL     1      -2.470  14.369  24.344  0.00  0.00    +0.000 A 
ATOM     25  C   UNL     1      -3.374  13.325  24.158  0.00  0.00    +0.000 A 
ATOM     26  C   UNL     1      -3.025  12.222  23.373  0.00  0.00    +0.000 A 
ENDBRANCH  19  21
ENDBRANCH  16  17
ENDBRANCH   4  16
BRANCH   5  27
ATOM     27  C   UNL     1       0.721  11.148  19.133  0.00  0.00    +0.000 C 
BRANCH  27  28
ATOM     28  C   UNL     1       1.300  12.214  20.059  0.00  0.00    +0.000 C 
BRANCH  28  29
ATOM     29  C   UNL     1       1.551  13.523  19.375  0.00  0.00    +0.000 A 
ATOM     30  S   UNL     1       3.093  13.837  18.701  0.00  0.00    +0.000 S 
ATOM     31  C   UNL     1       2.646  15.423  18.264  0.00  0.00    +0.000 A 
ATOM     32  C   UNL     1       1.340  15.700  18.597  0.00  0.00    +0.000 A 
ATOM     33  C   UNL     1       0.686  14.598  19.238  0.00  0.00    +0.000 A 
ATOM     34  C   UNL     1      -0.731  14.626  19.714  0.00  0.00    +0.000 C 
ENDBRANCH  28  29
ENDBRANCH  27  28
ENDBRANCH   5  27
TORSDOF 8
ENDMDL
MODEL 2
REMARK VINA RESULT:      -7.8      0.793      1.389
REMARK  Name = 
REMARK  10 active torsions:
REMARK  status: ('A' for Active; 'I' for Inactive)
REMARK    1  A    between atoms: C_1  and  O_2
REMARK    2  A    between atoms: O_2  and  C_3
REMARK    3  A    between atoms: C_7  and  N_8
REMARK    4  A    between atoms: C_11  and  C_12
REMARK    5  A    between atoms: C_12  and  C_13
REMARK    6  A    between atoms: N_15  and  C_16
REMARK    7  A    between atoms: N_22  and  C_23
REMARK    8  A    between atoms: C_23  and  C_24
REMARK    9  A    between atoms: C_24  and  C_25
REMARK   10  A    between atoms: C_29  and  C_30
REMARK                            x       y       z     vdW  Elec       q    Type
REMARK                         _______ _______ _______ _____ _____    ______ ____
ROOT
ATOM      1  N   UNL     1       2.152   7.729  19.041  0.00  0.00    +0.000 N 
ATOM      2  C   UNL     1       1.723   7.672  20.345  0.00  0.00    +0.000 C 
ATOM      3  O   UNL     1       1.781   6.745  21.146  0.00  0.00    +0.000 OA
ATOM      4  C   UNL     1       1.146   9.028  20.731  0.00  0.00    +0.000 C 
ATOM      5  N   UNL     1       1.238   9.739  19.477  0.00  0.00    +0.000 N 
ATOM      6  C   UNL     1       1.826   8.956  18.491  0.00  0.00    +0.000 C 
ATOM      7  O   UNL     1       1.974   9.342  17.338  0.00  0.00    +0.000 OA
ENDROOT
BRANCH   1  12
ATOM      8  C   UNL     1       2.682   4.369  17.481  0.00  0.00    +0.000 A 
ATOM      9  C   UNL     1       3.991   4.484  17.024  0.00  0.00    +0.000 A 
ATOM     10  C   UNL     1       4.682   5.685  17.176  0.00  0.00    +0.000 A 
ATOM     11  C   UNL     1       4.072   6.773  17.809  0.00  0.00    +0.000 A 
ATOM     12  C   UNL     1       2.774   6.667  18.323  0.00  0.00    +0.000 A 
ATOM     13  C   UNL     1       2.087   5.458  18.120  0.00  0.00    +0.000 A 
BRANCH   8  15
ATOM     14  C   UNL     1       2.545   2.069  18.054  0.00  0.00    +0.000 C 
ATOM     15  O   UNL     1       2.079   3.159  17.260  0.00  0.00    +0.000 OA
ENDBRANCH   8  15
ENDBRANCH   1  12
BRANCH   4  16
ATOM     16  C   UNL     1      -0.213   8.883  21.400  0.00  0.00    +0.000 C 
BRANCH  16  17
ATOM     17  C   UNL     1      -0.468   9.961  22.423  0.00  0.00    +0.000 C 
ATOM     18  O   UNL     1       0.138   9.932  23.488  0.00  0.00    +0.000 OA
ATOM     19  N   UNL     1      -1.399  10.907  22.031  0.00  0.00    +0.000 N 
ATOM     20  H   UNL     1      -1.968  10.710  21.214  0.00  0.00    +0.000 HD
BRANCH  19  21
ATOM     21  C   UNL     1      -1.735  12.069  22.760  0.00  0.00    +0.000 A 
ATOM     22  C   UNL     1      -2.952  12.211  23.438  0.00  0.00    +0.000 A 
ATOM     23  C   UNL     1      -3.250  13.383  24.127  0.00  0.00    +0.000 A 
ATOM     24  C   UNL     1      -2.336  14.432  24.152  0.00  0.00    +0.000 A 
ATOM     25  C   UNL     1      -1.111  14.293  23.503  0.00  0.00    +0.000 A 
ATOM     26  C   UNL     1      -0.805  13.113  22.819  0.00  0.00    +0.000 A 
ENDBRANCH  19  21
ENDBRANCH  16  17
ENDBRANCH   4  16
BRANCH   5  27
ATOM     27  C   UNL     1       0.714  11.079  19.220  0.00  0.00    +0.000 C 
BRANCH  27  28
ATOM     28  C   UNL     1       1.422  12.160  20.032  0.00  0.00    +0.000 C 
BRANCH  28  29
ATOM     29  C   UNL     1       1.070  13.552  19.602  0.00  0.00    +0.000 A 
ATOM     30  S   UNL     1      -0.542  13.913  19.158  0.00  0.00    +0.000 S 
ATOM     31  C   UNL     1      -0.129  15.508  18.721  0.00  0.00    +0.000 A 
ATOM     32  C   UNL     1       1.204  15.772  18.936  0.00  0.00    +0.000 A 
ATOM     33  C   UNL     1       1.915  14.643  19.458  0.00  0.00    +0.000 A 
ATOM     34  C   UNL     1       3.376  14.645  19.776  0.00  0.00    +0.000 C 
ENDBRANCH  28  29
ENDBRANCH  27  28
ENDBRANCH   5  27
TORSDOF 8
ENDMDL
MODEL 3
REMARK VINA RESULT:      -7.8      0.886      1.264
REMARK  Name = 
REMARK  10 active torsions:
REMARK  status: ('A' for Active; 'I' for Inactive)
REMARK    1  A    between atoms: C_1  and  O_2
REMARK    2  A    between atoms: O_2  and  C_3
REMARK    3  A    between atoms: C_7  and  N_8
REMARK    4  A    between atoms: C_11  and  C_12
REMARK    5  A    between atoms: C_12  and  C_13
REMARK    6  A    between atoms: N_15  and  C_16
REMARK    7  A    between atoms: N_22  and  C_23
REMARK    8  A    between atoms: C_23  and  C_24
REMARK    9  A    between atoms: C_24  and  C_25
REMARK   10  A    between atoms: C_29  and  C_30
REMARK                            x       y       z     vdW  Elec       q    Type
REMARK                         _______ _______ _______ _____ _____    ______ ____
ROOT
ATOM      1  N   UNL     1       2.072   7.780  19.131  0.00  0.00    +0.000 N 
ATOM      2  C   UNL     1       1.617   7.715  20.426  0.00  0.00    +0.000 C 
ATOM      3  O   UNL     1       1.637   6.775  21.215  0.00  0.00    +0.000 OA
ATOM      4  C   UNL     1       1.069   9.079  20.823  0.00  0.00    +0.000 C 
ATOM      5  N   UNL     1       1.202   9.806  19.581  0.00  0.00    +0.000 N 
ATOM      6  C   UNL     1       1.787   9.023  18.594  0.00  0.00    +0.000 C 
ATOM      7  O   UNL     1       1.966   9.422  17.450  0.00  0.00    +0.000 OA
ENDROOT
BRANCH   1  12
ATOM      8  C   UNL     1       2.575   4.404  17.596  0.00  0.00    +0.000 A 
ATOM      9  C   UNL     1       3.871   4.520  17.101  0.00  0.00    +0.000 A 
ATOM     10  C   UNL     1       4.559   5.726  17.221  0.00  0.00    +0.000 A 
ATOM     11  C   UNL     1       3.962   6.818  17.858  0.00  0.00    +0.000 A 
ATOM     12  C   UNL     1       2.678   6.712  18.409  0.00  0.00    +0.000 A 
ATOM     13  C   UNL     1       1.993   5.498  18.239  0.00  0.00    +0.000 A 
BRANCH   8  15
ATOM     14  C   UNL     1       1.225   2.677  18.508  0.00  0.00    +0.000 C 
ATOM     15  O   UNL     1       1.972   3.189  17.405  0.00  0.00    +0.000 OA
ENDBRANCH   8  15
ENDBRANCH   1  12
BRANCH   4  16
ATOM     16  C   UNL     1      -0.305   8.961  21.465  0.00  0.00    +0.000 C 
BRANCH  16  17
ATOM     17  C   UNL     1      -0.552  10.031  22.499  0.00  0.00    +0.000 C 
ATOM     18  O   UNL     1       0.072   9.998  23.554  0.00  0.00    +0.000 OA
ATOM     19  N   UNL     1      -1.494  10.973  22.127  0.00  0.00    +0.000 N 
ATOM     20  H   UNL     1      -2.075  10.778  21.318  0.00  0.00    +0.000 HD
BRANCH  19  21
ATOM     21  C   UNL     1      -1.826  12.128  22.869  0.00  0.00    +0.000 A 
ATOM     22  C   UNL     1      -3.035  12.260  23.564  0.00  0.00    +0.000 A 
ATOM     23  C   UNL     1      -3.329  13.425  24.265  0.00  0.00    +0.000 A 
ATOM     24  C   UNL     1      -2.420  14.478  24.285  0.00  0.00    +0.000 A 
ATOM     25  C   UNL     1      -1.202  14.350  23.620  0.00  0.00    +0.000 A 
ATOM     26  C   UNL     1      -0.900  13.176  22.923  0.00  0.00    +0.000 A 
ENDBRANCH  19  21
ENDBRANCH  16  17
ENDBRANCH   4  16
BRANCH   5  27
ATOM     27  C   UNL     1       0.718  11.163  19.335  0.00  0.00    +0.000 C 
BRANCH  27  28
ATOM     28  C   UNL     1       1.256  12.178  20.339  0.00  0.00    +0.000 C 
BRANCH  28  29
ATOM     29  C   UNL     1       2.108  13.240  19.712  0.00  0.00    +0.000 A 
ATOM     30  S   UNL     1       2.645  13.045  18.099  0.00  0.00    +0.000 S 
ATOM     31  C   UNL     1       3.567  14.476  18.168  0.00  0.00    +0.000 A 
ATOM     32  C   UNL     1       3.447  15.108  19.385  0.00  0.00    +0.000 A 
ATOM     33  C   UNL     1       2.591  14.403  20.293  0.00  0.00    +0.000 A 
ATOM     34  C   UNL     1       2.290  14.858  21.685  0.00  0.00    +0.000 C 
ENDBRANCH  28  29
ENDBRANCH  27  28
ENDBRANCH   5  27
TORSDOF 8
ENDMDL
MODEL 4
REMARK VINA RESULT:      -7.7      1.289      2.051
REMARK  Name = 
REMARK  10 active torsions:
REMARK  status: ('A' for Active; 'I' for Inactive)
REMARK    1  A    between atoms: C_1  and  O_2
REMARK    2  A    between atoms: O_2  and  C_3
REMARK    3  A    between atoms: C_7  and  N_8
REMARK    4  A    between atoms: C_11  and  C_12
REMARK    5  A    between atoms: C_12  and  C_13
REMARK    6  A    between atoms: N_15  and  C_16
REMARK    7  A    between atoms: N_22  and  C_23
REMARK    8  A    between atoms: C_23  and  C_24
REMARK    9  A    between atoms: C_24  and  C_25
REMARK   10  A    between atoms: C_29  and  C_30
REMARK                            x       y       z     vdW  Elec       q    Type
REMARK                         _______ _______ _______ _____ _____    ______ ____
ROOT
ATOM      1  N   UNL     1       2.243   7.459  18.981  0.00  0.00    +0.000 N 
ATOM      2  C   UNL     1       1.833   7.531  20.291  0.00  0.00    +0.000 C 
ATOM      3  O   UNL     1       1.905   6.687  21.179  0.00  0.00    +0.000 OA
ATOM      4  C   UNL     1       1.260   8.918  20.551  0.00  0.00    +0.000 C 
ATOM      5  N   UNL     1       1.332   9.502  19.231  0.00  0.00    +0.000 N 
ATOM      6  C   UNL     1       1.906   8.626  18.318  0.00  0.00    +0.000 C 
ATOM      7  O   UNL     1       2.035   8.897  17.131  0.00  0.00    +0.000 OA
ENDROOT
BRANCH   1  12
ATOM      8  C   UNL     1       4.805   5.348  17.253  0.00  0.00    +0.000 A 
ATOM      9  C   UNL     1       4.083   4.182  17.019  0.00  0.00    +0.000 A 
ATOM     10  C   UNL     1       2.772   4.066  17.478  0.00  0.00    +0.000 A 
ATOM     11  C   UNL     1       2.168   5.129  18.157  0.00  0.00    +0.000 A 
ATOM     12  C   UNL     1       2.855   6.332  18.363  0.00  0.00    +0.000 A 
ATOM     13  C   UNL     1       4.188   6.405  17.924  0.00  0.00    +0.000 A 
BRANCH   8  15
ATOM     14  C   UNL     1       6.434   4.321  15.866  0.00  0.00    +0.000 C 
ATOM     15  O   UNL     1       6.093   5.355  16.788  0.00  0.00    +0.000 OA
ENDBRANCH   8  15
ENDBRANCH   1  12
BRANCH   4  16
ATOM     16  C   UNL     1      -0.088   8.839  21.252  0.00  0.00    +0.000 C 
BRANCH  16  17
ATOM     17  C   UNL     1      -0.294   9.968  22.231  0.00  0.00    +0.000 C 
ATOM     18  O   UNL     1       0.255   9.918  23.326  0.00  0.00    +0.000 OA
ATOM     19  N   UNL     1      -1.115  10.981  21.766  0.00  0.00    +0.000 N 
ATOM     20  H   UNL     1      -1.659  10.810  20.926  0.00  0.00    +0.000 HD
BRANCH  19  21
ATOM     21  C   UNL     1      -1.379  12.189  22.446  0.00  0.00    +0.000 A 
ATOM     22  C   UNL     1      -2.513  12.375  23.246  0.00  0.00    +0.000 A 
ATOM     23  C   UNL     1      -2.745  13.592  23.881  0.00  0.00    +0.000 A 
ATOM     24  C   UNL     1      -1.845  14.643  23.728  0.00  0.00    +0.000 A 
ATOM     25  C   UNL     1      -0.700  14.462  22.956  0.00  0.00    +0.000 A 
ATOM     26  C   UNL     1      -0.460  13.238  22.326  0.00  0.00    +0.000 A 
ENDBRANCH  19  21
ENDBRANCH  16  17
ENDBRANCH   4  16
BRANCH   5  27
ATOM     27  C   UNL     1       0.802  10.810  18.852  0.00  0.00    +0.000 C 
BRANCH  27  28
ATOM     28  C   UNL     1       1.856  11.913  18.889  0.00  0.00    +0.000 C 
BRANCH  28  29
ATOM     29  C   UNL     1       1.276  13.283  19.068  0.00  0.00    +0.000 A 
ATOM     30  S   UNL     1      -0.334  13.586  18.575  0.00  0.00    +0.000 S 
ATOM     31  C   UNL     1      -0.205  15.242  18.961  0.00  0.00    +0.000 A 
ATOM     32  C   UNL     1       1.029  15.554  19.482  0.00  0.00    +0.000 A 
ATOM     33  C   UNL     1       1.902  14.420  19.559  0.00  0.00    +0.000 A 
ATOM     34  C   UNL     1       3.303  14.473  20.077  0.00  0.00    +0.000 C 
ENDBRANCH  28  29
ENDBRANCH  27  28
ENDBRANCH   5  27
TORSDOF 8
ENDMDL
MODEL 5
REMARK VINA RESULT:      -7.6      4.551      7.739
REMARK  Name = 
REMARK  10 active torsions:
REMARK  status: ('A' for Active; 'I' for Inactive)
REMARK    1  A    between atoms: C_1  and  O_2
REMARK    2  A    between atoms: O_2  and  C_3
REMARK    3  A    between atoms: C_7  and  N_8
REMARK    4  A    between atoms: C_11  and  C_12
REMARK    5  A    between atoms: C_12  and  C_13
REMARK    6  A    between atoms: N_15  and  C_16
REMARK    7  A    between atoms: N_22  and  C_23
REMARK    8  A    between atoms: C_23  and  C_24
REMARK    9  A    between atoms: C_24  and  C_25
REMARK   10  A    between atoms: C_29  and  C_30
REMARK                            x       y       z     vdW  Elec       q    Type
REMARK                         _______ _______ _______ _____ _____    ______ ____
ROOT
ATOM      1  N   UNL     1       6.467   5.555  15.621  0.00  0.00    +0.000 N 
ATOM      2  C   UNL     1       7.166   5.179  16.743  0.00  0.00    +0.000 C 
ATOM      3  O   UNL     1       8.060   4.347  16.864  0.00  0.00    +0.000 OA
ATOM      4  C   UNL     1       6.689   6.017  17.922  0.00  0.00    +0.000 C 
ATOM      5  N   UNL     1       5.623   6.778  17.312  0.00  0.00    +0.000 N 
ATOM      6  C   UNL     1       5.502   6.488  15.959  0.00  0.00    +0.000 C 
ATOM      7  O   UNL     1       4.641   6.990  15.247  0.00  0.00    +0.000 OA
ENDROOT
BRANCH   1  12
ATOM      8  C   UNL     1       5.911   3.469  12.564  0.00  0.00    +0.000 A 
ATOM      9  C   UNL     1       7.008   3.827  11.787  0.00  0.00    +0.000 A 
ATOM     10  C   UNL     1       7.901   4.797  12.242  0.00  0.00    +0.000 A 
ATOM     11  C   UNL     1       7.712   5.398  13.490  0.00  0.00    +0.000 A 
ATOM     12  C   UNL     1       6.644   5.019  14.313  0.00  0.00    +0.000 A 
ATOM     13  C   UNL     1       5.738   4.069  13.813  0.00  0.00    +0.000 A 
BRANCH   8  15
ATOM     14  C   UNL     1       4.046   3.022  11.165  0.00  0.00    +0.000 C 
ATOM     15  O   UNL     1       5.078   2.529  12.019  0.00  0.00    +0.000 OA
ENDBRANCH   8  15
ENDBRANCH   1  12
BRANCH   4  16
ATOM     16  C   UNL     1       6.377   5.147  19.131  0.00  0.00    +0.000 C 
BRANCH  16  17
ATOM     17  C   UNL     1       5.141   4.307  18.932  0.00  0.00    +0.000 C 
ATOM     18  O   UNL     1       5.145   3.429  18.076  0.00  0.00    +0.000 OA
ATOM     19  N   UNL     1       4.092   4.631  19.774  0.00  0.00    +0.000 N 
ATOM     20  H   UNL     1       4.148   5.499  20.298  0.00  0.00    +0.000 HD
BRANCH  19  21
ATOM     21  C   UNL     1       2.870   3.929  19.858  0.00  0.00    +0.000 A 
ATOM     22  C   UNL     1       2.419   3.333  21.042  0.00  0.00    +0.000 A 
ATOM     23  C   UNL     1       1.218   2.630  21.074  0.00  0.00    +0.000 A 
ATOM     24  C   UNL     1       0.446   2.513  19.921  0.00  0.00    +0.000 A 
ATOM     25  C   UNL     1       0.871   3.123  18.743  0.00  0.00    +0.000 A 
ATOM     26  C   UNL     1       2.071   3.838  18.712  0.00  0.00    +0.000 A 
ENDBRANCH  19  21
ENDBRANCH  16  17
ENDBRANCH   4  16
BRANCH   5  27
ATOM     27  C   UNL     1       4.716   7.683  18.015  0.00  0.00    +0.000 C 
BRANCH  27  28
ATOM     28  C   UNL     1       3.259   7.235  17.948  0.00  0.00    +0.000 C 
BRANCH  28  29
ATOM     29  C   UNL     1       2.306   8.217  18.560  0.00  0.00    +0.000 A 
ATOM     30  S   UNL     1       1.962   9.678  17.738  0.00  0.00    +0.000 S 
ATOM     31  C   UNL     1       0.991  10.243  19.020  0.00  0.00    +0.000 A 
ATOM     32  C   UNL     1       0.906   9.326  20.043  0.00  0.00    +0.000 A 
ATOM     33  C   UNL     1       1.661   8.135  19.785  0.00  0.00    +0.000 A 
ATOM     34  C   UNL     1       1.753   6.980  20.728  0.00  0.00    +0.000 C 
ENDBRANCH  28  29
ENDBRANCH  27  28
ENDBRANCH   5  27
TORSDOF 8
ENDMDL
MODEL 6
REMARK VINA RESULT:      -7.6      1.265      1.837
REMARK  Name = 
REMARK  10 active torsions:
REMARK  status: ('A' for Active; 'I' for Inactive)
REMARK    1  A    between atoms: C_1  and  O_2
REMARK    2  A    between atoms: O_2  and  C_3
REMARK    3  A    between atoms: C_7  and  N_8
REMARK    4  A    between atoms: C_11  and  C_12
REMARK    5  A    between atoms: C_12  and  C_13
REMARK    6  A    between atoms: N_15  and  C_16
REMARK    7  A    between atoms: N_22  and  C_23
REMARK    8  A    between atoms: C_23  and  C_24
REMARK    9  A    between atoms: C_24  and  C_25
REMARK   10  A    between atoms: C_29  and  C_30
REMARK                            x       y       z     vdW  Elec       q    Type
REMARK                         _______ _______ _______ _____ _____    ______ ____
ROOT
ATOM      1  N   UNL     1       2.128   7.783  19.119  0.00  0.00    +0.000 N 
ATOM      2  C   UNL     1       1.674   7.743  20.416  0.00  0.00    +0.000 C 
ATOM      3  O   UNL     1       1.713   6.825  21.229  0.00  0.00    +0.000 OA
ATOM      4  C   UNL     1       1.095   9.105  20.775  0.00  0.00    +0.000 C 
ATOM      5  N   UNL     1       1.214   9.801  19.515  0.00  0.00    +0.000 N 
ATOM      6  C   UNL     1       1.817   9.005  18.549  0.00  0.00    +0.000 C 
ATOM      7  O   UNL     1       1.988   9.377  17.395  0.00  0.00    +0.000 OA
ENDROOT
BRANCH   1  12
ATOM      8  C   UNL     1       4.642   5.895  17.090  0.00  0.00    +0.000 A 
ATOM      9  C   UNL     1       4.001   4.669  16.934  0.00  0.00    +0.000 A 
ATOM     10  C   UNL     1       2.768   4.443  17.543  0.00  0.00    +0.000 A 
ATOM     11  C   UNL     1       2.158   5.452  18.294  0.00  0.00    +0.000 A 
ATOM     12  C   UNL     1       2.758   6.710  18.426  0.00  0.00    +0.000 A 
ATOM     13  C   UNL     1       4.019   6.897  17.835  0.00  0.00    +0.000 A 
BRANCH   8  15
ATOM     14  C   UNL     1       6.968   6.306  17.329  0.00  0.00    +0.000 C 
ATOM     15  O   UNL     1       5.861   6.010  16.478  0.00  0.00    +0.000 OA
ENDBRANCH   8  15
ENDBRANCH   1  12
BRANCH   4  16
ATOM     16  C   UNL     1      -0.277   8.974  21.420  0.00  0.00    +0.000 C 
BRANCH  16  17
ATOM     17  C   UNL     1      -0.529  10.038  22.459  0.00  0.00    +0.000 C 
ATOM     18  O   UNL     1       0.094  10.002  23.515  0.00  0.00    +0.000 OA
ATOM     19  N   UNL     1      -1.475  10.978  22.091  0.00  0.00    +0.000 N 
ATOM     20  H   UNL     1      -2.053  10.785  21.280  0.00  0.00    +0.000 HD
BRANCH  19  21
ATOM     21  C   UNL     1      -1.811  12.128  22.838  0.00  0.00    +0.000 A 
ATOM     22  C   UNL     1      -0.950  13.224  22.970  0.00  0.00    +0.000 A 
ATOM     23  C   UNL     1      -1.315  14.328  23.736  0.00  0.00    +0.000 A 
ATOM     24  C   UNL     1      -2.547  14.355  24.381  0.00  0.00    +0.000 A 
ATOM     25  C   UNL     1      -3.424  13.281  24.237  0.00  0.00    +0.000 A 
ATOM     26  C   UNL     1      -3.065  12.177  23.460  0.00  0.00    +0.000 A 
ENDBRANCH  19  21
ENDBRANCH  16  17
ENDBRANCH   4  16
BRANCH   5  27
ATOM     27  C   UNL     1       0.701  11.141  19.233  0.00  0.00    +0.000 C 
BRANCH  27  28
ATOM     28  C   UNL     1       1.165  12.182  20.247  0.00  0.00    +0.000 C 
BRANCH  28  29
ATOM     29  C   UNL     1       2.079  13.215  19.663  0.00  0.00    +0.000 A 
ATOM     30  S   UNL     1       2.658  13.019  18.064  0.00  0.00    +0.000 S 
ATOM     31  C   UNL     1       3.638  14.409  18.183  0.00  0.00    +0.000 A 
ATOM     32  C   UNL     1       3.506  15.028  19.404  0.00  0.00    +0.000 A 
ATOM     33  C   UNL     1       2.593  14.348  20.276  0.00  0.00    +0.000 A 
ATOM     34  C   UNL     1       2.268  14.797  21.664  0.00  0.00    +0.000 C 
ENDBRANCH  28  29
ENDBRANCH  27  28
ENDBRANCH   5  27
TORSDOF 8
ENDMDL
MODEL 7
REMARK VINA RESULT:      -7.6      0.961      1.782
REMARK  Name = 
REMARK  10 active torsions:
REMARK  status: ('A' for Active; 'I' for Inactive)
REMARK    1  A    between atoms: C_1  and  O_2
REMARK    2  A    between atoms: O_2  and  C_3
REMARK    3  A    between atoms: C_7  and  N_8
REMARK    4  A    between atoms: C_11  and  C_12
REMARK    5  A    between atoms: C_12  and  C_13
REMARK    6  A    between atoms: N_15  and  C_16
REMARK    7  A    between atoms: N_22  and  C_23
REMARK    8  A    between atoms: C_23  and  C_24
REMARK    9  A    between atoms: C_24  and  C_25
REMARK   10  A    between atoms: C_29  and  C_30
REMARK                            x       y       z     vdW  Elec       q    Type
REMARK                         _______ _______ _______ _____ _____    ______ ____
ROOT
ATOM      1  N   UNL     1       2.141   7.854  19.091  0.00  0.00    +0.000 N 
ATOM      2  C   UNL     1       1.665   7.815  20.380  0.00  0.00    +0.000 C 
ATOM      3  O   UNL     1       1.693   6.899  21.195  0.00  0.00    +0.000 OA
ATOM      4  C   UNL     1       1.078   9.177  20.727  0.00  0.00    +0.000 C 
ATOM      5  N   UNL     1       1.216   9.871  19.467  0.00  0.00    +0.000 N 
ATOM      6  C   UNL     1       1.837   9.074  18.514  0.00  0.00    +0.000 C 
ATOM      7  O   UNL     1       2.027   9.445  17.362  0.00  0.00    +0.000 OA
ENDROOT
BRANCH   1  12
ATOM      8  C   UNL     1       4.641   5.991  17.021  0.00  0.00    +0.000 A 
ATOM      9  C   UNL     1       4.047   4.736  16.941  0.00  0.00    +0.000 A 
ATOM     10  C   UNL     1       2.852   4.483  17.614  0.00  0.00    +0.000 A 
ATOM     11  C   UNL     1       2.234   5.495  18.355  0.00  0.00    +0.000 A 
ATOM     12  C   UNL     1       2.785   6.781  18.411  0.00  0.00    +0.000 A 
ATOM     13  C   UNL     1       4.010   6.996  17.755  0.00  0.00    +0.000 A 
BRANCH   8  15
ATOM     14  C   UNL     1       7.007   5.794  17.076  0.00  0.00    +0.000 C 
ATOM     15  O   UNL     1       5.826   6.132  16.350  0.00  0.00    +0.000 OA
ENDBRANCH   8  15
ENDBRANCH   1  12
BRANCH   4  16
ATOM     16  C   UNL     1      -0.304   9.044  21.349  0.00  0.00    +0.000 C 
BRANCH  16  17
ATOM     17  C   UNL     1      -0.559  10.082  22.413  0.00  0.00    +0.000 C 
ATOM     18  O   UNL     1       0.048  10.012  23.476  0.00  0.00    +0.000 OA
ATOM     19  N   UNL     1      -1.491  11.043  22.057  0.00  0.00    +0.000 N 
ATOM     20  H   UNL     1      -2.060  10.877  21.233  0.00  0.00    +0.000 HD
BRANCH  19  21
ATOM     21  C   UNL     1      -1.826  12.175  22.830  0.00  0.00    +0.000 A 
ATOM     22  C   UNL     1      -3.045  12.293  23.510  0.00  0.00    +0.000 A 
ATOM     23  C   UNL     1      -3.342  13.438  24.244  0.00  0.00    +0.000 A 
ATOM     24  C   UNL     1      -2.426  14.483  24.311  0.00  0.00    +0.000 A 
ATOM     25  C   UNL     1      -1.199  14.367  23.661  0.00  0.00    +0.000 A 
ATOM     26  C   UNL     1      -0.894  13.214  22.932  0.00  0.00    +0.000 A 
ENDBRANCH  19  21
ENDBRANCH  16  17
ENDBRANCH   4  16
BRANCH   5  27
ATOM     27  C   UNL     1       0.705  11.209  19.174  0.00  0.00    +0.000 C 
BRANCH  27  28
ATOM     28  C   UNL     1       1.280  12.281  20.096  0.00  0.00    +0.000 C 
BRANCH  28  29
ATOM     29  C   UNL     1       1.510  13.593  19.409  0.00  0.00    +0.000 A 
ATOM     30  S   UNL     1       3.053  13.940  18.755  0.00  0.00    +0.000 S 
ATOM     31  C   UNL     1       2.576  15.514  18.307  0.00  0.00    +0.000 A 
ATOM     32  C   UNL     1       1.260  15.762  18.621  0.00  0.00    +0.000 A 
ATOM     33  C   UNL     1       0.622  14.647  19.257  0.00  0.00    +0.000 A 
ATOM     34  C   UNL     1      -0.801  14.644  19.713  0.00  0.00    +0.000 C 
ENDBRANCH  28  29
ENDBRANCH  27  28
ENDBRANCH   5  27
TORSDOF 8
ENDMDL
MODEL 8
REMARK VINA RESULT:      -7.6      1.067      1.607
REMARK  Name = 
REMARK  10 active torsions:
REMARK  status: ('A' for Active; 'I' for Inactive)
REMARK    1  A    between atoms: C_1  and  O_2
REMARK    2  A    between atoms: O_2  and  C_3
REMARK    3  A    between atoms: C_7  and  N_8
REMARK    4  A    between atoms: C_11  and  C_12
REMARK    5  A    between atoms: C_12  and  C_13
REMARK    6  A    between atoms: N_15  and  C_16
REMARK    7  A    between atoms: N_22  and  C_23
REMARK    8  A    between atoms: C_23  and  C_24
REMARK    9  A    between atoms: C_24  and  C_25
REMARK   10  A    between atoms: C_29  and  C_30
REMARK                            x       y       z     vdW  Elec       q    Type
REMARK                         _______ _______ _______ _____ _____    ______ ____
ROOT
ATOM      1  N   UNL     1       2.220   7.499  19.018  0.00  0.00    +0.000 N 
ATOM      2  C   UNL     1       1.775   7.535  20.318  0.00  0.00    +0.000 C 
ATOM      3  O   UNL     1       1.806   6.662  21.179  0.00  0.00    +0.000 OA
ATOM      4  C   UNL     1       1.222   8.924  20.608  0.00  0.00    +0.000 C 
ATOM      5  N   UNL     1       1.342   9.550  19.311  0.00  0.00    +0.000 N 
ATOM      6  C   UNL     1       1.924   8.693  18.385  0.00  0.00    +0.000 C 
ATOM      7  O   UNL     1       2.092   9.000  17.212  0.00  0.00    +0.000 OA
ENDROOT
BRANCH   1  12
ATOM      8  C   UNL     1       4.771   5.410  17.248  0.00  0.00    +0.000 A 
ATOM      9  C   UNL     1       4.045   4.250  16.996  0.00  0.00    +0.000 A 
ATOM     10  C   UNL     1       2.736   4.130  17.457  0.00  0.00    +0.000 A 
ATOM     11  C   UNL     1       2.136   5.182  18.155  0.00  0.00    +0.000 A 
ATOM     12  C   UNL     1       2.827   6.380  18.379  0.00  0.00    +0.000 A 
ATOM     13  C   UNL     1       4.159   6.457  17.937  0.00  0.00    +0.000 A 
BRANCH   8  15
ATOM     14  C   UNL     1       7.029   4.762  17.591  0.00  0.00    +0.000 C 
ATOM     15  O   UNL     1       6.058   5.421  16.779  0.00  0.00    +0.000 OA
ENDBRANCH   8  15
ENDBRANCH   1  12
BRANCH   4  16
ATOM     16  C   UNL     1      -0.147   8.850  21.269  0.00  0.00    +0.000 C 
BRANCH  16  17
ATOM     17  C   UNL     1      -0.357   9.948  22.282  0.00  0.00    +0.000 C 
ATOM     18  O   UNL     1       0.295   9.936  23.320  0.00  0.00    +0.000 OA
ATOM     19  N   UNL     1      -1.303  10.888  21.912  0.00  0.00    +0.000 N 
ATOM     20  H   UNL     1      -1.907  10.677  21.124  0.00  0.00    +0.000 HD
BRANCH  19  21
ATOM     21  C   UNL     1      -1.606  12.063  22.634  0.00  0.00    +0.000 A 
ATOM     22  C   UNL     1      -0.729  13.152  22.708  0.00  0.00    +0.000 A 
ATOM     23  C   UNL     1      -1.059  14.283  23.451  0.00  0.00    +0.000 A 
ATOM     24  C   UNL     1      -2.272  14.343  24.130  0.00  0.00    +0.000 A 
ATOM     25  C   UNL     1      -3.164  13.277  24.043  0.00  0.00    +0.000 A 
ATOM     26  C   UNL     1      -2.840  12.145  23.290  0.00  0.00    +0.000 A 
ENDBRANCH  19  21
ENDBRANCH  16  17
ENDBRANCH   4  16
BRANCH   5  27
ATOM     27  C   UNL     1       0.848  10.881  18.961  0.00  0.00    +0.000 C 
BRANCH  27  28
ATOM     28  C   UNL     1       1.436  11.983  19.837  0.00  0.00    +0.000 C 
BRANCH  28  29
ATOM     29  C   UNL     1       1.072  13.363  19.380  0.00  0.00    +0.000 A 
ATOM     30  S   UNL     1       2.294  14.554  19.246  0.00  0.00    +0.000 S 
ATOM     31  C   UNL     1       1.161  15.758  18.831  0.00  0.00    +0.000 A 
ATOM     32  C   UNL     1      -0.120  15.258  18.767  0.00  0.00    +0.000 A 
ATOM     33  C   UNL     1      -0.186  13.860  19.076  0.00  0.00    +0.000 A 
ATOM     34  C   UNL     1      -1.451  13.064  19.090  0.00  0.00    +0.000 C 
ENDBRANCH  28  29
ENDBRANCH  27  28
ENDBRANCH   5  27
TORSDOF 8
ENDMDL
MODEL 9
REMARK VINA RESULT:      -7.2      2.556      3.338
REMARK  Name = 
REMARK  10 active torsions:
REMARK  status: ('A' for Active; 'I' for Inactive)
REMARK    1  A    between atoms: C_1  and  O_2
REMARK    2  A    between atoms: O_2  and  C_3
REMARK    3  A    between atoms: C_7  and  N_8
REMARK    4  A    between atoms: C_11  and  C_12
REMARK    5  A    between atoms: C_12  and  C_13
REMARK    6  A    between atoms: N_15  and  C_16
REMARK    7  A    between atoms: N_22  and  C_23
REMARK    8  A    between atoms: C_23  and  C_24
REMARK    9  A    between atoms: C_24  and  C_25
REMARK   10  A    between atoms: C_29  and  C_30
REMARK                            x       y       z     vdW  Elec       q    Type
REMARK                         _______ _______ _______ _____ _____    ______ ____
ROOT
ATOM      1  N   UNL     1       1.957   8.041  19.003  0.00  0.00    +0.000 N 
ATOM      2  C   UNL     1       1.747   8.169  20.355  0.00  0.00    +0.000 C 
ATOM      3  O   UNL     1       2.199   7.504  21.282  0.00  0.00    +0.000 OA
ATOM      4  C   UNL     1       0.836   9.364  20.600  0.00  0.00    +0.000 C 
ATOM      5  N   UNL     1       0.531   9.765  19.245  0.00  0.00    +0.000 N 
ATOM      6  C   UNL     1       1.194   8.970  18.319  0.00  0.00    +0.000 C 
ATOM      7  O   UNL     1       1.057   9.106  17.109  0.00  0.00    +0.000 OA
ENDROOT
BRANCH   1  12
ATOM      8  C   UNL     1       4.779   6.506  17.083  0.00  0.00    +0.000 A 
ATOM      9  C   UNL     1       4.372   5.177  17.018  0.00  0.00    +0.000 A 
ATOM     10  C   UNL     1       3.199   4.772  17.653  0.00  0.00    +0.000 A 
ATOM     11  C   UNL     1       2.414   5.702  18.340  0.00  0.00    +0.000 A 
ATOM     12  C   UNL     1       2.774   7.055  18.379  0.00  0.00    +0.000 A 
ATOM     13  C   UNL     1       3.981   7.427  17.764  0.00  0.00    +0.000 A 
BRANCH   8  15
ATOM     14  C   UNL     1       7.149   6.562  17.202  0.00  0.00    +0.000 C 
ATOM     15  O   UNL     1       5.958   6.799  16.452  0.00  0.00    +0.000 OA
ENDBRANCH   8  15
ENDBRANCH   1  12
BRANCH   4  16
ATOM     16  C   UNL     1      -0.307   9.009  21.539  0.00  0.00    +0.000 C 
BRANCH  16  17
ATOM     17  C   UNL     1      -0.557  10.080  22.572  0.00  0.00    +0.000 C 
ATOM     18  O   UNL     1       0.028  10.022  23.648  0.00  0.00    +0.000 OA
ATOM     19  N   UNL     1      -1.458  11.053  22.174  0.00  0.00    +0.000 N 
ATOM     20  H   UNL     1      -2.015  10.880  21.344  0.00  0.00    +0.000 HD
BRANCH  19  21
ATOM     21  C   UNL     1      -1.780  12.212  22.913  0.00  0.00    +0.000 A 
ATOM     22  C   UNL     1      -0.907  13.300  23.032  0.00  0.00    +0.000 A 
ATOM     23  C   UNL     1      -1.257  14.414  23.790  0.00  0.00    +0.000 A 
ATOM     24  C   UNL     1      -2.487  14.459  24.440  0.00  0.00    +0.000 A 
ATOM     25  C   UNL     1      -3.375  13.394  24.308  0.00  0.00    +0.000 A 
ATOM     26  C   UNL     1      -3.030  12.279  23.540  0.00  0.00    +0.000 A 
ENDBRANCH  19  21
ENDBRANCH  16  17
ENDBRANCH   4  16
BRANCH   5  27
ATOM     27  C   UNL     1      -0.413  10.813  18.862  0.00  0.00    +0.000 C 
BRANCH  27  28
ATOM     28  C   UNL     1      -1.869  10.410  19.074  0.00  0.00    +0.000 C 
BRANCH  28  29
ATOM     29  C   UNL     1      -2.743  10.691  17.890  0.00  0.00    +0.000 A 
ATOM     30  S   UNL     1      -2.293  10.092  16.351  0.00  0.00    +0.000 S 
ATOM     31  C   UNL     1      -3.607  10.871  15.595  0.00  0.00    +0.000 A 
ATOM     32  C   UNL     1      -4.391  11.551  16.499  0.00  0.00    +0.000 A 
ATOM     33  C   UNL     1      -3.905  11.447  17.843  0.00  0.00    +0.000 A 
ATOM     34  C   UNL     1      -4.556  12.094  19.023  0.00  0.00    +0.000 C 
ENDBRANCH  28  29
ENDBRANCH  27  28
ENDBRANCH   5  27
TORSDOF 8
ENDMDL
