MODEL 1
REMARK VINA RESULT:      -7.3      0.000      0.000
REMARK  Name = 
REMARK  3 active torsions:
REMARK  status: ('A' for Active; 'I' for Inactive)
REMARK    1  A    between atoms: N_1  and  C_2
REMARK    2  A    between atoms: N_5  and  C_6
REMARK    3  A    between atoms: C_12  and  C_13
REMARK                            x       y       z     vdW  Elec       q    Type
REMARK                         _______ _______ _______ _____ _____    ______ ____
ROOT
ATOM      1  C   UNL     1       2.417   4.148  17.771  0.00  0.00    +0.000 A 
ATOM      2  N   UNL     1       3.255   3.279  17.152  0.00  0.00    +0.000 NA
ATOM      3  N   UNL     1       4.450   3.845  17.095  0.00  0.00    +0.000 NA
ATOM      4  N   UNL     1       4.402   5.003  17.808  0.00  0.00    +0.000 N 
ATOM      5  C   UNL     1       3.075   5.308  18.127  0.00  0.00    +0.000 A 
ENDROOT
BRANCH   4   6
ATOM      6  C   UNL     1       5.591   5.732  18.084  0.00  0.00    +0.000 A 
ATOM      7  C   UNL     1       6.415   5.335  19.143  0.00  0.00    +0.000 A 
ATOM      8  C   UNL     1       7.672   5.925  19.297  0.00  0.00    +0.000 A 
ATOM      9  C   UNL     1       8.092   6.928  18.423  0.00  0.00    +0.000 A 
ATOM     10  C   UNL     1       7.239   7.381  17.420  0.00  0.00    +0.000 A 
ATOM     11  C   UNL     1       5.981   6.798  17.262  0.00  0.00    +0.000 A 
ENDBRANCH   4   6
BRANCH   5  12
ATOM     12  C   UNL     1       2.593   6.588  18.662  0.00  0.00    +0.000 A 
ATOM     13  C   UNL     1       2.237   6.716  20.017  0.00  0.00    +0.000 A 
ATOM     14  C   UNL     1       1.612   7.871  20.491  0.00  0.00    +0.000 A 
ATOM     15  C   UNL     1       1.407   8.946  19.634  0.00  0.00    +0.000 A 
ATOM     16  C   UNL     1       1.839   8.870  18.311  0.00  0.00    +0.000 A 
ATOM     17  C   UNL     1       2.420   7.695  17.824  0.00  0.00    +0.000 A 
ENDBRANCH   5  12
BRANCH   1  18
ATOM     18  N   UNL     1       1.115   3.867  17.916  0.00  0.00    +0.000 N 
ATOM     19  H   UNL     1       0.480   4.645  18.088  0.00  0.00    +0.000 HD
ATOM     20  H   UNL     1       0.818   2.998  18.350  0.00  0.00    +0.000 HD
ENDBRANCH   1  18
TORSDOF 3
ENDMDL
MODEL 2
REMARK VINA RESULT:      -7.2      1.860      4.968
REMARK  Name = 
REMARK  3 active torsions:
REMARK  status: ('A' for Active; 'I' for Inactive)
REMARK    1  A    between atoms: N_1  and  C_2
REMARK    2  A    between atoms: N_5  and  C_6
REMARK    3  A    between atoms: C_12  and  C_13
REMARK                            x       y       z     vdW  Elec       q    Type
REMARK                         _______ _______ _______ _____ _____    ______ ____
ROOT
ATOM      1  C   UNL     1       3.266   2.156  18.722  0.00  0.00    +0.000 A 
ATOM      2  N   UNL     1       2.205   2.145  19.568  0.00  0.00    +0.000 NA
ATOM      3  N   UNL     1       1.954   3.397  19.913  0.00  0.00    +0.000 NA
ATOM      4  N   UNL     1       2.756   4.209  19.171  0.00  0.00    +0.000 N 
ATOM      5  C   UNL     1       3.720   3.443  18.507  0.00  0.00    +0.000 A 
ENDROOT
BRANCH   4   6
ATOM      6  C   UNL     1       2.571   5.618  19.187  0.00  0.00    +0.000 A 
ATOM      7  C   UNL     1       2.754   6.353  18.010  0.00  0.00    +0.000 A 
ATOM      8  C   UNL     1       2.389   7.701  17.975  0.00  0.00    +0.000 A 
ATOM      9  C   UNL     1       1.879   8.323  19.115  0.00  0.00    +0.000 A 
ATOM     10  C   UNL     1       1.776   7.614  20.309  0.00  0.00    +0.000 A 
ATOM     11  C   UNL     1       2.141   6.268  20.351  0.00  0.00    +0.000 A 
ENDBRANCH   4   6
BRANCH   5  12
ATOM     12  C   UNL     1       4.908   3.965  17.821  0.00  0.00    +0.000 A 
ATOM     13  C   UNL     1       5.023   3.892  16.420  0.00  0.00    +0.000 A 
ATOM     14  C   UNL     1       6.218   4.221  15.778  0.00  0.00    +0.000 A 
ATOM     15  C   UNL     1       7.290   4.704  16.520  0.00  0.00    +0.000 A 
ATOM     16  C   UNL     1       7.160   4.870  17.897  0.00  0.00    +0.000 A 
ATOM     17  C   UNL     1       5.980   4.495  18.546  0.00  0.00    +0.000 A 
ENDBRANCH   5  12
BRANCH   1  18
ATOM     18  N   UNL     1       3.789   1.015  18.255  0.00  0.00    +0.000 N 
ATOM     19  H   UNL     1       3.810   0.213  18.883  0.00  0.00    +0.000 HD
ATOM     20  H   UNL     1       4.559   1.031  17.592  0.00  0.00    +0.000 HD
ENDBRANCH   1  18
TORSDOF 3
ENDMDL
MODEL 3
REMARK VINA RESULT:      -7.1      1.686      2.025
REMARK  Name = 
REMARK  3 active torsions:
REMARK  status: ('A' for Active; 'I' for Inactive)
REMARK    1  A    between atoms: N_1  and  C_2
REMARK    2  A    between atoms: N_5  and  C_6
REMARK    3  A    between atoms: C_12  and  C_13
REMARK                            x       y       z     vdW  Elec       q    Type
REMARK                         _______ _______ _______ _____ _____    ______ ____
ROOT
ATOM      1  C   UNL     1       1.711   3.155  19.434  0.00  0.00    +0.000 A 
ATOM      2  N   UNL     1       2.124   1.962  18.937  0.00  0.00    +0.000 NA
ATOM      3  N   UNL     1       3.176   2.191  18.167  0.00  0.00    +0.000 NA
ATOM      4  N   UNL     1       3.517   3.502  18.297  0.00  0.00    +0.000 N 
ATOM      5  C   UNL     1       2.508   4.188  18.982  0.00  0.00    +0.000 A 
ENDROOT
BRANCH   4   6
ATOM      6  C   UNL     1       4.727   3.993  17.736  0.00  0.00    +0.000 A 
ATOM      7  C   UNL     1       5.735   4.475  18.579  0.00  0.00    +0.000 A 
ATOM      8  C   UNL     1       6.992   4.777  18.049  0.00  0.00    +0.000 A 
ATOM      9  C   UNL     1       7.233   4.635  16.682  0.00  0.00    +0.000 A 
ATOM     10  C   UNL     1       6.206   4.236  15.831  0.00  0.00    +0.000 A 
ATOM     11  C   UNL     1       4.948   3.934  16.354  0.00  0.00    +0.000 A 
ENDBRANCH   4   6
BRANCH   5  12
ATOM     12  C   UNL     1       2.388   5.647  19.096  0.00  0.00    +0.000 A 
ATOM     13  C   UNL     1       2.054   6.249  20.323  0.00  0.00    +0.000 A 
ATOM     14  C   UNL     1       1.763   7.613  20.400  0.00  0.00    +0.000 A 
ATOM     15  C   UNL     1       1.880   8.408  19.266  0.00  0.00    +0.000 A 
ATOM     16  C   UNL     1       2.299   7.843  18.063  0.00  0.00    +0.000 A 
ATOM     17  C   UNL     1       2.543   6.469  17.975  0.00  0.00    +0.000 A 
ENDBRANCH   5  12
BRANCH   1  18
ATOM     18  N   UNL     1       0.617   3.241  20.203  0.00  0.00    +0.000 N 
ATOM     19  H   UNL     1       0.120   4.130  20.219  0.00  0.00    +0.000 HD
ATOM     20  H   UNL     1       0.558   2.728  21.078  0.00  0.00    +0.000 HD
ENDBRANCH   1  18
TORSDOF 3
ENDMDL
MODEL 4
REMARK VINA RESULT:      -7.1      1.956      4.724
REMARK  Name = 
REMARK  3 active torsions:
REMARK  status: ('A' for Active; 'I' for Inactive)
REMARK    1  A    between atoms: N_1  and  C_2
REMARK    2  A    between atoms: N_5  and  C_6
REMARK    3  A    between atoms: C_12  and  C_13
REMARK                            x       y       z     vdW  Elec       q    Type
REMARK                         _______ _______ _______ _____ _____    ______ ____
ROOT
ATOM      1  C   UNL     1       4.161   2.734  19.919  0.00  0.00    +0.000 A 
ATOM      2  N   UNL     1       3.086   2.679  20.745  0.00  0.00    +0.000 NA
ATOM      3  N   UNL     1       2.522   3.876  20.751  0.00  0.00    +0.000 NA
ATOM      4  N   UNL     1       3.148   4.641  19.817  0.00  0.00    +0.000 N 
ATOM      5  C   UNL     1       4.305   3.993  19.371  0.00  0.00    +0.000 A 
ENDROOT
BRANCH   4   6
ATOM      6  C   UNL     1       2.630   5.917  19.463  0.00  0.00    +0.000 A 
ATOM      7  C   UNL     1       2.032   6.717  20.443  0.00  0.00    +0.000 A 
ATOM      8  C   UNL     1       1.698   8.040  20.143  0.00  0.00    +0.000 A 
ATOM      9  C   UNL     1       1.925   8.553  18.866  0.00  0.00    +0.000 A 
ATOM     10  C   UNL     1       2.443   7.733  17.867  0.00  0.00    +0.000 A 
ATOM     11  C   UNL     1       2.777   6.409  18.159  0.00  0.00    +0.000 A 
ENDBRANCH   4   6
BRANCH   5  12
ATOM     12  C   UNL     1       5.371   4.599  18.563  0.00  0.00    +0.000 A 
ATOM     13  C   UNL     1       6.349   5.418  19.157  0.00  0.00    +0.000 A 
ATOM     14  C   UNL     1       7.255   6.139  18.376  0.00  0.00    +0.000 A 
ATOM     15  C   UNL     1       7.248   5.988  16.995  0.00  0.00    +0.000 A 
ATOM     16  C   UNL     1       6.345   5.109  16.398  0.00  0.00    +0.000 A 
ATOM     17  C   UNL     1       5.406   4.426  17.176  0.00  0.00    +0.000 A 
ENDBRANCH   5  12
BRANCH   1  18
ATOM     18  N   UNL     1       4.969   1.676  19.765  0.00  0.00    +0.000 N 
ATOM     19  H   UNL     1       5.941   1.779  20.053  0.00  0.00    +0.000 HD
ATOM     20  H   UNL     1       4.842   1.038  18.985  0.00  0.00    +0.000 HD
ENDBRANCH   1  18
TORSDOF 3
ENDMDL
MODEL 5
REMARK VINA RESULT:      -7.1      1.743      4.655
REMARK  Name = 
REMARK  3 active torsions:
REMARK  status: ('A' for Active; 'I' for Inactive)
REMARK    1  A    between atoms: N_1  and  C_2
REMARK    2  A    between atoms: N_5  and  C_6
REMARK    3  A    between atoms: C_12  and  C_13
REMARK                            x       y       z     vdW  Elec       q    Type
REMARK                         _______ _______ _______ _____ _____    ______ ____
ROOT
ATOM      1  C   UNL     1       3.313   1.996  18.662  0.00  0.00    +0.000 A 
ATOM      2  N   UNL     1       2.154   1.867  19.356  0.00  0.00    +0.000 NA
ATOM      3  N   UNL     1       1.761   3.080  19.709  0.00  0.00    +0.000 NA
ATOM      4  N   UNL     1       2.586   3.982  19.111  0.00  0.00    +0.000 N 
ATOM      5  C   UNL     1       3.686   3.321  18.556  0.00  0.00    +0.000 A 
ENDROOT
BRANCH   4   6
ATOM      6  C   UNL     1       2.289   5.372  19.153  0.00  0.00    +0.000 A 
ATOM      7  C   UNL     1       1.910   5.962  20.364  0.00  0.00    +0.000 A 
ATOM      8  C   UNL     1       1.806   7.353  20.449  0.00  0.00    +0.000 A 
ATOM      9  C   UNL     1       2.042   8.149  19.327  0.00  0.00    +0.000 A 
ATOM     10  C   UNL     1       2.336   7.556  18.102  0.00  0.00    +0.000 A 
ATOM     11  C   UNL     1       2.441   6.167  18.010  0.00  0.00    +0.000 A 
ENDBRANCH   4   6
BRANCH   5  12
ATOM     12  C   UNL     1       4.909   3.962  18.055  0.00  0.00    +0.000 A 
ATOM     13  C   UNL     1       5.786   4.628  18.930  0.00  0.00    +0.000 A 
ATOM     14  C   UNL     1       6.850   5.389  18.442  0.00  0.00    +0.000 A 
ATOM     15  C   UNL     1       7.100   5.429  17.076  0.00  0.00    +0.000 A 
ATOM     16  C   UNL     1       6.296   4.699  16.202  0.00  0.00    +0.000 A 
ATOM     17  C   UNL     1       5.201   3.977  16.686  0.00  0.00    +0.000 A 
ENDBRANCH   5  12
BRANCH   1  18
ATOM     18  N   UNL     1       3.982   0.919  18.228  0.00  0.00    +0.000 N 
ATOM     19  H   UNL     1       4.102   0.144  18.879  0.00  0.00    +0.000 HD
ATOM     20  H   UNL     1       4.748   1.017  17.569  0.00  0.00    +0.000 HD
ENDBRANCH   1  18
TORSDOF 3
ENDMDL
MODEL 6
REMARK VINA RESULT:      -7.1      0.838      4.771
REMARK  Name = 
REMARK  3 active torsions:
REMARK  status: ('A' for Active; 'I' for Inactive)
REMARK    1  A    between atoms: N_1  and  C_2
REMARK    2  A    between atoms: N_5  and  C_6
REMARK    3  A    between atoms: C_12  and  C_13
REMARK                            x       y       z     vdW  Elec       q    Type
REMARK                         _______ _______ _______ _____ _____    ______ ____
ROOT
ATOM      1  C   UNL     1       3.659   3.589  17.853  0.00  0.00    +0.000 A 
ATOM      2  N   UNL     1       2.348   3.331  18.092  0.00  0.00    +0.000 NA
ATOM      3  N   UNL     1       1.808   4.429  18.596  0.00  0.00    +0.000 NA
ATOM      4  N   UNL     1       2.737   5.421  18.536  0.00  0.00    +0.000 N 
ATOM      5  C   UNL     1       3.986   4.882  18.208  0.00  0.00    +0.000 A 
ENDROOT
BRANCH   4   6
ATOM      6  C   UNL     1       2.379   6.765  18.830  0.00  0.00    +0.000 A 
ATOM      7  C   UNL     1       2.291   7.701  17.793  0.00  0.00    +0.000 A 
ATOM      8  C   UNL     1       1.757   8.966  18.050  0.00  0.00    +0.000 A 
ATOM      9  C   UNL     1       1.345   9.310  19.338  0.00  0.00    +0.000 A 
ATOM     10  C   UNL     1       1.511   8.409  20.386  0.00  0.00    +0.000 A 
ATOM     11  C   UNL     1       2.046   7.144  20.137  0.00  0.00    +0.000 A 
ENDBRANCH   4   6
BRANCH   5  12
ATOM     12  C   UNL     1       5.273   5.583  18.295  0.00  0.00    +0.000 A 
ATOM     13  C   UNL     1       5.630   6.558  17.345  0.00  0.00    +0.000 A 
ATOM     14  C   UNL     1       6.918   7.097  17.316  0.00  0.00    +0.000 A 
ATOM     15  C   UNL     1       7.842   6.729  18.287  0.00  0.00    +0.000 A 
ATOM     16  C   UNL     1       7.474   5.835  19.290  0.00  0.00    +0.000 A 
ATOM     17  C   UNL     1       6.201   5.257  19.290  0.00  0.00    +0.000 A 
ENDBRANCH   5  12
BRANCH   1  18
ATOM     18  N   UNL     1       4.479   2.632  17.396  0.00  0.00    +0.000 N 
ATOM     19  H   UNL     1       4.139   2.041  16.640  0.00  0.00    +0.000 HD
ATOM     20  H   UNL     1       5.123   2.159  18.023  0.00  0.00    +0.000 HD
ENDBRANCH   1  18
TORSDOF 3
ENDMDL
MODEL 7
REMARK VINA RESULT:      -7.0      1.717      2.321
REMARK  Name = 
REMARK  3 active torsions:
REMARK  status: ('A' for Active; 'I' for Inactive)
REMARK    1  A    between atoms: N_1  and  C_2
REMARK    2  A    between atoms: N_5  and  C_6
REMARK    3  A    between atoms: C_12  and  C_13
REMARK                            x       y       z     vdW  Elec       q    Type
REMARK                         _______ _______ _______ _____ _____    ______ ____
ROOT
ATOM      1  C   UNL     1       1.785   2.977  19.493  0.00  0.00    +0.000 A 
ATOM      2  N   UNL     1       2.305   1.800  19.065  0.00  0.00    +0.000 NA
ATOM      3  N   UNL     1       3.358   2.076  18.313  0.00  0.00    +0.000 NA
ATOM      4  N   UNL     1       3.591   3.415  18.388  0.00  0.00    +0.000 N 
ATOM      5  C   UNL     1       2.511   4.049  19.011  0.00  0.00    +0.000 A 
ENDROOT
BRANCH   4   6
ATOM      6  C   UNL     1       4.774   3.975  17.835  0.00  0.00    +0.000 A 
ATOM      7  C   UNL     1       5.740   4.528  18.684  0.00  0.00    +0.000 A 
ATOM      8  C   UNL     1       6.981   4.903  18.164  0.00  0.00    +0.000 A 
ATOM      9  C   UNL     1       7.247   4.762  16.801  0.00  0.00    +0.000 A 
ATOM     10  C   UNL     1       6.257   4.290  15.943  0.00  0.00    +0.000 A 
ATOM     11  C   UNL     1       5.014   3.916  16.456  0.00  0.00    +0.000 A 
ENDBRANCH   4   6
BRANCH   5  12
ATOM     12  C   UNL     1       2.272   5.497  19.051  0.00  0.00    +0.000 A 
ATOM     13  C   UNL     1       2.378   6.278  17.885  0.00  0.00    +0.000 A 
ATOM     14  C   UNL     1       2.330   7.672  17.947  0.00  0.00    +0.000 A 
ATOM     15  C   UNL     1       2.094   8.302  19.163  0.00  0.00    +0.000 A 
ATOM     16  C   UNL     1       1.893   7.538  20.312  0.00  0.00    +0.000 A 
ATOM     17  C   UNL     1       1.991   6.145  20.259  0.00  0.00    +0.000 A 
ENDBRANCH   5  12
BRANCH   1  18
ATOM     18  N   UNL     1       0.665   3.011  20.228  0.00  0.00    +0.000 N 
ATOM     19  H   UNL     1      -0.006   3.753  20.033  0.00  0.00    +0.000 HD
ATOM     20  H   UNL     1       0.676   2.720  21.202  0.00  0.00    +0.000 HD
ENDBRANCH   1  18
TORSDOF 3
ENDMDL
MODEL 8
REMARK VINA RESULT:      -7.0      1.634      2.196
REMARK  Name = 
REMARK  3 active torsions:
REMARK  status: ('A' for Active; 'I' for Inactive)
REMARK    1  A    between atoms: N_1  and  C_2
REMARK    2  A    between atoms: N_5  and  C_6
REMARK    3  A    between atoms: C_12  and  C_13
REMARK                            x       y       z     vdW  Elec       q    Type
REMARK                         _______ _______ _______ _____ _____    ______ ____
ROOT
ATOM      1  C   UNL     1       1.640   3.146  19.453  0.00  0.00    +0.000 A 
ATOM      2  N   UNL     1       2.049   1.938  18.990  0.00  0.00    +0.000 NA
ATOM      3  N   UNL     1       3.133   2.135  18.256  0.00  0.00    +0.000 NA
ATOM      4  N   UNL     1       3.492   3.442  18.378  0.00  0.00    +0.000 N 
ATOM      5  C   UNL     1       2.472   4.156  19.014  0.00  0.00    +0.000 A 
ENDROOT
BRANCH   4   6
ATOM      6  C   UNL     1       4.731   3.902  17.855  0.00  0.00    +0.000 A 
ATOM      7  C   UNL     1       4.932   3.923  16.470  0.00  0.00    +0.000 A 
ATOM      8  C   UNL     1       6.065   4.550  15.947  0.00  0.00    +0.000 A 
ATOM      9  C   UNL     1       7.011   5.122  16.799  0.00  0.00    +0.000 A 
ATOM     10  C   UNL     1       6.853   5.029  18.179  0.00  0.00    +0.000 A 
ATOM     11  C   UNL     1       5.724   4.402  18.708  0.00  0.00    +0.000 A 
ENDBRANCH   4   6
BRANCH   5  12
ATOM     12  C   UNL     1       2.374   5.619  19.101  0.00  0.00    +0.000 A 
ATOM     13  C   UNL     1       2.077   6.251  20.323  0.00  0.00    +0.000 A 
ATOM     14  C   UNL     1       1.806   7.620  20.377  0.00  0.00    +0.000 A 
ATOM     15  C   UNL     1       1.907   8.390  19.225  0.00  0.00    +0.000 A 
ATOM     16  C   UNL     1       2.291   7.795  18.025  0.00  0.00    +0.000 A 
ATOM     17  C   UNL     1       2.514   6.416  17.960  0.00  0.00    +0.000 A 
ENDBRANCH   5  12
BRANCH   1  18
ATOM     18  N   UNL     1       0.520   3.264  20.179  0.00  0.00    +0.000 N 
ATOM     19  H   UNL     1       0.079   4.181  20.222  0.00  0.00    +0.000 HD
ATOM     20  H   UNL     1       0.389   2.711  21.022  0.00  0.00    +0.000 HD
ENDBRANCH   1  18
TORSDOF 3
ENDMDL
MODEL 9
REMARK VINA RESULT:      -7.0      1.786      4.796
REMARK  Name = 
REMARK  3 active torsions:
REMARK  status: ('A' for Active; 'I' for Inactive)
REMARK    1  A    between atoms: N_1  and  C_2
REMARK    2  A    between atoms: N_5  and  C_6
REMARK    3  A    between atoms: C_12  and  C_13
REMARK                            x       y       z     vdW  Elec       q    Type
REMARK                         _______ _______ _______ _____ _____    ______ ____
ROOT
ATOM      1  C   UNL     1       3.253   2.136  18.700  0.00  0.00    +0.000 A 
ATOM      2  N   UNL     1       2.165   2.124  19.509  0.00  0.00    +0.000 NA
ATOM      3  N   UNL     1       1.910   3.375  19.858  0.00  0.00    +0.000 NA
ATOM      4  N   UNL     1       2.742   4.188  19.151  0.00  0.00    +0.000 N 
ATOM      5  C   UNL     1       3.723   3.421  18.513  0.00  0.00    +0.000 A 
ENDROOT
BRANCH   4   6
ATOM      6  C   UNL     1       2.567   5.598  19.174  0.00  0.00    +0.000 A 
ATOM      7  C   UNL     1       2.749   6.337  17.999  0.00  0.00    +0.000 A 
ATOM      8  C   UNL     1       2.393   7.687  17.973  0.00  0.00    +0.000 A 
ATOM      9  C   UNL     1       1.892   8.308  19.118  0.00  0.00    +0.000 A 
ATOM     10  C   UNL     1       1.791   7.595  20.309  0.00  0.00    +0.000 A 
ATOM     11  C   UNL     1       2.147   6.245  20.343  0.00  0.00    +0.000 A 
ENDBRANCH   4   6
BRANCH   5  12
ATOM     12  C   UNL     1       4.937   3.941  17.872  0.00  0.00    +0.000 A 
ATOM     13  C   UNL     1       5.959   4.534  18.636  0.00  0.00    +0.000 A 
ATOM     14  C   UNL     1       7.029   5.189  18.023  0.00  0.00    +0.000 A 
ATOM     15  C   UNL     1       7.134   5.190  16.637  0.00  0.00    +0.000 A 
ATOM     16  C   UNL     1       6.179   4.527  15.869  0.00  0.00    +0.000 A 
ATOM     17  C   UNL     1       5.082   3.914  16.481  0.00  0.00    +0.000 A 
ENDBRANCH   5  12
BRANCH   1  18
ATOM     18  N   UNL     1       3.784   0.995  18.240  0.00  0.00    +0.000 N 
ATOM     19  H   UNL     1       3.178   0.177  18.192  0.00  0.00    +0.000 HD
ATOM     20  H   UNL     1       4.758   0.768  18.419  0.00  0.00    +0.000 HD
ENDBRANCH   1  18
TORSDOF 3
ENDMDL
