MODEL 1
REMARK VINA RESULT:      -7.3      0.000      0.000
REMARK  Name = 
REMARK  17 active torsions:
REMARK  status: ('A' for Active; 'I' for Inactive)
REMARK    1  A    between atoms: C_1  and  C_2
REMARK    2  A    between atoms: N_4  and  C_5
REMARK    3  A    between atoms: C_5  and  C_6
REMARK    4  A    between atoms: C_5  and  C_13
REMARK    5  A    between atoms: C_6  and  C_7
REMARK    6  A    between atoms: N_15  and  C_16
REMARK    7  A    between atoms: C_16  and  C_17
REMARK    8  A    between atoms: N_19  and  C_20
REMARK    9  A    between atoms: C_20  and  C_21
REMARK   10  A    between atoms: C_20  and  C_22
REMARK   11  A    between atoms: N_24  and  C_25
REMARK   12  A    between atoms: C_25  and  C_26
REMARK   13  A    between atoms: C_25  and  C_30
REMARK   14  A    between atoms: C_26  and  C_27
REMARK   15  A    between atoms: C_27  and  C_28
REMARK   16  A    between atoms: C_27  and  C_29
REMARK   17  A    between atoms: C_30  and  C_32
REMARK                            x       y       z     vdW  Elec       q    Type
REMARK                         _______ _______ _______ _____ _____    ______ ____
ROOT
ATOM      1  C   UNL     1       2.457   6.687  18.698  0.00  0.00    +0.000 C 
ATOM      2  O   UNL     1       2.843   6.649  19.863  0.00  0.00    +0.000 OA
ATOM      3  N   UNL     1       2.316   5.568  17.912  0.00  0.00    +0.000 N 
ATOM      4  H   UNL     1       2.234   5.676  16.900  0.00  0.00    +0.000 HD
ENDROOT
BRANCH   3   5
ATOM      5  C   UNL     1       2.569   4.228  18.428  0.00  0.00    +0.000 C 
ATOM      6  C   UNL     1       1.357   3.327  18.224  0.00  0.00    +0.000 C 
BRANCH   5   7
ATOM      7  C   UNL     1       3.810   3.631  17.740  0.00  0.00    +0.000 C 
ATOM      8  O   UNL     1       4.081   2.432  17.773  0.00  0.00    +0.000 OA
ATOM      9  N   UNL     1       4.605   4.554  17.103  0.00  0.00    +0.000 N 
ATOM     10  H   UNL     1       4.333   5.535  17.092  0.00  0.00    +0.000 HD
BRANCH   9  11
ATOM     11  C   UNL     1       5.729   4.188  16.251  0.00  0.00    +0.000 C 
BRANCH  11  12
ATOM     12  C   UNL     1       7.000   4.715  16.930  0.00  0.00    +0.000 C 
ATOM     13  O   UNL     1       8.081   4.128  16.795  0.00  0.00    +0.000 OA
BRANCH  12  14
ATOM     14  C   UNL     1       6.884   5.970  17.759  0.00  0.00    +0.000 C 
ATOM     15 CL   UNL     1       7.769   5.771  19.275  0.00  0.00    +0.000 Cl
ENDBRANCH  12  14
ENDBRANCH  11  12
BRANCH  11  16
ATOM     16  C   UNL     1       5.580   4.668  14.793  0.00  0.00    +0.000 C 
BRANCH  16  17
ATOM     17  C   UNL     1       6.491   4.006  13.732  0.00  0.00    +0.000 C 
ATOM     18  C   UNL     1       5.645   3.440  12.583  0.00  0.00    +0.000 C 
ATOM     19  C   UNL     1       7.534   4.954  13.138  0.00  0.00    +0.000 C 
ENDBRANCH  16  17
ENDBRANCH  11  16
ENDBRANCH   9  11
ENDBRANCH   5   7
ENDBRANCH   3   5
BRANCH   1  20
ATOM     20  C   UNL     1       2.172   8.008  17.988  0.00  0.00    +0.000 C 
BRANCH  20  23
ATOM     21  C   UNL     1       1.650  10.332  18.616  0.00  0.00    +0.000 C 
ATOM     22  O   UNL     1       2.290  10.770  17.654  0.00  0.00    +0.000 OA
ATOM     23  N   UNL     1       1.583   8.983  18.886  0.00  0.00    +0.000 N 
ATOM     24  H   UNL     1       1.276   8.660  19.796  0.00  0.00    +0.000 HD
BRANCH  21  25
ATOM     25  C   UNL     1       0.893  11.258  19.596  0.00  0.00    +0.000 C 
BRANCH  25  29
ATOM     26  C   UNL     1       1.763  14.963  19.413  0.00  0.00    +0.000 C 
ATOM     27  C   UNL     1       1.658  13.592  20.022  0.00  0.00    +0.000 C 
ATOM     28  O   UNL     1       2.011  13.360  21.174  0.00  0.00    +0.000 OA
ATOM     29  N   UNL     1       1.134  12.642  19.187  0.00  0.00    +0.000 N 
ATOM     30  H   UNL     1       0.932  12.863  18.215  0.00  0.00    +0.000 HD
ENDBRANCH  25  29
BRANCH  25  31
ATOM     31  C   UNL     1      -0.605  10.907  19.705  0.00  0.00    +0.000 C 
BRANCH  31  32
ATOM     32  C   UNL     1      -1.375  11.634  20.787  0.00  0.00    +0.000 A 
ATOM     33  C   UNL     1      -1.068  11.433  22.141  0.00  0.00    +0.000 A 
ATOM     34  C   UNL     1      -1.756  12.132  23.134  0.00  0.00    +0.000 A 
ATOM     35  C   UNL     1      -2.754  13.039  22.787  0.00  0.00    +0.000 A 
ATOM     36  C   UNL     1      -3.073  13.241  21.446  0.00  0.00    +0.000 A 
ATOM     37  C   UNL     1      -2.388  12.541  20.451  0.00  0.00    +0.000 A 
ENDBRANCH  31  32
ENDBRANCH  25  31
ENDBRANCH  21  25
ENDBRANCH  20  23
ENDBRANCH   1  20
TORSDOF 13
ENDMDL
MODEL 2
REMARK VINA RESULT:      -7.0      2.074      2.702
REMARK  Name = 
REMARK  17 active torsions:
REMARK  status: ('A' for Active; 'I' for Inactive)
REMARK    1  A    between atoms: C_1  and  C_2
REMARK    2  A    between atoms: N_4  and  C_5
REMARK    3  A    between atoms: C_5  and  C_6
REMARK    4  A    between atoms: C_5  and  C_13
REMARK    5  A    between atoms: C_6  and  C_7
REMARK    6  A    between atoms: N_15  and  C_16
REMARK    7  A    between atoms: C_16  and  C_17
REMARK    8  A    between atoms: N_19  and  C_20
REMARK    9  A    between atoms: C_20  and  C_21
REMARK   10  A    between atoms: C_20  and  C_22
REMARK   11  A    between atoms: N_24  and  C_25
REMARK   12  A    between atoms: C_25  and  C_26
REMARK   13  A    between atoms: C_25  and  C_30
REMARK   14  A    between atoms: C_26  and  C_27
REMARK   15  A    between atoms: C_27  and  C_28
REMARK   16  A    between atoms: C_27  and  C_29
REMARK   17  A    between atoms: C_30  and  C_32
REMARK                            x       y       z     vdW  Elec       q    Type
REMARK                         _______ _______ _______ _____ _____    ______ ____
ROOT
ATOM      1  C   UNL     1       2.222   7.864  18.904  0.00  0.00    +0.000 C 
ATOM      2  O   UNL     1       1.954   7.887  20.102  0.00  0.00    +0.000 OA
ATOM      3  N   UNL     1       2.806   6.785  18.281  0.00  0.00    +0.000 N 
ATOM      4  H   UNL     1       3.227   6.910  17.360  0.00  0.00    +0.000 HD
ENDROOT
BRANCH   3   5
ATOM      5  C   UNL     1       3.106   5.553  18.999  0.00  0.00    +0.000 C 
ATOM      6  C   UNL     1       2.163   4.432  18.576  0.00  0.00    +0.000 C 
BRANCH   5   7
ATOM      7  C   UNL     1       4.572   5.149  18.751  0.00  0.00    +0.000 C 
ATOM      8  O   UNL     1       5.085   4.151  19.253  0.00  0.00    +0.000 OA
ATOM      9  N   UNL     1       5.269   6.014  17.940  0.00  0.00    +0.000 N 
ATOM     10  H   UNL     1       4.797   6.821  17.538  0.00  0.00    +0.000 HD
BRANCH   9  11
ATOM     11  C   UNL     1       6.610   5.736  17.443  0.00  0.00    +0.000 C 
BRANCH  11  12
ATOM     12  C   UNL     1       7.557   6.739  18.114  0.00  0.00    +0.000 C 
ATOM     13  O   UNL     1       8.188   6.431  19.132  0.00  0.00    +0.000 OA
BRANCH  12  14
ATOM     14  C   UNL     1       7.691   8.105  17.488  0.00  0.00    +0.000 C 
ATOM     15 CL   UNL     1       8.632   9.161  18.546  0.00  0.00    +0.000 Cl
ENDBRANCH  12  14
ENDBRANCH  11  12
BRANCH  11  16
ATOM     16  C   UNL     1       6.711   5.747  15.904  0.00  0.00    +0.000 C 
BRANCH  16  17
ATOM     17  C   UNL     1       6.779   4.377  15.188  0.00  0.00    +0.000 C 
ATOM     18  C   UNL     1       5.590   3.499  15.605  0.00  0.00    +0.000 C 
ATOM     19  C   UNL     1       6.788   4.480  13.662  0.00  0.00    +0.000 C 
ENDBRANCH  16  17
ENDBRANCH  11  16
ENDBRANCH   9  11
ENDBRANCH   5   7
ENDBRANCH   3   5
BRANCH   1  20
ATOM     20  C   UNL     1       2.001   9.079  18.005  0.00  0.00    +0.000 C 
BRANCH  20  23
ATOM     21  C   UNL     1       1.291  11.344  18.663  0.00  0.00    +0.000 C 
ATOM     22  O   UNL     1       2.390  11.813  18.353  0.00  0.00    +0.000 OA
ATOM     23  N   UNL     1       1.030   9.994  18.574  0.00  0.00    +0.000 N 
ATOM     24  H   UNL     1       0.233   9.596  19.056  0.00  0.00    +0.000 HD
BRANCH  21  25
ATOM     25  C   UNL     1       0.134  12.224  19.191  0.00  0.00    +0.000 C 
BRANCH  25  29
ATOM     26  C   UNL     1       1.314  14.736  21.801  0.00  0.00    +0.000 C 
ATOM     27  C   UNL     1       0.710  13.463  21.276  0.00  0.00    +0.000 C 
ATOM     28  O   UNL     1       0.246  12.604  22.019  0.00  0.00    +0.000 OA
ATOM     29  N   UNL     1       0.720  13.355  19.911  0.00  0.00    +0.000 N 
ATOM     30  H   UNL     1       1.189  14.055  19.341  0.00  0.00    +0.000 HD
ENDBRANCH  25  29
BRANCH  25  31
ATOM     31  C   UNL     1      -0.841  12.652  18.074  0.00  0.00    +0.000 C 
BRANCH  31  32
ATOM     32  C   UNL     1      -2.090  11.809  17.932  0.00  0.00    +0.000 A 
ATOM     33  C   UNL     1      -2.108  10.696  17.078  0.00  0.00    +0.000 A 
ATOM     34  C   UNL     1      -3.250   9.900  16.976  0.00  0.00    +0.000 A 
ATOM     35  C   UNL     1      -4.383  10.204  17.726  0.00  0.00    +0.000 A 
ATOM     36  C   UNL     1      -4.380  11.312  18.572  0.00  0.00    +0.000 A 
ATOM     37  C   UNL     1      -3.240  12.111  18.672  0.00  0.00    +0.000 A 
ENDBRANCH  31  32
ENDBRANCH  25  31
ENDBRANCH  21  25
ENDBRANCH  20  23
ENDBRANCH   1  20
TORSDOF 13
ENDMDL
MODEL 3
REMARK VINA RESULT:      -6.9      3.807     10.403
REMARK  Name = 
REMARK  17 active torsions:
REMARK  status: ('A' for Active; 'I' for Inactive)
REMARK    1  A    between atoms: C_1  and  C_2
REMARK    2  A    between atoms: N_4  and  C_5
REMARK    3  A    between atoms: C_5  and  C_6
REMARK    4  A    between atoms: C_5  and  C_13
REMARK    5  A    between atoms: C_6  and  C_7
REMARK    6  A    between atoms: N_15  and  C_16
REMARK    7  A    between atoms: C_16  and  C_17
REMARK    8  A    between atoms: N_19  and  C_20
REMARK    9  A    between atoms: C_20  and  C_21
REMARK   10  A    between atoms: C_20  and  C_22
REMARK   11  A    between atoms: N_24  and  C_25
REMARK   12  A    between atoms: C_25  and  C_26
REMARK   13  A    between atoms: C_25  and  C_30
REMARK   14  A    between atoms: C_26  and  C_27
REMARK   15  A    between atoms: C_27  and  C_28
REMARK   16  A    between atoms: C_27  and  C_29
REMARK   17  A    between atoms: C_30  and  C_32
REMARK                            x       y       z     vdW  Elec       q    Type
REMARK                         _______ _______ _______ _____ _____    ______ ____
ROOT
ATOM      1  C   UNL     1       0.948   9.378  21.068  0.00  0.00    +0.000 C 
ATOM      2  O   UNL     1       1.502   9.923  22.019  0.00  0.00    +0.000 OA
ATOM      3  N   UNL     1       0.345  10.073  20.045  0.00  0.00    +0.000 N 
ATOM      4  H   UNL     1      -0.302   9.584  19.425  0.00  0.00    +0.000 HD
ENDROOT
BRANCH   3   5
ATOM      5  C   UNL     1       0.364  11.529  19.989  0.00  0.00    +0.000 C 
ATOM      6  C   UNL     1       1.696  12.037  19.450  0.00  0.00    +0.000 C 
BRANCH   5   7
ATOM      7  C   UNL     1      -0.800  12.032  19.115  0.00  0.00    +0.000 C 
ATOM      8  O   UNL     1      -0.660  12.880  18.237  0.00  0.00    +0.000 OA
ATOM      9  N   UNL     1      -2.019  11.469  19.416  0.00  0.00    +0.000 N 
ATOM     10  H   UNL     1      -2.083  10.762  20.145  0.00  0.00    +0.000 HD
BRANCH   9  11
ATOM     11  C   UNL     1      -3.214  11.674  18.608  0.00  0.00    +0.000 C 
BRANCH  11  12
ATOM     12  C   UNL     1      -4.249  12.370  19.502  0.00  0.00    +0.000 C 
ATOM     13  O   UNL     1      -5.454  12.332  19.224  0.00  0.00    +0.000 OA
BRANCH  12  14
ATOM     14  C   UNL     1      -3.746  13.095  20.725  0.00  0.00    +0.000 C 
ATOM     15 CL   UNL     1      -4.810  14.456  21.097  0.00  0.00    +0.000 Cl
ENDBRANCH  12  14
ENDBRANCH  11  12
BRANCH  11  16
ATOM     16  C   UNL     1      -3.749  10.381  17.960  0.00  0.00    +0.000 C 
BRANCH  16  17
ATOM     17  C   UNL     1      -3.086   9.925  16.638  0.00  0.00    +0.000 C 
ATOM     18  C   UNL     1      -3.294  10.984  15.545  0.00  0.00    +0.000 C 
ATOM     19  C   UNL     1      -1.586   9.653  16.763  0.00  0.00    +0.000 C 
ENDBRANCH  16  17
ENDBRANCH  11  16
ENDBRANCH   9  11
ENDBRANCH   5   7
ENDBRANCH   3   5
BRANCH   1  20
ATOM     20  C   UNL     1       0.811   7.860  20.978  0.00  0.00    +0.000 C 
BRANCH  20  23
ATOM     21  C   UNL     1       2.099   5.881  20.276  0.00  0.00    +0.000 C 
ATOM     22  O   UNL     1       1.230   5.120  20.713  0.00  0.00    +0.000 OA
ATOM     23  N   UNL     1       1.998   7.248  20.412  0.00  0.00    +0.000 N 
ATOM     24  H   UNL     1       2.814   7.835  20.280  0.00  0.00    +0.000 HD
BRANCH  21  25
ATOM     25  C   UNL     1       3.370   5.363  19.563  0.00  0.00    +0.000 C 
BRANCH  25  29
ATOM     26  C   UNL     1       3.398   1.706  18.495  0.00  0.00    +0.000 C 
ATOM     27  C   UNL     1       3.865   2.946  19.206  0.00  0.00    +0.000 C 
ATOM     28  O   UNL     1       4.877   2.961  19.899  0.00  0.00    +0.000 OA
ATOM     29  N   UNL     1       3.069   4.042  19.009  0.00  0.00    +0.000 N 
ATOM     30  H   UNL     1       2.196   3.961  18.493  0.00  0.00    +0.000 HD
ENDBRANCH  25  29
BRANCH  25  31
ATOM     31  C   UNL     1       3.906   6.357  18.511  0.00  0.00    +0.000 C 
BRANCH  31  32
ATOM     32  C   UNL     1       5.029   5.846  17.635  0.00  0.00    +0.000 A 
ATOM     33  C   UNL     1       6.294   5.577  18.178  0.00  0.00    +0.000 A 
ATOM     34  C   UNL     1       7.317   5.072  17.374  0.00  0.00    +0.000 A 
ATOM     35  C   UNL     1       7.089   4.829  16.022  0.00  0.00    +0.000 A 
ATOM     36  C   UNL     1       5.839   5.101  15.470  0.00  0.00    +0.000 A 
ATOM     37  C   UNL     1       4.815   5.608  16.272  0.00  0.00    +0.000 A 
ENDBRANCH  31  32
ENDBRANCH  25  31
ENDBRANCH  21  25
ENDBRANCH  20  23
ENDBRANCH   1  20
TORSDOF 13
ENDMDL
MODEL 4
REMARK VINA RESULT:      -6.9      1.418      1.583
REMARK  Name = 
REMARK  17 active torsions:
REMARK  status: ('A' for Active; 'I' for Inactive)
REMARK    1  A    between atoms: C_1  and  C_2
REMARK    2  A    between atoms: N_4  and  C_5
REMARK    3  A    between atoms: C_5  and  C_6
REMARK    4  A    between atoms: C_5  and  C_13
REMARK    5  A    between atoms: C_6  and  C_7
REMARK    6  A    between atoms: N_15  and  C_16
REMARK    7  A    between atoms: C_16  and  C_17
REMARK    8  A    between atoms: N_19  and  C_20
REMARK    9  A    between atoms: C_20  and  C_21
REMARK   10  A    between atoms: C_20  and  C_22
REMARK   11  A    between atoms: N_24  and  C_25
REMARK   12  A    between atoms: C_25  and  C_26
REMARK   13  A    between atoms: C_25  and  C_30
REMARK   14  A    between atoms: C_26  and  C_27
REMARK   15  A    between atoms: C_27  and  C_28
REMARK   16  A    between atoms: C_27  and  C_29
REMARK   17  A    between atoms: C_30  and  C_32
REMARK                            x       y       z     vdW  Elec       q    Type
REMARK                         _______ _______ _______ _____ _____    ______ ____
ROOT
ATOM      1  C   UNL     1       1.928   8.120  19.008  0.00  0.00    +0.000 C 
ATOM      2  O   UNL     1       2.017   8.275  20.223  0.00  0.00    +0.000 OA
ATOM      3  N   UNL     1       2.336   6.977  18.361  0.00  0.00    +0.000 N 
ATOM      4  H   UNL     1       2.469   6.998  17.349  0.00  0.00    +0.000 HD
ENDROOT
BRANCH   3   5
ATOM      5  C   UNL     1       2.864   5.829  19.087  0.00  0.00    +0.000 C 
ATOM      6  C   UNL     1       1.740   5.034  19.742  0.00  0.00    +0.000 C 
BRANCH   5   7
ATOM      7  C   UNL     1       3.673   4.934  18.130  0.00  0.00    +0.000 C 
ATOM      8  O   UNL     1       3.166   4.026  17.474  0.00  0.00    +0.000 OA
ATOM      9  N   UNL     1       5.018   5.220  18.087  0.00  0.00    +0.000 N 
ATOM     10  H   UNL     1       5.389   5.990  18.640  0.00  0.00    +0.000 HD
BRANCH   9  11
ATOM     11  C   UNL     1       5.933   4.613  17.129  0.00  0.00    +0.000 C 
BRANCH  11  12
ATOM     12  C   UNL     1       7.357   4.880  17.634  0.00  0.00    +0.000 C 
ATOM     13  O   UNL     1       8.291   4.133  17.319  0.00  0.00    +0.000 OA
BRANCH  12  14
ATOM     14  C   UNL     1       7.573   6.080  18.521  0.00  0.00    +0.000 C 
ATOM     15 CL   UNL     1       7.686   7.543  17.536  0.00  0.00    +0.000 Cl
ENDBRANCH  12  14
ENDBRANCH  11  12
BRANCH  11  16
ATOM     16  C   UNL     1       5.709   5.085  15.679  0.00  0.00    +0.000 C 
BRANCH  16  17
ATOM     17  C   UNL     1       6.366   4.252  14.553  0.00  0.00    +0.000 C 
ATOM     18  C   UNL     1       5.309   3.812  13.529  0.00  0.00    +0.000 C 
ATOM     19  C   UNL     1       7.477   4.994  13.806  0.00  0.00    +0.000 C 
ENDBRANCH  16  17
ENDBRANCH  11  16
ENDBRANCH   9  11
ENDBRANCH   5   7
ENDBRANCH   3   5
BRANCH   1  20
ATOM     20  C   UNL     1       1.423   9.230  18.089  0.00  0.00    +0.000 C 
BRANCH  20  23
ATOM     21  C   UNL     1       0.083  10.819  19.410  0.00  0.00    +0.000 C 
ATOM     22  O   UNL     1      -0.924  10.112  19.298  0.00  0.00    +0.000 OA
ATOM     23  N   UNL     1       1.272  10.485  18.799  0.00  0.00    +0.000 N 
ATOM     24  H   UNL     1       2.001  11.180  18.690  0.00  0.00    +0.000 HD
BRANCH  21  25
ATOM     25  C   UNL     1       0.084  12.135  20.222  0.00  0.00    +0.000 C 
BRANCH  25  29
ATOM     26  C   UNL     1       3.176  14.360  20.250  0.00  0.00    +0.000 C 
ATOM     27  C   UNL     1       1.961  13.668  20.804  0.00  0.00    +0.000 C 
ATOM     28  O   UNL     1       1.587  13.829  21.961  0.00  0.00    +0.000 OA
ATOM     29  N   UNL     1       1.317  12.858  19.909  0.00  0.00    +0.000 N 
ATOM     30  H   UNL     1       1.710  12.692  18.985  0.00  0.00    +0.000 HD
ENDBRANCH  25  29
BRANCH  25  31
ATOM     31  C   UNL     1      -1.190  12.975  19.992  0.00  0.00    +0.000 C 
BRANCH  31  32
ATOM     32  C   UNL     1      -2.243  12.884  21.075  0.00  0.00    +0.000 A 
ATOM     33  C   UNL     1      -1.880  12.916  22.430  0.00  0.00    +0.000 A 
ATOM     34  C   UNL     1      -2.857  12.867  23.426  0.00  0.00    +0.000 A 
ATOM     35  C   UNL     1      -4.204  12.790  23.082  0.00  0.00    +0.000 A 
ATOM     36  C   UNL     1      -4.576  12.750  21.740  0.00  0.00    +0.000 A 
ATOM     37  C   UNL     1      -3.601  12.794  20.742  0.00  0.00    +0.000 A 
ENDBRANCH  31  32
ENDBRANCH  25  31
ENDBRANCH  21  25
ENDBRANCH  20  23
ENDBRANCH   1  20
TORSDOF 13
ENDMDL
MODEL 5
REMARK VINA RESULT:      -6.9      2.376      3.441
REMARK  Name = 
REMARK  17 active torsions:
REMARK  status: ('A' for Active; 'I' for Inactive)
REMARK    1  A    between atoms: C_1  and  C_2
REMARK    2  A    between atoms: N_4  and  C_5
REMARK    3  A    between atoms: C_5  and  C_6
REMARK    4  A    between atoms: C_5  and  C_13
REMARK    5  A    between atoms: C_6  and  C_7
REMARK    6  A    between atoms: N_15  and  C_16
REMARK    7  A    between atoms: C_16  and  C_17
REMARK    8  A    between atoms: N_19  and  C_20
REMARK    9  A    between atoms: C_20  and  C_21
REMARK   10  A    between atoms: C_20  and  C_22
REMARK   11  A    between atoms: N_24  and  C_25
REMARK   12  A    between atoms: C_25  and  C_26
REMARK   13  A    between atoms: C_25  and  C_30
REMARK   14  A    between atoms: C_26  and  C_27
REMARK   15  A    between atoms: C_27  and  C_28
REMARK   16  A    between atoms: C_27  and  C_29
REMARK   17  A    between atoms: C_30  and  C_32
REMARK                            x       y       z     vdW  Elec       q    Type
REMARK                         _______ _______ _______ _____ _____    ______ ____
ROOT
ATOM      1  C   UNL     1       2.073   6.432  20.052  0.00  0.00    +0.000 C 
ATOM      2  O   UNL     1       1.702   5.443  20.677  0.00  0.00    +0.000 OA
ATOM      3  N   UNL     1       2.778   6.361  18.873  0.00  0.00    +0.000 N 
ATOM      4  H   UNL     1       3.267   7.190  18.533  0.00  0.00    +0.000 HD
ENDROOT
BRANCH   3   5
ATOM      5  C   UNL     1       3.096   5.085  18.244  0.00  0.00    +0.000 C 
ATOM      6  C   UNL     1       1.847   4.441  17.653  0.00  0.00    +0.000 C 
BRANCH   5   7
ATOM      7  C   UNL     1       4.164   5.294  17.154  0.00  0.00    +0.000 C 
ATOM      8  O   UNL     1       4.410   6.393  16.661  0.00  0.00    +0.000 OA
ATOM      9  N   UNL     1       4.804   4.142  16.759  0.00  0.00    +0.000 N 
ATOM     10  H   UNL     1       4.574   3.257  17.205  0.00  0.00    +0.000 HD
BRANCH   9  11
ATOM     11  C   UNL     1       5.958   4.136  15.869  0.00  0.00    +0.000 C 
BRANCH  11  12
ATOM     12  C   UNL     1       7.028   5.027  16.512  0.00  0.00    +0.000 C 
ATOM     13  O   UNL     1       7.454   6.030  15.924  0.00  0.00    +0.000 OA
BRANCH  12  14
ATOM     14  C   UNL     1       7.536   4.640  17.878  0.00  0.00    +0.000 C 
ATOM     15 CL   UNL     1       7.853   6.092  18.834  0.00  0.00    +0.000 Cl
ENDBRANCH  12  14
ENDBRANCH  11  12
BRANCH  11  16
ATOM     16  C   UNL     1       5.621   4.545  14.421  0.00  0.00    +0.000 C 
BRANCH  16  17
ATOM     17  C   UNL     1       6.382   3.821  13.285  0.00  0.00    +0.000 C 
ATOM     18  C   UNL     1       5.396   3.313  12.223  0.00  0.00    +0.000 C 
ATOM     19  C   UNL     1       7.426   4.696  12.589  0.00  0.00    +0.000 C 
ENDBRANCH  16  17
ENDBRANCH  11  16
ENDBRANCH   9  11
ENDBRANCH   5   7
ENDBRANCH   3   5
BRANCH   1  20
ATOM     20  C   UNL     1       1.849   7.848  20.578  0.00  0.00    +0.000 C 
BRANCH  20  23
ATOM     21  C   UNL     1       0.483   9.675  19.648  0.00  0.00    +0.000 C 
ATOM     22  O   UNL     1      -0.250   9.676  20.643  0.00  0.00    +0.000 OA
ATOM     23  N   UNL     1       1.512   8.769  19.510  0.00  0.00    +0.000 N 
ATOM     24  H   UNL     1       1.936   8.614  18.602  0.00  0.00    +0.000 HD
BRANCH  21  25
ATOM     25  C   UNL     1       0.293  10.669  18.479  0.00  0.00    +0.000 C 
BRANCH  25  29
ATOM     26  C   UNL     1      -2.866   9.854  16.512  0.00  0.00    +0.000 C 
ATOM     27  C   UNL     1      -1.980  10.617  17.458  0.00  0.00    +0.000 C 
ATOM     28  O   UNL     1      -2.375  11.603  18.072  0.00  0.00    +0.000 OA
ATOM     29  N   UNL     1      -0.713  10.113  17.573  0.00  0.00    +0.000 N 
ATOM     30  H   UNL     1      -0.407   9.344  16.982  0.00  0.00    +0.000 HD
ENDBRANCH  25  29
BRANCH  25  31
ATOM     31  C   UNL     1      -0.045  12.095  18.964  0.00  0.00    +0.000 C 
BRANCH  31  32
ATOM     32  C   UNL     1       1.127  13.047  19.073  0.00  0.00    +0.000 A 
ATOM     33  C   UNL     1       2.207  12.958  18.182  0.00  0.00    +0.000 A 
ATOM     34  C   UNL     1       3.269  13.861  18.265  0.00  0.00    +0.000 A 
ATOM     35  C   UNL     1       3.263  14.861  19.233  0.00  0.00    +0.000 A 
ATOM     36  C   UNL     1       2.200  14.954  20.128  0.00  0.00    +0.000 A 
ATOM     37  C   UNL     1       1.138  14.051  20.050  0.00  0.00    +0.000 A 
ENDBRANCH  31  32
ENDBRANCH  25  31
ENDBRANCH  21  25
ENDBRANCH  20  23
ENDBRANCH   1  20
TORSDOF 13
ENDMDL
MODEL 6
REMARK VINA RESULT:      -6.8      2.407      3.672
REMARK  Name = 
REMARK  17 active torsions:
REMARK  status: ('A' for Active; 'I' for Inactive)
REMARK    1  A    between atoms: C_1  and  C_2
REMARK    2  A    between atoms: N_4  and  C_5
REMARK    3  A    between atoms: C_5  and  C_6
REMARK    4  A    between atoms: C_5  and  C_13
REMARK    5  A    between atoms: C_6  and  C_7
REMARK    6  A    between atoms: N_15  and  C_16
REMARK    7  A    between atoms: C_16  and  C_17
REMARK    8  A    between atoms: N_19  and  C_20
REMARK    9  A    between atoms: C_20  and  C_21
REMARK   10  A    between atoms: C_20  and  C_22
REMARK   11  A    between atoms: N_24  and  C_25
REMARK   12  A    between atoms: C_25  and  C_26
REMARK   13  A    between atoms: C_25  and  C_30
REMARK   14  A    between atoms: C_26  and  C_27
REMARK   15  A    between atoms: C_27  and  C_28
REMARK   16  A    between atoms: C_27  and  C_29
REMARK   17  A    between atoms: C_30  and  C_32
REMARK                            x       y       z     vdW  Elec       q    Type
REMARK                         _______ _______ _______ _____ _____    ______ ____
ROOT
ATOM      1  C   UNL     1       1.719   6.366  20.531  0.00  0.00    +0.000 C 
ATOM      2  O   UNL     1       1.321   5.274  20.929  0.00  0.00    +0.000 OA
ATOM      3  N   UNL     1       2.518   6.520  19.422  0.00  0.00    +0.000 N 
ATOM      4  H   UNL     1       3.014   7.401  19.284  0.00  0.00    +0.000 HD
ENDROOT
BRANCH   3   5
ATOM      5  C   UNL     1       2.916   5.386  18.597  0.00  0.00    +0.000 C 
ATOM      6  C   UNL     1       1.726   4.832  17.822  0.00  0.00    +0.000 C 
BRANCH   5   7
ATOM      7  C   UNL     1       4.039   5.811  17.633  0.00  0.00    +0.000 C 
ATOM      8  O   UNL     1       4.133   6.949  17.177  0.00  0.00    +0.000 OA
ATOM      9  N   UNL     1       4.917   4.804  17.306  0.00  0.00    +0.000 N 
ATOM     10  H   UNL     1       4.805   3.881  17.719  0.00  0.00    +0.000 HD
BRANCH   9  11
ATOM     11  C   UNL     1       6.141   5.028  16.549  0.00  0.00    +0.000 C 
BRANCH  11  12
ATOM     12  C   UNL     1       6.027   4.214  15.254  0.00  0.00    +0.000 C 
ATOM     13  O   UNL     1       5.887   2.985  15.288  0.00  0.00    +0.000 OA
BRANCH  12  14
ATOM     14  C   UNL     1       6.087   4.963  13.946  0.00  0.00    +0.000 C 
ATOM     15 CL   UNL     1       7.772   5.231  13.485  0.00  0.00    +0.000 Cl
ENDBRANCH  12  14
ENDBRANCH  11  12
BRANCH  11  16
ATOM     16  C   UNL     1       7.424   4.716  17.346  0.00  0.00    +0.000 C 
BRANCH  16  17
ATOM     17  C   UNL     1       7.927   5.798  18.331  0.00  0.00    +0.000 C 
ATOM     18  C   UNL     1       7.582   7.199  17.805  0.00  0.00    +0.000 C 
ATOM     19  C   UNL     1       7.353   5.661  19.742  0.00  0.00    +0.000 C 
ENDBRANCH  16  17
ENDBRANCH  11  16
ENDBRANCH   9  11
ENDBRANCH   5   7
ENDBRANCH   3   5
BRANCH   1  20
ATOM     20  C   UNL     1       1.420   7.658  21.289  0.00  0.00    +0.000 C 
BRANCH  20  23
ATOM     21  C   UNL     1       0.298   9.797  20.810  0.00  0.00    +0.000 C 
ATOM     22  O   UNL     1      -0.206   9.822  21.938  0.00  0.00    +0.000 OA
ATOM     23  N   UNL     1       1.072   8.739  20.387  0.00  0.00    +0.000 N 
ATOM     24  H   UNL     1       1.267   8.611  19.401  0.00  0.00    +0.000 HD
BRANCH  21  25
ATOM     25  C   UNL     1       0.087  10.934  19.784  0.00  0.00    +0.000 C 
BRANCH  25  29
ATOM     26  C   UNL     1       2.649  13.633  20.602  0.00  0.00    +0.000 C 
ATOM     27  C   UNL     1       1.401  12.810  20.767  0.00  0.00    +0.000 C 
ATOM     28  O   UNL     1       0.589  13.027  21.661  0.00  0.00    +0.000 OA
ATOM     29  N   UNL     1       1.254  11.815  19.839  0.00  0.00    +0.000 N 
ATOM     30  H   UNL     1       1.993  11.622  19.167  0.00  0.00    +0.000 HD
ENDBRANCH  25  29
BRANCH  25  31
ATOM     31  C   UNL     1      -0.210  10.404  18.365  0.00  0.00    +0.000 C 
BRANCH  31  32
ATOM     32  C   UNL     1      -1.624  10.613  17.867  0.00  0.00    +0.000 A 
ATOM     33  C   UNL     1      -2.082   9.956  16.716  0.00  0.00    +0.000 A 
ATOM     34  C   UNL     1      -3.397  10.123  16.280  0.00  0.00    +0.000 A 
ATOM     35  C   UNL     1      -4.269  10.945  16.989  0.00  0.00    +0.000 A 
ATOM     36  C   UNL     1      -3.824  11.609  18.130  0.00  0.00    +0.000 A 
ATOM     37  C   UNL     1      -2.508  11.446  18.565  0.00  0.00    +0.000 A 
ENDBRANCH  31  32
ENDBRANCH  25  31
ENDBRANCH  21  25
ENDBRANCH  20  23
ENDBRANCH   1  20
TORSDOF 13
ENDMDL
MODEL 7
REMARK VINA RESULT:      -6.8      3.473     11.474
REMARK  Name = 
REMARK  17 active torsions:
REMARK  status: ('A' for Active; 'I' for Inactive)
REMARK    1  A    between atoms: C_1  and  C_2
REMARK    2  A    between atoms: N_4  and  C_5
REMARK    3  A    between atoms: C_5  and  C_6
REMARK    4  A    between atoms: C_5  and  C_13
REMARK    5  A    between atoms: C_6  and  C_7
REMARK    6  A    between atoms: N_15  and  C_16
REMARK    7  A    between atoms: C_16  and  C_17
REMARK    8  A    between atoms: N_19  and  C_20
REMARK    9  A    between atoms: C_20  and  C_21
REMARK   10  A    between atoms: C_20  and  C_22
REMARK   11  A    between atoms: N_24  and  C_25
REMARK   12  A    between atoms: C_25  and  C_26
REMARK   13  A    between atoms: C_25  and  C_30
REMARK   14  A    between atoms: C_26  and  C_27
REMARK   15  A    between atoms: C_27  and  C_28
REMARK   16  A    between atoms: C_27  and  C_29
REMARK   17  A    between atoms: C_30  and  C_32
REMARK                            x       y       z     vdW  Elec       q    Type
REMARK                         _______ _______ _______ _____ _____    ______ ____
ROOT
ATOM      1  C   UNL     1       1.216   9.142  21.389  0.00  0.00    +0.000 C 
ATOM      2  O   UNL     1       1.604   9.495  22.500  0.00  0.00    +0.000 OA
ATOM      3  N   UNL     1       0.895  10.025  20.385  0.00  0.00    +0.000 N 
ATOM      4  H   UNL     1       0.352   9.696  19.586  0.00  0.00    +0.000 HD
ENDROOT
BRANCH   3   5
ATOM      5  C   UNL     1       1.045  11.466  20.551  0.00  0.00    +0.000 C 
ATOM      6  C   UNL     1       1.615  12.104  19.290  0.00  0.00    +0.000 C 
BRANCH   5   7
ATOM      7  C   UNL     1      -0.315  12.093  20.909  0.00  0.00    +0.000 C 
ATOM      8  O   UNL     1      -1.390  11.574  20.611  0.00  0.00    +0.000 OA
ATOM      9  N   UNL     1      -0.229  13.296  21.569  0.00  0.00    +0.000 N 
ATOM     10  H   UNL     1       0.684  13.680  21.804  0.00  0.00    +0.000 HD
BRANCH   9  11
ATOM     11  C   UNL     1      -1.382  13.974  22.146  0.00  0.00    +0.000 C 
BRANCH  11  12
ATOM     12  C   UNL     1      -1.037  15.468  22.219  0.00  0.00    +0.000 C 
ATOM     13  O   UNL     1      -0.020  15.855  22.807  0.00  0.00    +0.000 OA
BRANCH  12  14
ATOM     14  C   UNL     1      -1.978  16.439  21.550  0.00  0.00    +0.000 C 
ATOM     15 CL   UNL     1      -3.368  15.571  20.889  0.00  0.00    +0.000 Cl
ENDBRANCH  12  14
ENDBRANCH  11  12
BRANCH  11  16
ATOM     16  C   UNL     1      -1.824  13.391  23.503  0.00  0.00    +0.000 C 
BRANCH  16  17
ATOM     17  C   UNL     1      -3.179  13.873  24.074  0.00  0.00    +0.000 C 
ATOM     18  C   UNL     1      -4.058  12.670  24.447  0.00  0.00    +0.000 C 
ATOM     19  C   UNL     1      -3.044  14.768  25.306  0.00  0.00    +0.000 C 
ENDBRANCH  16  17
ENDBRANCH  11  16
ENDBRANCH   9  11
ENDBRANCH   5   7
ENDBRANCH   3   5
BRANCH   1  20
ATOM     20  C   UNL     1       0.976   7.672  21.050  0.00  0.00    +0.000 C 
BRANCH  20  23
ATOM     21  C   UNL     1       2.223   5.696  20.271  0.00  0.00    +0.000 C 
ATOM     22  O   UNL     1       1.331   4.938  20.663  0.00  0.00    +0.000 OA
ATOM     23  N   UNL     1       2.154   7.058  20.469  0.00  0.00    +0.000 N 
ATOM     24  H   UNL     1       2.985   7.630  20.372  0.00  0.00    +0.000 HD
BRANCH  21  25
ATOM     25  C   UNL     1       3.489   5.180  19.548  0.00  0.00    +0.000 C 
BRANCH  25  29
ATOM     26  C   UNL     1       3.426   1.543  18.417  0.00  0.00    +0.000 C 
ATOM     27  C   UNL     1       3.895   2.748  19.184  0.00  0.00    +0.000 C 
ATOM     28  O   UNL     1       4.852   2.703  19.951  0.00  0.00    +0.000 OA
ATOM     29  N   UNL     1       3.170   3.884  18.948  0.00  0.00    +0.000 N 
ATOM     30  H   UNL     1       2.335   3.854  18.368  0.00  0.00    +0.000 HD
ENDBRANCH  25  29
BRANCH  25  31
ATOM     31  C   UNL     1       4.050   6.200  18.534  0.00  0.00    +0.000 C 
BRANCH  31  32
ATOM     32  C   UNL     1       5.136   5.684  17.615  0.00  0.00    +0.000 A 
ATOM     33  C   UNL     1       6.368   5.259  18.131  0.00  0.00    +0.000 A 
ATOM     34  C   UNL     1       7.355   4.752  17.283  0.00  0.00    +0.000 A 
ATOM     35  C   UNL     1       7.121   4.660  15.914  0.00  0.00    +0.000 A 
ATOM     36  C   UNL     1       5.903   5.087  15.388  0.00  0.00    +0.000 A 
ATOM     37  C   UNL     1       4.916   5.598  16.234  0.00  0.00    +0.000 A 
ENDBRANCH  31  32
ENDBRANCH  25  31
ENDBRANCH  21  25
ENDBRANCH  20  23
ENDBRANCH   1  20
TORSDOF 13
ENDMDL
MODEL 8
REMARK VINA RESULT:      -6.8      3.228     11.167
REMARK  Name = 
REMARK  17 active torsions:
REMARK  status: ('A' for Active; 'I' for Inactive)
REMARK    1  A    between atoms: C_1  and  C_2
REMARK    2  A    between atoms: N_4  and  C_5
REMARK    3  A    between atoms: C_5  and  C_6
REMARK    4  A    between atoms: C_5  and  C_13
REMARK    5  A    between atoms: C_6  and  C_7
REMARK    6  A    between atoms: N_15  and  C_16
REMARK    7  A    between atoms: C_16  and  C_17
REMARK    8  A    between atoms: N_19  and  C_20
REMARK    9  A    between atoms: C_20  and  C_21
REMARK   10  A    between atoms: C_20  and  C_22
REMARK   11  A    between atoms: N_24  and  C_25
REMARK   12  A    between atoms: C_25  and  C_26
REMARK   13  A    between atoms: C_25  and  C_30
REMARK   14  A    between atoms: C_26  and  C_27
REMARK   15  A    between atoms: C_27  and  C_28
REMARK   16  A    between atoms: C_27  and  C_29
REMARK   17  A    between atoms: C_30  and  C_32
REMARK                            x       y       z     vdW  Elec       q    Type
REMARK                         _______ _______ _______ _____ _____    ______ ____
ROOT
ATOM      1  C   UNL     1       0.796   9.762  19.166  0.00  0.00    +0.000 C 
ATOM      2  O   UNL     1       1.488  10.197  18.250  0.00  0.00    +0.000 OA
ATOM      3  N   UNL     1      -0.428  10.290  19.505  0.00  0.00    +0.000 N 
ATOM      4  H   UNL     1      -0.837  10.058  20.411  0.00  0.00    +0.000 HD
ENDROOT
BRANCH   3   5
ATOM      5  C   UNL     1      -1.024  11.390  18.757  0.00  0.00    +0.000 C 
ATOM      6  C   UNL     1      -2.269  10.927  18.008  0.00  0.00    +0.000 C 
BRANCH   5   7
ATOM      7  C   UNL     1      -1.367  12.546  19.714  0.00  0.00    +0.000 C 
ATOM      8  O   UNL     1      -1.157  13.726  19.440  0.00  0.00    +0.000 OA
ATOM      9  N   UNL     1      -1.905  12.148  20.915  0.00  0.00    +0.000 N 
ATOM     10  H   UNL     1      -2.071  11.159  21.092  0.00  0.00    +0.000 HD
BRANCH   9  11
ATOM     11  C   UNL     1      -2.454  13.079  21.892  0.00  0.00    +0.000 C 
BRANCH  11  12
ATOM     12  C   UNL     1      -1.428  13.200  23.026  0.00  0.00    +0.000 C 
ATOM     13  O   UNL     1      -0.561  12.334  23.191  0.00  0.00    +0.000 OA
BRANCH  12  14
ATOM     14  C   UNL     1      -1.515  14.408  23.925  0.00  0.00    +0.000 C 
ATOM     15 CL   UNL     1      -1.879  15.847  22.965  0.00  0.00    +0.000 Cl
ENDBRANCH  12  14
ENDBRANCH  11  12
BRANCH  11  16
ATOM     16  C   UNL     1      -3.861  12.691  22.390  0.00  0.00    +0.000 C 
BRANCH  16  17
ATOM     17  C   UNL     1      -5.071  13.320  21.659  0.00  0.00    +0.000 C 
ATOM     18  C   UNL     1      -4.615  14.515  20.808  0.00  0.00    +0.000 C 
ATOM     19  C   UNL     1      -5.817  12.342  20.750  0.00  0.00    +0.000 C 
ENDBRANCH  16  17
ENDBRANCH  11  16
ENDBRANCH   9  11
ENDBRANCH   5   7
ENDBRANCH   3   5
BRANCH   1  20
ATOM     20  C   UNL     1       1.278   8.631  20.072  0.00  0.00    +0.000 C 
BRANCH  20  23
ATOM     21  C   UNL     1       2.367   6.451  19.711  0.00  0.00    +0.000 C 
ATOM     22  O   UNL     1       1.715   5.938  20.626  0.00  0.00    +0.000 OA
ATOM     23  N   UNL     1       2.253   7.790  19.405  0.00  0.00    +0.000 N 
ATOM     24  H   UNL     1       2.958   8.245  18.837  0.00  0.00    +0.000 HD
BRANCH  21  25
ATOM     25  C   UNL     1       3.371   5.644  18.856  0.00  0.00    +0.000 C 
BRANCH  25  29
ATOM     26  C   UNL     1       2.320   2.062  18.091  0.00  0.00    +0.000 C 
ATOM     27  C   UNL     1       3.125   3.167  18.719  0.00  0.00    +0.000 C 
ATOM     28  O   UNL     1       4.084   2.943  19.452  0.00  0.00    +0.000 OA
ATOM     29  N   UNL     1       2.698   4.427  18.399  0.00  0.00    +0.000 N 
ATOM     30  H   UNL     1       1.850   4.563  17.854  0.00  0.00    +0.000 HD
ENDBRANCH  25  29
BRANCH  25  31
ATOM     31  C   UNL     1       3.973   6.477  17.705  0.00  0.00    +0.000 C 
BRANCH  31  32
ATOM     32  C   UNL     1       5.133   5.841  16.969  0.00  0.00    +0.000 A 
ATOM     33  C   UNL     1       6.149   5.179  17.672  0.00  0.00    +0.000 A 
ATOM     34  C   UNL     1       7.199   4.563  16.988  0.00  0.00    +0.000 A 
ATOM     35  C   UNL     1       7.244   4.601  15.597  0.00  0.00    +0.000 A 
ATOM     36  C   UNL     1       6.244   5.263  14.888  0.00  0.00    +0.000 A 
ATOM     37  C   UNL     1       5.195   5.882  15.570  0.00  0.00    +0.000 A 
ENDBRANCH  31  32
ENDBRANCH  25  31
ENDBRANCH  21  25
ENDBRANCH  20  23
ENDBRANCH   1  20
TORSDOF 13
ENDMDL
MODEL 9
REMARK VINA RESULT:      -6.7      3.486     11.084
REMARK  Name = 
REMARK  17 active torsions:
REMARK  status: ('A' for Active; 'I' for Inactive)
REMARK    1  A    between atoms: C_1  and  C_2
REMARK    2  A    between atoms: N_4  and  C_5
REMARK    3  A    between atoms: C_5  and  C_6
REMARK    4  A    between atoms: C_5  and  C_13
REMARK    5  A    between atoms: C_6  and  C_7
REMARK    6  A    between atoms: N_15  and  C_16
REMARK    7  A    between atoms: C_16  and  C_17
REMARK    8  A    between atoms: N_19  and  C_20
REMARK    9  A    between atoms: C_20  and  C_21
REMARK   10  A    between atoms: C_20  and  C_22
REMARK   11  A    between atoms: N_24  and  C_25
REMARK   12  A    between atoms: C_25  and  C_26
REMARK   13  A    between atoms: C_25  and  C_30
REMARK   14  A    between atoms: C_26  and  C_27
REMARK   15  A    between atoms: C_27  and  C_28
REMARK   16  A    between atoms: C_27  and  C_29
REMARK   17  A    between atoms: C_30  and  C_32
REMARK                            x       y       z     vdW  Elec       q    Type
REMARK                         _______ _______ _______ _____ _____    ______ ____
ROOT
ATOM      1  C   UNL     1       0.809   9.603  19.281  0.00  0.00    +0.000 C 
ATOM      2  O   UNL     1       1.541  10.019  18.386  0.00  0.00    +0.000 OA
ATOM      3  N   UNL     1      -0.467  10.071  19.492  0.00  0.00    +0.000 N 
ATOM      4  H   UNL     1      -0.928   9.875  20.381  0.00  0.00    +0.000 HD
ENDROOT
BRANCH   3   5
ATOM      5  C   UNL     1      -1.072  11.072  18.623  0.00  0.00    +0.000 C 
ATOM      6  C   UNL     1      -2.375  10.558  18.022  0.00  0.00    +0.000 C 
BRANCH   5   7
ATOM      7  C   UNL     1      -1.317  12.370  19.417  0.00  0.00    +0.000 C 
ATOM      8  O   UNL     1      -0.642  13.385  19.263  0.00  0.00    +0.000 OA
ATOM      9  N   UNL     1      -2.341  12.290  20.331  0.00  0.00    +0.000 N 
ATOM     10  H   UNL     1      -2.880  11.431  20.414  0.00  0.00    +0.000 HD
BRANCH   9  11
ATOM     11  C   UNL     1      -2.849  13.444  21.062  0.00  0.00    +0.000 C 
BRANCH  11  12
ATOM     12  C   UNL     1      -2.377  13.301  22.515  0.00  0.00    +0.000 C 
ATOM     13  O   UNL     1      -1.668  14.169  23.039  0.00  0.00    +0.000 OA
BRANCH  12  14
ATOM     14  C   UNL     1      -2.808  12.072  23.275  0.00  0.00    +0.000 C 
ATOM     15 CL   UNL     1      -4.083  12.493  24.424  0.00  0.00    +0.000 Cl
ENDBRANCH  12  14
ENDBRANCH  11  12
BRANCH  11  16
ATOM     16  C   UNL     1      -4.375  13.627  20.940  0.00  0.00    +0.000 C 
BRANCH  16  17
ATOM     17  C   UNL     1      -5.189  12.440  20.372  0.00  0.00    +0.000 C 
ATOM     18  C   UNL     1      -6.460  12.219  21.205  0.00  0.00    +0.000 C 
ATOM     19  C   UNL     1      -5.599  12.618  18.909  0.00  0.00    +0.000 C 
ENDBRANCH  16  17
ENDBRANCH  11  16
ENDBRANCH   9  11
ENDBRANCH   5   7
ENDBRANCH   3   5
BRANCH   1  20
ATOM     20  C   UNL     1       1.290   8.572  20.300  0.00  0.00    +0.000 C 
BRANCH  20  23
ATOM     21  C   UNL     1       2.188   6.287  20.108  0.00  0.00    +0.000 C 
ATOM     22  O   UNL     1       1.502   5.903  21.060  0.00  0.00    +0.000 OA
ATOM     23  N   UNL     1       2.185   7.603  19.699  0.00  0.00    +0.000 N 
ATOM     24  H   UNL     1       2.922   7.951  19.096  0.00  0.00    +0.000 HD
BRANCH  21  25
ATOM     25  C   UNL     1       3.113   5.334  19.316  0.00  0.00    +0.000 C 
BRANCH  25  29
ATOM     26  C   UNL     1       1.033   2.216  18.633  0.00  0.00    +0.000 C 
ATOM     27  C   UNL     1       1.572   3.601  18.403  0.00  0.00    +0.000 C 
ATOM     28  O   UNL     1       1.198   4.301  17.467  0.00  0.00    +0.000 OA
ATOM     29  N   UNL     1       2.502   4.004  19.322  0.00  0.00    +0.000 N 
ATOM     30  H   UNL     1       2.841   3.359  20.032  0.00  0.00    +0.000 HD
ENDBRANCH  25  29
BRANCH  25  31
ATOM     31  C   UNL     1       3.426   5.854  17.898  0.00  0.00    +0.000 C 
BRANCH  31  32
ATOM     32  C   UNL     1       4.776   5.462  17.336  0.00  0.00    +0.000 A 
ATOM     33  C   UNL     1       5.045   5.591  15.966  0.00  0.00    +0.000 A 
ATOM     34  C   UNL     1       6.303   5.261  15.457  0.00  0.00    +0.000 A 
ATOM     35  C   UNL     1       7.303   4.802  16.309  0.00  0.00    +0.000 A 
ATOM     36  C   UNL     1       7.045   4.663  17.671  0.00  0.00    +0.000 A 
ATOM     37  C   UNL     1       5.787   4.989  18.181  0.00  0.00    +0.000 A 
ENDBRANCH  31  32
ENDBRANCH  25  31
ENDBRANCH  21  25
ENDBRANCH  20  23
ENDBRANCH   1  20
TORSDOF 13
ENDMDL
