MODEL 1
REMARK VINA RESULT:      -8.4      0.000      0.000
REMARK  Name = 
REMARK  2 active torsions:
REMARK  status: ('A' for Active; 'I' for Inactive)
REMARK    1  A    between atoms: C_4  and  C_5
REMARK    2  A    between atoms: C_16  and  O_17
REMARK                            x       y       z     vdW  Elec       q    Type
REMARK                         _______ _______ _______ _____ _____    ______ ____
ROOT
ATOM      1  O   UNL     1       2.286   3.735  20.221  0.00  0.00    +0.000 OA
ATOM      2  C   UNL     1       3.018   4.273  19.399  0.00  0.00    +0.000 C 
ATOM      3  C   UNL     1       2.516   4.838  18.104  0.00  0.00    +0.000 C 
ATOM      4  C   UNL     1       3.171   6.166  17.756  0.00  0.00    +0.000 C 
ATOM      5  C   UNL     1       4.663   6.105  17.958  0.00  0.00    +0.000 A 
ATOM      6  C   UNL     1       5.525   7.006  17.319  0.00  0.00    +0.000 A 
ATOM      7  C   UNL     1       6.904   6.870  17.471  0.00  0.00    +0.000 A 
ATOM      8  C   UNL     1       7.440   5.845  18.249  0.00  0.00    +0.000 A 
ATOM      9  C   UNL     1       6.588   4.967  18.913  0.00  0.00    +0.000 A 
ATOM     10  C   UNL     1       5.210   5.116  18.772  0.00  0.00    +0.000 A 
ATOM     11  O   UNL     1       4.401   4.263  19.542  0.00  0.00    +0.000 OA
ENDROOT
BRANCH   4  12
ATOM     12  C   UNL     1       2.473   7.352  18.404  0.00  0.00    +0.000 A 
ATOM     13  C   UNL     1       2.043   8.487  17.676  0.00  0.00    +0.000 A 
ATOM     14  C   UNL     1       1.337   9.522  18.308  0.00  0.00    +0.000 A 
ATOM     15  C   UNL     1       1.070   9.389  19.653  0.00  0.00    +0.000 A 
ATOM     16  C   UNL     1       1.520   8.312  20.374  0.00  0.00    +0.000 A 
ATOM     17  C   UNL     1       2.240   7.295  19.791  0.00  0.00    +0.000 A 
ATOM     18  O   UNL     1       1.135   8.359  21.679  0.00  0.00    +0.000 OA
ATOM     19  C   UNL     1       0.211   9.464  21.626  0.00  0.00    +0.000 C 
ATOM     20  O   UNL     1       0.332  10.242  20.417  0.00  0.00    +0.000 OA
ENDBRANCH   4  12
BRANCH   7  21
ATOM     21  O   UNL     1       7.773   7.727  16.867  0.00  0.00    +0.000 OA
ATOM     22  H   UNL     1       8.602   7.746  17.374  0.00  0.00    +0.000 HD
ENDBRANCH   7  21
TORSDOF 2
ENDMDL
MODEL 2
REMARK VINA RESULT:      -8.3      0.755      1.556
REMARK  Name = 
REMARK  2 active torsions:
REMARK  status: ('A' for Active; 'I' for Inactive)
REMARK    1  A    between atoms: C_4  and  C_5
REMARK    2  A    between atoms: C_16  and  O_17
REMARK                            x       y       z     vdW  Elec       q    Type
REMARK                         _______ _______ _______ _____ _____    ______ ____
ROOT
ATOM      1  O   UNL     1       2.486   3.164  19.775  0.00  0.00    +0.000 OA
ATOM      2  C   UNL     1       3.176   3.852  19.032  0.00  0.00    +0.000 C 
ATOM      3  C   UNL     1       2.619   4.587  17.850  0.00  0.00    +0.000 C 
ATOM      4  C   UNL     1       3.213   5.979  17.699  0.00  0.00    +0.000 C 
ATOM      5  C   UNL     1       4.711   5.952  17.860  0.00  0.00    +0.000 A 
ATOM      6  C   UNL     1       5.521   6.976  17.351  0.00  0.00    +0.000 A 
ATOM      7  C   UNL     1       6.908   6.876  17.454  0.00  0.00    +0.000 A 
ATOM      8  C   UNL     1       7.502   5.767  18.054  0.00  0.00    +0.000 A 
ATOM      9  C   UNL     1       6.702   4.763  18.590  0.00  0.00    +0.000 A 
ATOM     10  C   UNL     1       5.316   4.873  18.501  0.00  0.00    +0.000 A 
ATOM     11  O   UNL     1       4.562   3.878  19.145  0.00  0.00    +0.000 OA
ENDROOT
BRANCH   4  12
ATOM     12  C   UNL     1       2.487   7.021  18.536  0.00  0.00    +0.000 A 
ATOM     13  C   UNL     1       2.211   6.850  19.914  0.00  0.00    +0.000 A 
ATOM     14  C   UNL     1       1.604   7.873  20.659  0.00  0.00    +0.000 A 
ATOM     15  C   UNL     1       1.299   9.047  20.007  0.00  0.00    +0.000 A 
ATOM     16  C   UNL     1       1.525   9.205  18.662  0.00  0.00    +0.000 A 
ATOM     17  C   UNL     1       2.091   8.211  17.898  0.00  0.00    +0.000 A 
ATOM     18  O   UNL     1       1.172  10.442  18.216  0.00  0.00    +0.000 OA
ATOM     19  C   UNL     1       0.919  11.099  19.473  0.00  0.00    +0.000 C 
ATOM     20  O   UNL     1       0.787  10.175  20.574  0.00  0.00    +0.000 OA
ENDBRANCH   4  12
BRANCH   7  21
ATOM     21  O   UNL     1       7.727   7.852  16.973  0.00  0.00    +0.000 OA
ATOM     22  H   UNL     1       8.173   7.525  16.174  0.00  0.00    +0.000 HD
ENDBRANCH   7  21
TORSDOF 2
ENDMDL
MODEL 3
REMARK VINA RESULT:      -7.9      1.686      3.975
REMARK  Name = 
REMARK  2 active torsions:
REMARK  status: ('A' for Active; 'I' for Inactive)
REMARK    1  A    between atoms: C_4  and  C_5
REMARK    2  A    between atoms: C_16  and  O_17
REMARK                            x       y       z     vdW  Elec       q    Type
REMARK                         _______ _______ _______ _____ _____    ______ ____
ROOT
ATOM      1  O   UNL     1       4.896   5.692  15.852  0.00  0.00    +0.000 OA
ATOM      2  C   UNL     1       4.482   5.245  16.915  0.00  0.00    +0.000 C 
ATOM      3  C   UNL     1       4.870   5.816  18.246  0.00  0.00    +0.000 C 
ATOM      4  C   UNL     1       3.696   5.888  19.211  0.00  0.00    +0.000 C 
ATOM      5  C   UNL     1       2.910   4.603  19.207  0.00  0.00    +0.000 A 
ATOM      6  C   UNL     1       2.080   4.248  20.279  0.00  0.00    +0.000 A 
ATOM      7  C   UNL     1       1.428   3.016  20.271  0.00  0.00    +0.000 A 
ATOM      8  C   UNL     1       1.594   2.126  19.211  0.00  0.00    +0.000 A 
ATOM      9  C   UNL     1       2.390   2.486  18.128  0.00  0.00    +0.000 A 
ATOM     10  C   UNL     1       3.028   3.725  18.131  0.00  0.00    +0.000 A 
ATOM     11  O   UNL     1       3.738   4.072  16.970  0.00  0.00    +0.000 OA
ENDROOT
BRANCH   4  12
ATOM     12  C   UNL     1       2.873   7.156  19.042  0.00  0.00    +0.000 A 
ATOM     13  C   UNL     1       2.879   7.928  17.856  0.00  0.00    +0.000 A 
ATOM     14  C   UNL     1       2.045   9.049  17.723  0.00  0.00    +0.000 A 
ATOM     15  C   UNL     1       1.217   9.362  18.778  0.00  0.00    +0.000 A 
ATOM     16  C   UNL     1       1.236   8.643  19.947  0.00  0.00    +0.000 A 
ATOM     17  C   UNL     1       2.063   7.557  20.121  0.00  0.00    +0.000 A 
ATOM     18  O   UNL     1       0.331   9.100  20.856  0.00  0.00    +0.000 OA
ATOM     19  C   UNL     1      -0.400  10.031  20.033  0.00  0.00    +0.000 C 
ATOM     20  O   UNL     1       0.284  10.355  18.805  0.00  0.00    +0.000 OA
ENDBRANCH   4  12
BRANCH   7  21
ATOM     21  O   UNL     1       0.612   2.638  21.294  0.00  0.00    +0.000 OA
ATOM     22  H   UNL     1       0.870   1.751  21.593  0.00  0.00    +0.000 HD
ENDBRANCH   7  21
TORSDOF 2
ENDMDL
MODEL 4
REMARK VINA RESULT:      -7.9      1.712      5.656
REMARK  Name = 
REMARK  2 active torsions:
REMARK  status: ('A' for Active; 'I' for Inactive)
REMARK    1  A    between atoms: C_4  and  C_5
REMARK    2  A    between atoms: C_16  and  O_17
REMARK                            x       y       z     vdW  Elec       q    Type
REMARK                         _______ _______ _______ _____ _____    ______ ____
ROOT
ATOM      1  O   UNL     1       2.050   8.370  20.642  0.00  0.00    +0.000 OA
ATOM      2  C   UNL     1       1.868   7.325  20.028  0.00  0.00    +0.000 C 
ATOM      3  C   UNL     1       1.956   7.230  18.535  0.00  0.00    +0.000 C 
ATOM      4  C   UNL     1       2.657   5.961  18.075  0.00  0.00    +0.000 C 
ATOM      5  C   UNL     1       2.145   4.756  18.821  0.00  0.00    +0.000 A 
ATOM      6  C   UNL     1       2.292   3.460  18.308  0.00  0.00    +0.000 A 
ATOM      7  C   UNL     1       1.738   2.379  18.991  0.00  0.00    +0.000 A 
ATOM      8  C   UNL     1       1.034   2.569  20.180  0.00  0.00    +0.000 A 
ATOM      9  C   UNL     1       0.913   3.849  20.711  0.00  0.00    +0.000 A 
ATOM     10  C   UNL     1       1.482   4.926  20.034  0.00  0.00    +0.000 A 
ATOM     11  O   UNL     1       1.411   6.178  20.668  0.00  0.00    +0.000 OA
ENDROOT
BRANCH   4  12
ATOM     12  C   UNL     1       4.170   6.107  18.034  0.00  0.00    +0.000 A 
ATOM     13  C   UNL     1       4.844   6.911  17.083  0.00  0.00    +0.000 A 
ATOM     14  C   UNL     1       6.237   7.073  17.135  0.00  0.00    +0.000 A 
ATOM     15  C   UNL     1       6.920   6.434  18.145  0.00  0.00    +0.000 A 
ATOM     16  C   UNL     1       6.280   5.619  19.046  0.00  0.00    +0.000 A 
ATOM     17  C   UNL     1       4.920   5.416  19.004  0.00  0.00    +0.000 A 
ATOM     18  O   UNL     1       7.129   5.098  19.974  0.00  0.00    +0.000 OA
ATOM     19  C   UNL     1       8.316   5.862  19.681  0.00  0.00    +0.000 C 
ATOM     20  O   UNL     1       8.253   6.535  18.407  0.00  0.00    +0.000 OA
ENDBRANCH   4  12
BRANCH   7  21
ATOM     21  O   UNL     1       1.861   1.105  18.525  0.00  0.00    +0.000 OA
ATOM     22  H   UNL     1       1.654   0.484  19.242  0.00  0.00    +0.000 HD
ENDBRANCH   7  21
TORSDOF 2
ENDMDL
MODEL 5
REMARK VINA RESULT:      -7.8      2.828      6.471
REMARK  Name = 
REMARK  2 active torsions:
REMARK  status: ('A' for Active; 'I' for Inactive)
REMARK    1  A    between atoms: C_4  and  C_5
REMARK    2  A    between atoms: C_16  and  O_17
REMARK                            x       y       z     vdW  Elec       q    Type
REMARK                         _______ _______ _______ _____ _____    ______ ____
ROOT
ATOM      1  O   UNL     1       5.180   2.757  19.783  0.00  0.00    +0.000 OA
ATOM      2  C   UNL     1       4.986   3.936  19.512  0.00  0.00    +0.000 C 
ATOM      3  C   UNL     1       6.086   4.874  19.115  0.00  0.00    +0.000 C 
ATOM      4  C   UNL     1       5.678   5.801  17.981  0.00  0.00    +0.000 C 
ATOM      5  C   UNL     1       4.314   6.392  18.225  0.00  0.00    +0.000 A 
ATOM      6  C   UNL     1       3.901   7.570  17.588  0.00  0.00    +0.000 A 
ATOM      7  C   UNL     1       2.660   8.126  17.899  0.00  0.00    +0.000 A 
ATOM      8  C   UNL     1       1.824   7.527  18.840  0.00  0.00    +0.000 A 
ATOM      9  C   UNL     1       2.214   6.340  19.451  0.00  0.00    +0.000 A 
ATOM     10  C   UNL     1       3.447   5.778  19.127  0.00  0.00    +0.000 A 
ATOM     11  O   UNL     1       3.743   4.531  19.703  0.00  0.00    +0.000 OA
ENDROOT
BRANCH   4  12
ATOM     12  C   UNL     1       5.880   5.175  16.609  0.00  0.00    +0.000 A 
ATOM     13  C   UNL     1       4.990   4.225  16.054  0.00  0.00    +0.000 A 
ATOM     14  C   UNL     1       5.181   3.734  14.753  0.00  0.00    +0.000 A 
ATOM     15  C   UNL     1       6.254   4.214  14.037  0.00  0.00    +0.000 A 
ATOM     16  C   UNL     1       7.146   5.103  14.583  0.00  0.00    +0.000 A 
ATOM     17  C   UNL     1       7.004   5.582  15.865  0.00  0.00    +0.000 A 
ATOM     18  O   UNL     1       8.122   5.468  13.707  0.00  0.00    +0.000 OA
ATOM     19  C   UNL     1       7.602   4.883  12.497  0.00  0.00    +0.000 C 
ATOM     20  O   UNL     1       6.555   3.921  12.741  0.00  0.00    +0.000 OA
ENDBRANCH   4  12
BRANCH   7  21
ATOM     21  O   UNL     1       2.224   9.268  17.299  0.00  0.00    +0.000 OA
ATOM     22  H   UNL     1       2.513   9.269  16.372  0.00  0.00    +0.000 HD
ENDBRANCH   7  21
TORSDOF 2
ENDMDL
MODEL 6
REMARK VINA RESULT:      -7.7      3.049      5.143
REMARK  Name = 
REMARK  2 active torsions:
REMARK  status: ('A' for Active; 'I' for Inactive)
REMARK    1  A    between atoms: C_4  and  C_5
REMARK    2  A    between atoms: C_16  and  O_17
REMARK                            x       y       z     vdW  Elec       q    Type
REMARK                         _______ _______ _______ _____ _____    ______ ____
ROOT
ATOM      1  O   UNL     1       7.684   7.261  18.321  0.00  0.00    +0.000 OA
ATOM      2  C   UNL     1       7.543   6.305  17.568  0.00  0.00    +0.000 C 
ATOM      3  C   UNL     1       7.411   4.894  18.056  0.00  0.00    +0.000 C 
ATOM      4  C   UNL     1       6.361   4.108  17.285  0.00  0.00    +0.000 C 
ATOM      5  C   UNL     1       6.504   4.322  15.800  0.00  0.00    +0.000 A 
ATOM      6  C   UNL     1       5.975   3.412  14.875  0.00  0.00    +0.000 A 
ATOM      7  C   UNL     1       6.193   3.605  13.512  0.00  0.00    +0.000 A 
ATOM      8  C   UNL     1       6.937   4.692  13.054  0.00  0.00    +0.000 A 
ATOM      9  C   UNL     1       7.436   5.617  13.965  0.00  0.00    +0.000 A 
ATOM     10  C   UNL     1       7.203   5.430  15.326  0.00  0.00    +0.000 A 
ATOM     11  O   UNL     1       7.648   6.446  16.188  0.00  0.00    +0.000 OA
ENDROOT
BRANCH   4  12
ATOM     12  C   UNL     1       4.958   4.303  17.839  0.00  0.00    +0.000 A 
ATOM     13  C   UNL     1       4.089   5.330  17.399  0.00  0.00    +0.000 A 
ATOM     14  C   UNL     1       2.777   5.422  17.889  0.00  0.00    +0.000 A 
ATOM     15  C   UNL     1       2.364   4.475  18.799  0.00  0.00    +0.000 A 
ATOM     16  C   UNL     1       3.214   3.501  19.262  0.00  0.00    +0.000 A 
ATOM     17  C   UNL     1       4.515   3.402  18.825  0.00  0.00    +0.000 A 
ATOM     18  O   UNL     1       2.609   2.654  20.140  0.00  0.00    +0.000 OA
ATOM     19  C   UNL     1       1.239   3.077  19.990  0.00  0.00    +0.000 C 
ATOM     20  O   UNL     1       1.112   4.350  19.322  0.00  0.00    +0.000 OA
ENDBRANCH   4  12
BRANCH   7  21
ATOM     21  O   UNL     1       5.693   2.743  12.584  0.00  0.00    +0.000 OA
ATOM     22  H   UNL     1       5.156   3.242  11.946  0.00  0.00    +0.000 HD
ENDBRANCH   7  21
TORSDOF 2
ENDMDL
MODEL 7
REMARK VINA RESULT:      -7.7      4.081      7.124
REMARK  Name = 
REMARK  2 active torsions:
REMARK  status: ('A' for Active; 'I' for Inactive)
REMARK    1  A    between atoms: C_4  and  C_5
REMARK    2  A    between atoms: C_16  and  O_17
REMARK                            x       y       z     vdW  Elec       q    Type
REMARK                         _______ _______ _______ _____ _____    ______ ____
ROOT
ATOM      1  O   UNL     1       7.890   5.876  18.848  0.00  0.00    +0.000 OA
ATOM      2  C   UNL     1       6.731   5.525  18.665  0.00  0.00    +0.000 C 
ATOM      3  C   UNL     1       5.766   6.303  17.821  0.00  0.00    +0.000 C 
ATOM      4  C   UNL     1       4.898   5.404  16.954  0.00  0.00    +0.000 C 
ATOM      5  C   UNL     1       4.352   4.245  17.747  0.00  0.00    +0.000 A 
ATOM      6  C   UNL     1       3.215   3.541  17.328  0.00  0.00    +0.000 A 
ATOM      7  C   UNL     1       2.697   2.524  18.128  0.00  0.00    +0.000 A 
ATOM      8  C   UNL     1       3.293   2.199  19.346  0.00  0.00    +0.000 A 
ATOM      9  C   UNL     1       4.441   2.872  19.752  0.00  0.00    +0.000 A 
ATOM     10  C   UNL     1       4.966   3.877  18.943  0.00  0.00    +0.000 A 
ATOM     11  O   UNL     1       6.178   4.453  19.358  0.00  0.00    +0.000 OA
ENDROOT
BRANCH   4  12
ATOM     12  C   UNL     1       5.565   5.036  15.638  0.00  0.00    +0.000 A 
ATOM     13  C   UNL     1       6.943   5.241  15.386  0.00  0.00    +0.000 A 
ATOM     14  C   UNL     1       7.527   4.816  14.183  0.00  0.00    +0.000 A 
ATOM     15  C   UNL     1       6.717   4.184  13.265  0.00  0.00    +0.000 A 
ATOM     16  C   UNL     1       5.372   4.019  13.484  0.00  0.00    +0.000 A 
ATOM     17  C   UNL     1       4.764   4.451  14.640  0.00  0.00    +0.000 A 
ATOM     18  O   UNL     1       4.755   3.356  12.467  0.00  0.00    +0.000 OA
ATOM     19  C   UNL     1       5.907   2.934  11.710  0.00  0.00    +0.000 C 
ATOM     20  O   UNL     1       7.114   3.631  12.085  0.00  0.00    +0.000 OA
ENDBRANCH   4  12
BRANCH   7  21
ATOM     21  O   UNL     1       1.595   1.817  17.753  0.00  0.00    +0.000 OA
ATOM     22  H   UNL     1       1.853   0.896  17.586  0.00  0.00    +0.000 HD
ENDBRANCH   7  21
TORSDOF 2
ENDMDL
MODEL 8
REMARK VINA RESULT:      -7.6      2.449      6.236
REMARK  Name = 
REMARK  2 active torsions:
REMARK  status: ('A' for Active; 'I' for Inactive)
REMARK    1  A    between atoms: C_4  and  C_5
REMARK    2  A    between atoms: C_16  and  O_17
REMARK                            x       y       z     vdW  Elec       q    Type
REMARK                         _______ _______ _______ _____ _____    ______ ____
ROOT
ATOM      1  O   UNL     1       3.875   0.709  18.203  0.00  0.00    +0.000 OA
ATOM      2  C   UNL     1       3.701   1.705  18.896  0.00  0.00    +0.000 C 
ATOM      3  C   UNL     1       4.793   2.334  19.709  0.00  0.00    +0.000 C 
ATOM      4  C   UNL     1       4.757   3.853  19.653  0.00  0.00    +0.000 C 
ATOM      5  C   UNL     1       3.356   4.371  19.850  0.00  0.00    +0.000 A 
ATOM      6  C   UNL     1       3.113   5.685  20.270  0.00  0.00    +0.000 A 
ATOM      7  C   UNL     1       1.806   6.104  20.514  0.00  0.00    +0.000 A 
ATOM      8  C   UNL     1       0.733   5.229  20.349  0.00  0.00    +0.000 A 
ATOM      9  C   UNL     1       0.965   3.932  19.901  0.00  0.00    +0.000 A 
ATOM     10  C   UNL     1       2.271   3.522  19.642  0.00  0.00    +0.000 A 
ATOM     11  O   UNL     1       2.432   2.236  19.100  0.00  0.00    +0.000 OA
ENDROOT
BRANCH   4  12
ATOM     12  C   UNL     1       5.496   4.414  18.448  0.00  0.00    +0.000 A 
ATOM     13  C   UNL     1       6.626   5.260  18.559  0.00  0.00    +0.000 A 
ATOM     14  C   UNL     1       7.318   5.690  17.417  0.00  0.00    +0.000 A 
ATOM     15  C   UNL     1       6.867   5.255  16.191  0.00  0.00    +0.000 A 
ATOM     16  C   UNL     1       5.747   4.470  16.072  0.00  0.00    +0.000 A 
ATOM     17  C   UNL     1       5.029   4.055  17.170  0.00  0.00    +0.000 A 
ATOM     18  O   UNL     1       5.480   4.133  14.780  0.00  0.00    +0.000 OA
ATOM     19  C   UNL     1       6.684   4.607  14.145  0.00  0.00    +0.000 C 
ATOM     20  O   UNL     1       7.450   5.497  14.984  0.00  0.00    +0.000 OA
ENDBRANCH   4  12
BRANCH   7  21
ATOM     21  O   UNL     1       1.531   7.374  20.921  0.00  0.00    +0.000 OA
ATOM     22  H   UNL     1       2.357   7.884  20.946  0.00  0.00    +0.000 HD
ENDBRANCH   7  21
TORSDOF 2
ENDMDL
MODEL 9
REMARK VINA RESULT:      -7.6      4.007      7.018
REMARK  Name = 
REMARK  2 active torsions:
REMARK  status: ('A' for Active; 'I' for Inactive)
REMARK    1  A    between atoms: C_4  and  C_5
REMARK    2  A    between atoms: C_16  and  O_17
REMARK                            x       y       z     vdW  Elec       q    Type
REMARK                         _______ _______ _______ _____ _____    ______ ____
ROOT
ATOM      1  O   UNL     1       7.721   5.723  19.025  0.00  0.00    +0.000 OA
ATOM      2  C   UNL     1       6.554   5.395  18.842  0.00  0.00    +0.000 C 
ATOM      3  C   UNL     1       5.606   6.190  17.994  0.00  0.00    +0.000 C 
ATOM      4  C   UNL     1       4.721   5.306  17.129  0.00  0.00    +0.000 C 
ATOM      5  C   UNL     1       4.151   4.161  17.926  0.00  0.00    +0.000 A 
ATOM      6  C   UNL     1       3.001   3.479  17.508  0.00  0.00    +0.000 A 
ATOM      7  C   UNL     1       2.462   2.475  18.311  0.00  0.00    +0.000 A 
ATOM      8  C   UNL     1       3.049   2.142  19.530  0.00  0.00    +0.000 A 
ATOM      9  C   UNL     1       4.210   2.793  19.935  0.00  0.00    +0.000 A 
ATOM     10  C   UNL     1       4.756   3.785  19.123  0.00  0.00    +0.000 A 
ATOM     11  O   UNL     1       5.980   4.337  19.538  0.00  0.00    +0.000 OA
ENDROOT
BRANCH   4  12
ATOM     12  C   UNL     1       5.383   4.919  15.815  0.00  0.00    +0.000 A 
ATOM     13  C   UNL     1       4.786   4.042  14.878  0.00  0.00    +0.000 A 
ATOM     14  C   UNL     1       5.403   3.776  13.646  0.00  0.00    +0.000 A 
ATOM     15  C   UNL     1       6.599   4.404  13.379  0.00  0.00    +0.000 A 
ATOM     16  C   UNL     1       7.205   5.224  14.299  0.00  0.00    +0.000 A 
ATOM     17  C   UNL     1       6.640   5.481  15.527  0.00  0.00    +0.000 A 
ATOM     18  O   UNL     1       8.367   5.760  13.835  0.00  0.00    +0.000 OA
ATOM     19  C   UNL     1       8.290   5.363  12.452  0.00  0.00    +0.000 C 
ATOM     20  O   UNL     1       7.303   4.338  12.214  0.00  0.00    +0.000 OA
ENDBRANCH   4  12
BRANCH   7  21
ATOM     21  O   UNL     1       1.346   1.789  17.937  0.00  0.00    +0.000 OA
ATOM     22  H   UNL     1       1.328   0.937  18.401  0.00  0.00    +0.000 HD
ENDBRANCH   7  21
TORSDOF 2
ENDMDL
