MODEL 1
REMARK VINA RESULT:      -8.2      0.000      0.000
REMARK  Name = 
REMARK  10 active torsions:
REMARK  status: ('A' for Active; 'I' for Inactive)
REMARK    1  A    between atoms: C_1  and  C_2
REMARK    2  A    between atoms: C_2  and  C_21
REMARK    3  A    between atoms: N_3  and  N_4
REMARK    4  A    between atoms: N_4  and  C_5
REMARK    5  A    between atoms: C_5  and  N_7
REMARK    6  A    between atoms: N_7  and  C_8
REMARK    7  A    between atoms: C_11  and  C_12
REMARK    8  A    between atoms: N_14  and  C_15
REMARK    9  A    between atoms: C_15  and  C_16
REMARK   10  A    between atoms: C_16  and  O_18
REMARK                            x       y       z     vdW  Elec       q    Type
REMARK                         _______ _______ _______ _____ _____    ______ ____
ROOT
ATOM      1  N   UNL     1       4.162   5.509  19.643  0.00  0.00    +0.000 N 
ATOM      2  H   UNL     1       4.678   5.257  20.477  0.00  0.00    +0.000 HD
ENDROOT
BRANCH   1   3
ATOM      3  C   UNL     1       4.791   5.247  18.400  0.00  0.00    +0.000 A 
ATOM      4  C   UNL     1       4.269   4.319  17.495  0.00  0.00    +0.000 A 
ATOM      5  C   UNL     1       4.868   4.108  16.250  0.00  0.00    +0.000 A 
ATOM      6  C   UNL     1       6.005   4.832  15.883  0.00  0.00    +0.000 A 
ATOM      7  C   UNL     1       6.517   5.788  16.770  0.00  0.00    +0.000 A 
ATOM      8  C   UNL     1       5.908   6.001  18.019  0.00  0.00    +0.000 A 
BRANCH   6   9
ATOM      9  C   UNL     1       6.646   4.651  14.550  0.00  0.00    +0.000 C 
ATOM     10  O   UNL     1       7.620   5.315  14.217  0.00  0.00    +0.000 OA
ATOM     11  N   UNL     1       6.076   3.702  13.728  0.00  0.00    +0.000 N 
ATOM     12  H   UNL     1       5.369   3.062  14.079  0.00  0.00    +0.000 HD
BRANCH  11  13
ATOM     13  C   UNL     1       6.564   3.450  12.385  0.00  0.00    +0.000 C 
BRANCH  13  14
ATOM     14  C   UNL     1       5.599   2.524  11.658  0.00  0.00    +0.000 C 
ATOM     15  O   UNL     1       4.466   2.842  11.322  0.00  0.00    +0.000 OA
BRANCH  14  16
ATOM     16  O   UNL     1       6.110   1.293  11.412  0.00  0.00    +0.000 OA
ATOM     17  H   UNL     1       5.742   0.856  10.623  0.00  0.00    +0.000 HD
ENDBRANCH  14  16
ENDBRANCH  13  14
ENDBRANCH  11  13
ENDBRANCH   6   9
ENDBRANCH   1   3
BRANCH   1  18
ATOM     18  C   UNL     1       2.819   5.840  19.840  0.00  0.00    +0.000 C 
ATOM     19  S   UNL     1       1.706   4.874  20.659  0.00  0.00    +0.000 S 
BRANCH  18  20
ATOM     20  N   UNL     1       2.511   7.101  19.314  0.00  0.00    +0.000 N 
ATOM     21  H   UNL     1       2.435   7.194  18.309  0.00  0.00    +0.000 HD
BRANCH  20  24
ATOM     22  C   UNL     1       1.359   9.517  18.182  0.00  0.00    +0.000 C 
ATOM     23  C   UNL     1       1.210   9.024  19.604  0.00  0.00    +0.000 C 
ATOM     24  N   UNL     1       1.786   7.964  20.089  0.00  0.00    +0.000 NA
BRANCH  23  25
ATOM     25  C   UNL     1       0.350   9.838  20.542  0.00  0.00    +0.000 A 
ATOM     26  C   UNL     1       0.188   9.497  21.891  0.00  0.00    +0.000 A 
ATOM     27  C   UNL     1      -0.628  10.271  22.727  0.00  0.00    +0.000 A 
ATOM     28  C   UNL     1      -1.282  11.391  22.220  0.00  0.00    +0.000 A 
ATOM     29 BR   UNL     1      -2.394  12.421  23.349  0.00  0.00    +0.000 Br
ATOM     30  C   UNL     1      -1.122  11.752  20.885  0.00  0.00    +0.000 A 
ATOM     31  C   UNL     1      -0.309  10.978  20.050  0.00  0.00    +0.000 A 
ENDBRANCH  23  25
ENDBRANCH  20  24
ENDBRANCH  18  20
ENDBRANCH   1  18
TORSDOF 9
ENDMDL
MODEL 2
REMARK VINA RESULT:      -7.8      0.710      1.588
REMARK  Name = 
REMARK  10 active torsions:
REMARK  status: ('A' for Active; 'I' for Inactive)
REMARK    1  A    between atoms: C_1  and  C_2
REMARK    2  A    between atoms: C_2  and  C_21
REMARK    3  A    between atoms: N_3  and  N_4
REMARK    4  A    between atoms: N_4  and  C_5
REMARK    5  A    between atoms: C_5  and  N_7
REMARK    6  A    between atoms: N_7  and  C_8
REMARK    7  A    between atoms: C_11  and  C_12
REMARK    8  A    between atoms: N_14  and  C_15
REMARK    9  A    between atoms: C_15  and  C_16
REMARK   10  A    between atoms: C_16  and  O_18
REMARK                            x       y       z     vdW  Elec       q    Type
REMARK                         _______ _______ _______ _____ _____    ______ ____
ROOT
ATOM      1  N   UNL     1       4.523   5.032  19.488  0.00  0.00    +0.000 N 
ATOM      2  H   UNL     1       5.041   4.563  20.221  0.00  0.00    +0.000 HD
ENDROOT
BRANCH   1   3
ATOM      3  C   UNL     1       5.115   5.050  18.200  0.00  0.00    +0.000 A 
ATOM      4  C   UNL     1       6.121   5.961  17.867  0.00  0.00    +0.000 A 
ATOM      5  C   UNL     1       6.733   5.934  16.610  0.00  0.00    +0.000 A 
ATOM      6  C   UNL     1       6.352   4.983  15.660  0.00  0.00    +0.000 A 
ATOM      7  C   UNL     1       5.368   4.045  15.996  0.00  0.00    +0.000 A 
ATOM      8  C   UNL     1       4.757   4.072  17.262  0.00  0.00    +0.000 A 
BRANCH   6   9
ATOM      9  C   UNL     1       7.009   4.911  14.325  0.00  0.00    +0.000 C 
ATOM     10  O   UNL     1       8.004   5.579  14.070  0.00  0.00    +0.000 OA
ATOM     11  N   UNL     1       6.431   4.059  13.410  0.00  0.00    +0.000 N 
ATOM     12  H   UNL     1       5.703   3.406  13.689  0.00  0.00    +0.000 HD
BRANCH  11  13
ATOM     13  C   UNL     1       6.934   3.921  12.056  0.00  0.00    +0.000 C 
BRANCH  13  14
ATOM     14  C   UNL     1       6.771   2.480  11.596  0.00  0.00    +0.000 C 
ATOM     15  O   UNL     1       7.658   1.825  11.065  0.00  0.00    +0.000 OA
BRANCH  14  16
ATOM     16  O   UNL     1       5.535   1.973  11.825  0.00  0.00    +0.000 OA
ATOM     17  H   UNL     1       4.815   2.452  11.374  0.00  0.00    +0.000 HD
ENDBRANCH  14  16
ENDBRANCH  13  14
ENDBRANCH  11  13
ENDBRANCH   6   9
ENDBRANCH   1   3
BRANCH   1  18
ATOM     18  C   UNL     1       3.204   5.367  19.799  0.00  0.00    +0.000 C 
ATOM     19  S   UNL     1       2.213   4.486  20.841  0.00  0.00    +0.000 S 
BRANCH  18  20
ATOM     20  N   UNL     1       2.807   6.557  19.175  0.00  0.00    +0.000 N 
ATOM     21  H   UNL     1       2.669   6.548  18.173  0.00  0.00    +0.000 HD
BRANCH  20  24
ATOM     22  C   UNL     1       1.917   9.061  18.000  0.00  0.00    +0.000 C 
ATOM     23  C   UNL     1       1.626   8.564  19.398  0.00  0.00    +0.000 C 
ATOM     24  N   UNL     1       2.088   7.461  19.908  0.00  0.00    +0.000 NA
BRANCH  23  25
ATOM     25  C   UNL     1       0.756   9.428  20.282  0.00  0.00    +0.000 A 
ATOM     26  C   UNL     1       0.235  10.653  19.846  0.00  0.00    +0.000 A 
ATOM     27  C   UNL     1      -0.558  11.432  20.698  0.00  0.00    +0.000 A 
ATOM     28  C   UNL     1      -0.838  10.988  21.988  0.00  0.00    +0.000 A 
ATOM     29 BR   UNL     1      -1.896  12.052  23.139  0.00  0.00    +0.000 Br
ATOM     30  C   UNL     1      -0.340   9.767  22.434  0.00  0.00    +0.000 A 
ATOM     31  C   UNL     1       0.454   8.991  21.582  0.00  0.00    +0.000 A 
ENDBRANCH  23  25
ENDBRANCH  20  24
ENDBRANCH  18  20
ENDBRANCH   1  18
TORSDOF 9
ENDMDL
MODEL 3
REMARK VINA RESULT:      -7.8      1.316      2.154
REMARK  Name = 
REMARK  10 active torsions:
REMARK  status: ('A' for Active; 'I' for Inactive)
REMARK    1  A    between atoms: C_1  and  C_2
REMARK    2  A    between atoms: C_2  and  C_21
REMARK    3  A    between atoms: N_3  and  N_4
REMARK    4  A    between atoms: N_4  and  C_5
REMARK    5  A    between atoms: C_5  and  N_7
REMARK    6  A    between atoms: N_7  and  C_8
REMARK    7  A    between atoms: C_11  and  C_12
REMARK    8  A    between atoms: N_14  and  C_15
REMARK    9  A    between atoms: C_15  and  C_16
REMARK   10  A    between atoms: C_16  and  O_18
REMARK                            x       y       z     vdW  Elec       q    Type
REMARK                         _______ _______ _______ _____ _____    ______ ____
ROOT
ATOM      1  N   UNL     1       3.817   3.868  19.407  0.00  0.00    +0.000 N 
ATOM      2  H   UNL     1       3.831   2.929  19.788  0.00  0.00    +0.000 HD
ENDROOT
BRANCH   1   3
ATOM      3  C   UNL     1       4.540   4.080  18.206  0.00  0.00    +0.000 A 
ATOM      4  C   UNL     1       5.898   4.407  18.216  0.00  0.00    +0.000 A 
ATOM      5  C   UNL     1       6.612   4.562  17.024  0.00  0.00    +0.000 A 
ATOM      6  C   UNL     1       5.976   4.385  15.792  0.00  0.00    +0.000 A 
ATOM      7  C   UNL     1       4.623   4.025  15.773  0.00  0.00    +0.000 A 
ATOM      8  C   UNL     1       3.909   3.865  16.974  0.00  0.00    +0.000 A 
BRANCH   6   9
ATOM      9  C   UNL     1       6.720   4.513  14.508  0.00  0.00    +0.000 C 
ATOM     10  O   UNL     1       7.618   5.335  14.372  0.00  0.00    +0.000 OA
ATOM     11  N   UNL     1       6.333   3.661  13.497  0.00  0.00    +0.000 N 
ATOM     12  H   UNL     1       5.695   2.890  13.676  0.00  0.00    +0.000 HD
BRANCH  11  13
ATOM     13  C   UNL     1       6.936   3.703  12.177  0.00  0.00    +0.000 C 
BRANCH  13  14
ATOM     14  C   UNL     1       6.810   2.339  11.515  0.00  0.00    +0.000 C 
ATOM     15  O   UNL     1       7.709   1.796  10.887  0.00  0.00    +0.000 OA
BRANCH  14  16
ATOM     16  O   UNL     1       5.594   1.765  11.681  0.00  0.00    +0.000 OA
ATOM     17  H   UNL     1       4.968   2.295  12.208  0.00  0.00    +0.000 HD
ENDBRANCH  14  16
ENDBRANCH  13  14
ENDBRANCH  11  13
ENDBRANCH   6   9
ENDBRANCH   1   3
BRANCH   1  18
ATOM     18  C   UNL     1       2.890   4.740  19.983  0.00  0.00    +0.000 C 
ATOM     19  S   UNL     1       1.376   4.279  20.564  0.00  0.00    +0.000 S 
BRANCH  18  20
ATOM     20  N   UNL     1       3.386   6.047  20.065  0.00  0.00    +0.000 N 
ATOM     21  H   UNL     1       4.305   6.234  19.685  0.00  0.00    +0.000 HD
BRANCH  20  24
ATOM     22  C   UNL     1       3.095   7.832  17.790  0.00  0.00    +0.000 C 
ATOM     23  C   UNL     1       2.291   7.860  19.071  0.00  0.00    +0.000 C 
ATOM     24  N   UNL     1       2.487   7.078  20.090  0.00  0.00    +0.000 NA
BRANCH  23  25
ATOM     25  C   UNL     1       1.195   8.894  19.187  0.00  0.00    +0.000 A 
ATOM     26  C   UNL     1       0.640   9.522  18.064  0.00  0.00    +0.000 A 
ATOM     27  C   UNL     1      -0.366  10.484  18.213  0.00  0.00    +0.000 A 
ATOM     28  C   UNL     1      -0.827  10.820  19.484  0.00  0.00    +0.000 A 
ATOM     29 BR   UNL     1      -2.174  12.132  19.678  0.00  0.00    +0.000 Br
ATOM     30  C   UNL     1      -0.297  10.197  20.610  0.00  0.00    +0.000 A 
ATOM     31  C   UNL     1       0.710   9.237  20.460  0.00  0.00    +0.000 A 
ENDBRANCH  23  25
ENDBRANCH  20  24
ENDBRANCH  18  20
ENDBRANCH   1  18
TORSDOF 9
ENDMDL
MODEL 4
REMARK VINA RESULT:      -7.8      4.782      8.415
REMARK  Name = 
REMARK  10 active torsions:
REMARK  status: ('A' for Active; 'I' for Inactive)
REMARK    1  A    between atoms: C_1  and  C_2
REMARK    2  A    between atoms: C_2  and  C_21
REMARK    3  A    between atoms: N_3  and  N_4
REMARK    4  A    between atoms: N_4  and  C_5
REMARK    5  A    between atoms: C_5  and  N_7
REMARK    6  A    between atoms: N_7  and  C_8
REMARK    7  A    between atoms: C_11  and  C_12
REMARK    8  A    between atoms: N_14  and  C_15
REMARK    9  A    between atoms: C_15  and  C_16
REMARK   10  A    between atoms: C_16  and  O_18
REMARK                            x       y       z     vdW  Elec       q    Type
REMARK                         _______ _______ _______ _____ _____    ______ ____
ROOT
ATOM      1  N   UNL     1       3.070   3.994  19.938  0.00  0.00    +0.000 N 
ATOM      2  H   UNL     1       3.224   3.820  20.924  0.00  0.00    +0.000 HD
ENDROOT
BRANCH   1   3
ATOM      3  C   UNL     1       2.638   5.296  19.579  0.00  0.00    +0.000 A 
ATOM      4  C   UNL     1       2.138   6.191  20.530  0.00  0.00    +0.000 A 
ATOM      5  C   UNL     1       1.766   7.490  20.172  0.00  0.00    +0.000 A 
ATOM      6  C   UNL     1       1.894   7.923  18.850  0.00  0.00    +0.000 A 
ATOM      7  C   UNL     1       2.425   7.044  17.897  0.00  0.00    +0.000 A 
ATOM      8  C   UNL     1       2.803   5.740  18.261  0.00  0.00    +0.000 A 
BRANCH   6   9
ATOM      9  C   UNL     1       1.534   9.311  18.448  0.00  0.00    +0.000 C 
ATOM     10  O   UNL     1       1.946   9.797  17.401  0.00  0.00    +0.000 OA
ATOM     11  N   UNL     1       0.723  10.004  19.321  0.00  0.00    +0.000 N 
ATOM     12  H   UNL     1       0.273   9.535  20.102  0.00  0.00    +0.000 HD
BRANCH  11  13
ATOM     13  C   UNL     1       0.330  11.381  19.084  0.00  0.00    +0.000 C 
BRANCH  13  14
ATOM     14  C   UNL     1      -0.968  11.410  18.290  0.00  0.00    +0.000 C 
ATOM     15  O   UNL     1      -1.801  10.514  18.303  0.00  0.00    +0.000 OA
BRANCH  14  16
ATOM     16  O   UNL     1      -1.125  12.535  17.550  0.00  0.00    +0.000 OA
ATOM     17  H   UNL     1      -1.444  13.306  18.054  0.00  0.00    +0.000 HD
ENDBRANCH  14  16
ENDBRANCH  13  14
ENDBRANCH  11  13
ENDBRANCH   6   9
ENDBRANCH   1   3
BRANCH   1  18
ATOM     18  C   UNL     1       3.543   3.009  19.069  0.00  0.00    +0.000 C 
ATOM     19  S   UNL     1       2.571   2.089  18.044  0.00  0.00    +0.000 S 
BRANCH  18  20
ATOM     20  N   UNL     1       4.939   2.904  19.111  0.00  0.00    +0.000 N 
ATOM     21  H   UNL     1       5.366   2.058  18.755  0.00  0.00    +0.000 HD
BRANCH  20  24
ATOM     22  C   UNL     1       5.801   4.021  16.570  0.00  0.00    +0.000 C 
ATOM     23  C   UNL     1       6.029   4.613  17.943  0.00  0.00    +0.000 C 
ATOM     24  N   UNL     1       5.675   4.056  19.063  0.00  0.00    +0.000 NA
BRANCH  23  25
ATOM     25  C   UNL     1       6.747   5.940  18.022  0.00  0.00    +0.000 A 
ATOM     26  C   UNL     1       6.415   7.019  17.191  0.00  0.00    +0.000 A 
ATOM     27  C   UNL     1       7.112   8.230  17.286  0.00  0.00    +0.000 A 
ATOM     28  C   UNL     1       8.141   8.371  18.214  0.00  0.00    +0.000 A 
ATOM     29 BR   UNL     1       9.089  10.003  18.325  0.00  0.00    +0.000 Br
ATOM     30  C   UNL     1       8.477   7.315  19.056  0.00  0.00    +0.000 A 
ATOM     31  C   UNL     1       7.781   6.104  18.959  0.00  0.00    +0.000 A 
ENDBRANCH  23  25
ENDBRANCH  20  24
ENDBRANCH  18  20
ENDBRANCH   1  18
TORSDOF 9
ENDMDL
MODEL 5
REMARK VINA RESULT:      -7.6      0.574      1.289
REMARK  Name = 
REMARK  10 active torsions:
REMARK  status: ('A' for Active; 'I' for Inactive)
REMARK    1  A    between atoms: C_1  and  C_2
REMARK    2  A    between atoms: C_2  and  C_21
REMARK    3  A    between atoms: N_3  and  N_4
REMARK    4  A    between atoms: N_4  and  C_5
REMARK    5  A    between atoms: C_5  and  N_7
REMARK    6  A    between atoms: N_7  and  C_8
REMARK    7  A    between atoms: C_11  and  C_12
REMARK    8  A    between atoms: N_14  and  C_15
REMARK    9  A    between atoms: C_15  and  C_16
REMARK   10  A    between atoms: C_16  and  O_18
REMARK                            x       y       z     vdW  Elec       q    Type
REMARK                         _______ _______ _______ _____ _____    ______ ____
ROOT
ATOM      1  N   UNL     1       4.204   5.617  19.667  0.00  0.00    +0.000 N 
ATOM      2  H   UNL     1       4.686   5.300  20.499  0.00  0.00    +0.000 HD
ENDROOT
BRANCH   1   3
ATOM      3  C   UNL     1       4.870   5.423  18.430  0.00  0.00    +0.000 A 
ATOM      4  C   UNL     1       5.802   4.397  18.252  0.00  0.00    +0.000 A 
ATOM      5  C   UNL     1       6.413   4.184  17.013  0.00  0.00    +0.000 A 
ATOM      6  C   UNL     1       6.095   4.995  15.920  0.00  0.00    +0.000 A 
ATOM      7  C   UNL     1       5.138   6.005  16.081  0.00  0.00    +0.000 A 
ATOM      8  C   UNL     1       4.522   6.214  17.327  0.00  0.00    +0.000 A 
BRANCH   6   9
ATOM      9  C   UNL     1       6.707   4.770  14.581  0.00  0.00    +0.000 C 
ATOM     10  O   UNL     1       7.649   5.448  14.191  0.00  0.00    +0.000 OA
ATOM     11  N   UNL     1       6.148   3.766  13.821  0.00  0.00    +0.000 N 
ATOM     12  H   UNL     1       5.472   3.120  14.220  0.00  0.00    +0.000 HD
BRANCH  11  13
ATOM     13  C   UNL     1       6.609   3.464  12.478  0.00  0.00    +0.000 C 
BRANCH  13  14
ATOM     14  C   UNL     1       5.545   2.664  11.741  0.00  0.00    +0.000 C 
ATOM     15  O   UNL     1       5.711   1.528  11.318  0.00  0.00    +0.000 OA
BRANCH  14  16
ATOM     16  O   UNL     1       4.376   3.331  11.586  0.00  0.00    +0.000 OA
ATOM     17  H   UNL     1       3.695   3.108  12.247  0.00  0.00    +0.000 HD
ENDBRANCH  14  16
ENDBRANCH  13  14
ENDBRANCH  11  13
ENDBRANCH   6   9
ENDBRANCH   1   3
BRANCH   1  18
ATOM     18  C   UNL     1       2.862   5.963  19.840  0.00  0.00    +0.000 C 
ATOM     19  S   UNL     1       1.724   5.011  20.641  0.00  0.00    +0.000 S 
BRANCH  18  20
ATOM     20  N   UNL     1       2.577   7.227  19.308  0.00  0.00    +0.000 N 
ATOM     21  H   UNL     1       2.548   7.326  18.301  0.00  0.00    +0.000 HD
BRANCH  20  24
ATOM     22  C   UNL     1       1.282   9.523  18.084  0.00  0.00    +0.000 C 
ATOM     23  C   UNL     1       1.176   9.087  19.529  0.00  0.00    +0.000 C 
ATOM     24  N   UNL     1       1.814   8.084  20.053  0.00  0.00    +0.000 NA
BRANCH  23  25
ATOM     25  C   UNL     1       0.282   9.896  20.440  0.00  0.00    +0.000 A 
ATOM     26  C   UNL     1      -0.466  10.986  19.975  0.00  0.00    +0.000 A 
ATOM     27  C   UNL     1      -1.275  11.719  20.852  0.00  0.00    +0.000 A 
ATOM     28  C   UNL     1      -1.344  11.364  22.198  0.00  0.00    +0.000 A 
ATOM     29 BR   UNL     1      -2.424  12.368  23.380  0.00  0.00    +0.000 Br
ATOM     30  C   UNL     1      -0.618  10.277  22.675  0.00  0.00    +0.000 A 
ATOM     31  C   UNL     1       0.191   9.546  21.797  0.00  0.00    +0.000 A 
ENDBRANCH  23  25
ENDBRANCH  20  24
ENDBRANCH  18  20
ENDBRANCH   1  18
TORSDOF 9
ENDMDL
MODEL 6
REMARK VINA RESULT:      -7.5      1.610      2.205
REMARK  Name = 
REMARK  10 active torsions:
REMARK  status: ('A' for Active; 'I' for Inactive)
REMARK    1  A    between atoms: C_1  and  C_2
REMARK    2  A    between atoms: C_2  and  C_21
REMARK    3  A    between atoms: N_3  and  N_4
REMARK    4  A    between atoms: N_4  and  C_5
REMARK    5  A    between atoms: C_5  and  N_7
REMARK    6  A    between atoms: N_7  and  C_8
REMARK    7  A    between atoms: C_11  and  C_12
REMARK    8  A    between atoms: N_14  and  C_15
REMARK    9  A    between atoms: C_15  and  C_16
REMARK   10  A    between atoms: C_16  and  O_18
REMARK                            x       y       z     vdW  Elec       q    Type
REMARK                         _______ _______ _______ _____ _____    ______ ____
ROOT
ATOM      1  N   UNL     1       3.853   5.767  19.671  0.00  0.00    +0.000 N 
ATOM      2  H   UNL     1       4.402   5.962  20.499  0.00  0.00    +0.000 HD
ENDROOT
BRANCH   1   3
ATOM      3  C   UNL     1       4.569   5.532  18.471  0.00  0.00    +0.000 A 
ATOM      4  C   UNL     1       5.056   4.263  18.144  0.00  0.00    +0.000 A 
ATOM      5  C   UNL     1       5.715   4.033  16.933  0.00  0.00    +0.000 A 
ATOM      6  C   UNL     1       5.893   5.073  16.017  0.00  0.00    +0.000 A 
ATOM      7  C   UNL     1       5.379   6.340  16.321  0.00  0.00    +0.000 A 
ATOM      8  C   UNL     1       4.713   6.568  17.538  0.00  0.00    +0.000 A 
BRANCH   6   9
ATOM      9  C   UNL     1       6.563   4.848  14.706  0.00  0.00    +0.000 C 
ATOM     10  O   UNL     1       7.560   5.483  14.384  0.00  0.00    +0.000 OA
ATOM     11  N   UNL     1       5.992   3.896  13.890  0.00  0.00    +0.000 N 
ATOM     12  H   UNL     1       5.262   3.279  14.235  0.00  0.00    +0.000 HD
BRANCH  11  13
ATOM     13  C   UNL     1       6.508   3.603  12.565  0.00  0.00    +0.000 C 
BRANCH  13  14
ATOM     14  C   UNL     1       5.497   2.764  11.798  0.00  0.00    +0.000 C 
ATOM     15  O   UNL     1       5.716   1.633  11.386  0.00  0.00    +0.000 OA
BRANCH  14  16
ATOM     16  O   UNL     1       4.311   3.389  11.602  0.00  0.00    +0.000 OA
ATOM     17  H   UNL     1       3.530   2.833  11.780  0.00  0.00    +0.000 HD
ENDBRANCH  14  16
ENDBRANCH  13  14
ENDBRANCH  11  13
ENDBRANCH   6   9
ENDBRANCH   1   3
BRANCH   1  18
ATOM     18  C   UNL     1       2.497   5.514  19.891  0.00  0.00    +0.000 C 
ATOM     19  S   UNL     1       1.647   4.214  19.235  0.00  0.00    +0.000 S 
BRANCH  18  20
ATOM     20  N   UNL     1       1.928   6.447  20.767  0.00  0.00    +0.000 N 
ATOM     21  H   UNL     1       2.004   6.277  21.762  0.00  0.00    +0.000 HD
BRANCH  20  24
ATOM     22  C   UNL     1      -0.238   8.151  21.692  0.00  0.00    +0.000 C 
ATOM     23  C   UNL     1       0.905   8.551  20.787  0.00  0.00    +0.000 C 
ATOM     24  N   UNL     1       1.828   7.746  20.350  0.00  0.00    +0.000 NA
BRANCH  23  25
ATOM     25  C   UNL     1       0.966   9.991  20.331  0.00  0.00    +0.000 A 
ATOM     26  C   UNL     1       1.264  10.343  19.008  0.00  0.00    +0.000 A 
ATOM     27  C   UNL     1       1.323  11.689  18.626  0.00  0.00    +0.000 A 
ATOM     28  C   UNL     1       1.080  12.690  19.563  0.00  0.00    +0.000 A 
ATOM     29 BR   UNL     1       1.177  14.506  19.045  0.00  0.00    +0.000 Br
ATOM     30  C   UNL     1       0.769  12.360  20.879  0.00  0.00    +0.000 A 
ATOM     31  C   UNL     1       0.712  11.014  21.260  0.00  0.00    +0.000 A 
ENDBRANCH  23  25
ENDBRANCH  20  24
ENDBRANCH  18  20
ENDBRANCH   1  18
TORSDOF 9
ENDMDL
MODEL 7
REMARK VINA RESULT:      -7.4      4.952      8.820
REMARK  Name = 
REMARK  10 active torsions:
REMARK  status: ('A' for Active; 'I' for Inactive)
REMARK    1  A    between atoms: C_1  and  C_2
REMARK    2  A    between atoms: C_2  and  C_21
REMARK    3  A    between atoms: N_3  and  N_4
REMARK    4  A    between atoms: N_4  and  C_5
REMARK    5  A    between atoms: C_5  and  N_7
REMARK    6  A    between atoms: N_7  and  C_8
REMARK    7  A    between atoms: C_11  and  C_12
REMARK    8  A    between atoms: N_14  and  C_15
REMARK    9  A    between atoms: C_15  and  C_16
REMARK   10  A    between atoms: C_16  and  O_18
REMARK                            x       y       z     vdW  Elec       q    Type
REMARK                         _______ _______ _______ _____ _____    ______ ____
ROOT
ATOM      1  N   UNL     1       3.053   3.868  19.895  0.00  0.00    +0.000 N 
ATOM      2  H   UNL     1       3.078   3.565  20.861  0.00  0.00    +0.000 HD
ENDROOT
BRANCH   1   3
ATOM      3  C   UNL     1       2.711   5.223  19.659  0.00  0.00    +0.000 A 
ATOM      4  C   UNL     1       2.919   5.827  18.416  0.00  0.00    +0.000 A 
ATOM      5  C   UNL     1       2.529   7.148  18.180  0.00  0.00    +0.000 A 
ATOM      6  C   UNL     1       1.912   7.893  19.189  0.00  0.00    +0.000 A 
ATOM      7  C   UNL     1       1.669   7.285  20.428  0.00  0.00    +0.000 A 
ATOM      8  C   UNL     1       2.059   5.955  20.660  0.00  0.00    +0.000 A 
BRANCH   6   9
ATOM      9  C   UNL     1       1.458   9.292  18.955  0.00  0.00    +0.000 C 
ATOM     10  O   UNL     1       1.651   9.852  17.883  0.00  0.00    +0.000 OA
ATOM     11  N   UNL     1       0.819   9.905  20.011  0.00  0.00    +0.000 N 
ATOM     12  H   UNL     1       0.536   9.376  20.831  0.00  0.00    +0.000 HD
BRANCH  11  13
ATOM     13  C   UNL     1       0.363  11.282  19.944  0.00  0.00    +0.000 C 
BRANCH  13  14
ATOM     14  C   UNL     1      -0.437  11.615  21.195  0.00  0.00    +0.000 C 
ATOM     15  O   UNL     1      -1.479  12.255  21.193  0.00  0.00    +0.000 OA
BRANCH  14  16
ATOM     16  O   UNL     1       0.116  11.135  22.336  0.00  0.00    +0.000 OA
ATOM     17  H   UNL     1      -0.451  10.513  22.827  0.00  0.00    +0.000 HD
ENDBRANCH  14  16
ENDBRANCH  13  14
ENDBRANCH  11  13
ENDBRANCH   6   9
ENDBRANCH   1   3
BRANCH   1  18
ATOM     18  C   UNL     1       3.600   2.977  18.968  0.00  0.00    +0.000 C 
ATOM     19  S   UNL     1       2.709   2.133  17.812  0.00  0.00    +0.000 S 
BRANCH  18  20
ATOM     20  N   UNL     1       4.994   2.901  19.079  0.00  0.00    +0.000 N 
ATOM     21  H   UNL     1       5.452   2.054  18.765  0.00  0.00    +0.000 HD
BRANCH  20  24
ATOM     22  C   UNL     1       5.895   4.004  16.545  0.00  0.00    +0.000 C 
ATOM     23  C   UNL     1       6.080   4.616  17.916  0.00  0.00    +0.000 C 
ATOM     24  N   UNL     1       5.710   4.065  19.034  0.00  0.00    +0.000 NA
BRANCH  23  25
ATOM     25  C   UNL     1       6.773   5.956  17.996  0.00  0.00    +0.000 A 
ATOM     26  C   UNL     1       6.405   7.036  17.182  0.00  0.00    +0.000 A 
ATOM     27  C   UNL     1       7.079   8.260  17.277  0.00  0.00    +0.000 A 
ATOM     28  C   UNL     1       8.120   8.413  18.189  0.00  0.00    +0.000 A 
ATOM     29 BR   UNL     1       9.036  10.063  18.301  0.00  0.00    +0.000 Br
ATOM     30  C   UNL     1       8.490   7.356  19.016  0.00  0.00    +0.000 A 
ATOM     31  C   UNL     1       7.818   6.133  18.919  0.00  0.00    +0.000 A 
ENDBRANCH  23  25
ENDBRANCH  20  24
ENDBRANCH  18  20
ENDBRANCH   1  18
TORSDOF 9
ENDMDL
MODEL 8
REMARK VINA RESULT:      -7.3      1.550      2.166
REMARK  Name = 
REMARK  10 active torsions:
REMARK  status: ('A' for Active; 'I' for Inactive)
REMARK    1  A    between atoms: C_1  and  C_2
REMARK    2  A    between atoms: C_2  and  C_21
REMARK    3  A    between atoms: N_3  and  N_4
REMARK    4  A    between atoms: N_4  and  C_5
REMARK    5  A    between atoms: C_5  and  N_7
REMARK    6  A    between atoms: N_7  and  C_8
REMARK    7  A    between atoms: C_11  and  C_12
REMARK    8  A    between atoms: N_14  and  C_15
REMARK    9  A    between atoms: C_15  and  C_16
REMARK   10  A    between atoms: C_16  and  O_18
REMARK                            x       y       z     vdW  Elec       q    Type
REMARK                         _______ _______ _______ _____ _____    ______ ____
ROOT
ATOM      1  N   UNL     1       3.781   3.816  19.684  0.00  0.00    +0.000 N 
ATOM      2  H   UNL     1       4.073   3.030  20.253  0.00  0.00    +0.000 HD
ENDROOT
BRANCH   1   3
ATOM      3  C   UNL     1       4.486   4.023  18.472  0.00  0.00    +0.000 A 
ATOM      4  C   UNL     1       5.826   4.420  18.461  0.00  0.00    +0.000 A 
ATOM      5  C   UNL     1       6.525   4.570  17.259  0.00  0.00    +0.000 A 
ATOM      6  C   UNL     1       5.893   4.317  16.039  0.00  0.00    +0.000 A 
ATOM      7  C   UNL     1       4.560   3.886  16.042  0.00  0.00    +0.000 A 
ATOM      8  C   UNL     1       3.861   3.732  17.252  0.00  0.00    +0.000 A 
BRANCH   6   9
ATOM      9  C   UNL     1       6.622   4.438  14.746  0.00  0.00    +0.000 C 
ATOM     10  O   UNL     1       7.542   5.235  14.607  0.00  0.00    +0.000 OA
ATOM     11  N   UNL     1       6.197   3.609  13.731  0.00  0.00    +0.000 N 
ATOM     12  H   UNL     1       5.539   2.855  13.910  0.00  0.00    +0.000 HD
BRANCH  11  13
ATOM     13  C   UNL     1       6.783   3.649  12.403  0.00  0.00    +0.000 C 
BRANCH  13  14
ATOM     14  C   UNL     1       6.322   2.438  11.606  0.00  0.00    +0.000 C 
ATOM     15  O   UNL     1       5.154   2.207  11.323  0.00  0.00    +0.000 OA
BRANCH  14  16
ATOM     16  O   UNL     1       7.334   1.619  11.230  0.00  0.00    +0.000 OA
ATOM     17  H   UNL     1       8.222   1.946  11.461  0.00  0.00    +0.000 HD
ENDBRANCH  14  16
ENDBRANCH  13  14
ENDBRANCH  11  13
ENDBRANCH   6   9
ENDBRANCH   1   3
BRANCH   1  18
ATOM     18  C   UNL     1       2.577   4.417  20.057  0.00  0.00    +0.000 C 
ATOM     19  S   UNL     1       1.049   3.837  19.640  0.00  0.00    +0.000 S 
BRANCH  18  20
ATOM     20  N   UNL     1       2.784   5.542  20.864  0.00  0.00    +0.000 N 
ATOM     21  H   UNL     1       3.703   5.681  21.264  0.00  0.00    +0.000 HD
BRANCH  20  24
ATOM     22  C   UNL     1       3.308   7.274  18.590  0.00  0.00    +0.000 C 
ATOM     23  C   UNL     1       2.189   7.416  19.596  0.00  0.00    +0.000 C 
ATOM     24  N   UNL     1       2.017   6.651  20.633  0.00  0.00    +0.000 NA
BRANCH  23  25
ATOM     25  C   UNL     1       1.208   8.549  19.398  0.00  0.00    +0.000 A 
ATOM     26  C   UNL     1       0.525   9.139  20.470  0.00  0.00    +0.000 A 
ATOM     27  C   UNL     1      -0.385  10.181  20.245  0.00  0.00    +0.000 A 
ATOM     28  C   UNL     1      -0.613  10.640  18.950  0.00  0.00    +0.000 A 
ATOM     29 BR   UNL     1      -1.854  12.034  18.653  0.00  0.00    +0.000 Br
ATOM     30  C   UNL     1       0.067  10.075  17.875  0.00  0.00    +0.000 A 
ATOM     31  C   UNL     1       0.975   9.033  18.100  0.00  0.00    +0.000 A 
ENDBRANCH  23  25
ENDBRANCH  20  24
ENDBRANCH  18  20
ENDBRANCH   1  18
TORSDOF 9
ENDMDL
MODEL 9
REMARK VINA RESULT:      -7.2      4.711      6.651
REMARK  Name = 
REMARK  10 active torsions:
REMARK  status: ('A' for Active; 'I' for Inactive)
REMARK    1  A    between atoms: C_1  and  C_2
REMARK    2  A    between atoms: C_2  and  C_21
REMARK    3  A    between atoms: N_3  and  N_4
REMARK    4  A    between atoms: N_4  and  C_5
REMARK    5  A    between atoms: C_5  and  N_7
REMARK    6  A    between atoms: N_7  and  C_8
REMARK    7  A    between atoms: C_11  and  C_12
REMARK    8  A    between atoms: N_14  and  C_15
REMARK    9  A    between atoms: C_15  and  C_16
REMARK   10  A    between atoms: C_16  and  O_18
REMARK                            x       y       z     vdW  Elec       q    Type
REMARK                         _______ _______ _______ _____ _____    ______ ____
ROOT
ATOM      1  N   UNL     1       6.561   4.496  17.488  0.00  0.00    +0.000 N 
ATOM      2  H   UNL     1       7.040   3.678  17.843  0.00  0.00    +0.000 HD
ENDROOT
BRANCH   1   3
ATOM      3  C   UNL     1       7.101   5.757  17.847  0.00  0.00    +0.000 A 
ATOM      4  C   UNL     1       7.934   5.909  18.959  0.00  0.00    +0.000 A 
ATOM      5  C   UNL     1       8.503   7.147  19.272  0.00  0.00    +0.000 A 
ATOM      6  C   UNL     1       8.252   8.262  18.468  0.00  0.00    +0.000 A 
ATOM      7  C   UNL     1       7.446   8.112  17.333  0.00  0.00    +0.000 A 
ATOM      8  C   UNL     1       6.879   6.865  17.019  0.00  0.00    +0.000 A 
BRANCH   6   9
ATOM      9  C   UNL     1       8.871   9.585  18.760  0.00  0.00    +0.000 C 
ATOM     10  O   UNL     1       9.099   9.940  19.910  0.00  0.00    +0.000 OA
ATOM     11  N   UNL     1       9.161  10.373  17.667  0.00  0.00    +0.000 N 
ATOM     12  H   UNL     1       9.104  10.000  16.723  0.00  0.00    +0.000 HD
BRANCH  11  13
ATOM     13  C   UNL     1       9.721  11.705  17.800  0.00  0.00    +0.000 C 
BRANCH  13  14
ATOM     14  C   UNL     1       8.608  12.738  17.706  0.00  0.00    +0.000 C 
ATOM     15  O   UNL     1       7.605  12.605  17.018  0.00  0.00    +0.000 OA
BRANCH  14  16
ATOM     16  O   UNL     1       8.828  13.842  18.460  0.00  0.00    +0.000 OA
ATOM     17  H   UNL     1       9.694  13.857  18.909  0.00  0.00    +0.000 HD
ENDBRANCH  14  16
ENDBRANCH  13  14
ENDBRANCH  11  13
ENDBRANCH   6   9
ENDBRANCH   1   3
BRANCH   1  18
ATOM     18  C   UNL     1       5.601   4.256  16.503  0.00  0.00    +0.000 C 
ATOM     19  S   UNL     1       5.937   4.086  14.860  0.00  0.00    +0.000 S 
BRANCH  18  20
ATOM     20  N   UNL     1       4.317   4.124  17.048  0.00  0.00    +0.000 N 
ATOM     21  H   UNL     1       4.114   3.298  17.598  0.00  0.00    +0.000 HD
BRANCH  20  24
ATOM     22  C   UNL     1       3.627   4.816  19.785  0.00  0.00    +0.000 C 
ATOM     23  C   UNL     1       3.338   5.631  18.545  0.00  0.00    +0.000 C 
ATOM     24  N   UNL     1       3.615   5.263  17.329  0.00  0.00    +0.000 NA
BRANCH  23  25
ATOM     25  C   UNL     1       2.650   6.964  18.728  0.00  0.00    +0.000 A 
ATOM     26  C   UNL     1       2.582   7.916  17.701  0.00  0.00    +0.000 A 
ATOM     27  C   UNL     1       1.945   9.145  17.913  0.00  0.00    +0.000 A 
ATOM     28  C   UNL     1       1.370   9.429  19.149  0.00  0.00    +0.000 A 
ATOM     29 BR   UNL     1       0.527  11.097  19.433  0.00  0.00    +0.000 Br
ATOM     30  C   UNL     1       1.416   8.491  20.176  0.00  0.00    +0.000 A 
ATOM     31  C   UNL     1       2.054   7.263  19.965  0.00  0.00    +0.000 A 
ENDBRANCH  23  25
ENDBRANCH  20  24
ENDBRANCH  18  20
ENDBRANCH   1  18
TORSDOF 9
ENDMDL
