MODEL 1
REMARK VINA RESULT:      -7.1      0.000      0.000
REMARK  Name = 
REMARK  11 active torsions:
REMARK  status: ('A' for Active; 'I' for Inactive)
REMARK    1  A    between atoms: C_1  and  O_2
REMARK    2  A    between atoms: O_2  and  C_3
REMARK    3  A    between atoms: C_3  and  C_5
REMARK    4  A    between atoms: C_5  and  S_15
REMARK    5  A    between atoms: N_6  and  N_7
REMARK    6  A    between atoms: N_7  and  C_8
REMARK    7  A    between atoms: S_15  and  C_16
REMARK    8  A    between atoms: C_19  and  C_20
REMARK    9  A    between atoms: C_23  and  O_24
REMARK   10  A    between atoms: O_24  and  C_25
REMARK   11  A    between atoms: N_28  and  C_29
REMARK                            x       y       z     vdW  Elec       q    Type
REMARK                         _______ _______ _______ _____ _____    ______ ____
ROOT
ATOM      1  C   UNL     1       2.906   5.022  19.348  0.00  0.00    +0.000 C 
ATOM      2  N   UNL     1       4.151   4.874  19.014  0.00  0.00    +0.000 NA
ENDROOT
BRANCH   1   3
ATOM      3  C   UNL     1       1.723   4.300  18.725  0.00  0.00    +0.000 C 
ATOM      4  O   UNL     1       1.477   4.373  17.531  0.00  0.00    +0.000 OA
BRANCH   3   6
ATOM      5  C   UNL     1       1.479   2.661  20.401  0.00  0.00    +0.000 C 
ATOM      6  O   UNL     1       0.927   3.760  19.674  0.00  0.00    +0.000 OA
ENDBRANCH   3   6
ENDBRANCH   1   3
BRANCH   2   7
ATOM      7  N   UNL     1       4.443   3.908  18.102  0.00  0.00    +0.000 N 
ATOM      8  H   UNL     1       3.993   2.990  18.109  0.00  0.00    +0.000 HD
BRANCH   7   9
ATOM      9  C   UNL     1       5.251   4.216  16.994  0.00  0.00    +0.000 A 
ATOM     10  C   UNL     1       6.608   4.546  17.129  0.00  0.00    +0.000 A 
ATOM     11  C   UNL     1       7.394   4.847  16.013  0.00  0.00    +0.000 A 
ATOM     12  C   UNL     1       6.824   4.821  14.744  0.00  0.00    +0.000 A 
ATOM     13 CL   UNL     1       7.784   5.203  13.367  0.00  0.00    +0.000 Cl
ATOM     14  C   UNL     1       5.485   4.480  14.581  0.00  0.00    +0.000 A 
ATOM     15  C   UNL     1       4.704   4.175  15.703  0.00  0.00    +0.000 A 
ENDBRANCH   7   9
ENDBRANCH   2   7
BRANCH   1  16
ATOM     16  S   UNL     1       2.383   6.278  20.439  0.00  0.00    +0.000 S 
BRANCH  16  17
ATOM     17  C   UNL     1       2.049   7.594  19.379  0.00  0.00    +0.000 A 
ATOM     18  N   UNL     1       2.440   7.694  18.135  0.00  0.00    +0.000 NA
ATOM     19  N   UNL     1       2.007   8.912  17.668  0.00  0.00    +0.000 NA
ATOM     20  C   UNL     1       1.399   9.556  18.651  0.00  0.00    +0.000 A 
ATOM     21  N   UNL     1       1.307   8.694  19.728  0.00  0.00    +0.000 N 
ATOM     22  C   UNL     1       0.560   8.874  20.950  0.00  0.00    +0.000 C 
BRANCH  20  23
ATOM     23  C   UNL     1       0.938  10.943  18.584  0.00  0.00    +0.000 A 
ATOM     24  C   UNL     1       1.857  11.994  18.683  0.00  0.00    +0.000 A 
ATOM     25  C   UNL     1       1.422  13.325  18.648  0.00  0.00    +0.000 A 
ATOM     26  C   UNL     1       0.068  13.625  18.505  0.00  0.00    +0.000 A 
ATOM     27  C   UNL     1      -0.860  12.585  18.450  0.00  0.00    +0.000 A 
ATOM     28  C   UNL     1      -0.423  11.257  18.504  0.00  0.00    +0.000 A 
BRANCH  26  29
ATOM     29  O   UNL     1      -0.246  14.955  18.479  0.00  0.00    +0.000 OA
ATOM     30  C   UNL     1      -0.144  15.636  19.726  0.00  0.00    +0.000 C 
ENDBRANCH  26  29
ENDBRANCH  20  23
ENDBRANCH  16  17
ENDBRANCH   1  16
TORSDOF 8
ENDMDL
MODEL 2
REMARK VINA RESULT:      -6.8      3.150      4.234
REMARK  Name = 
REMARK  11 active torsions:
REMARK  status: ('A' for Active; 'I' for Inactive)
REMARK    1  A    between atoms: C_1  and  O_2
REMARK    2  A    between atoms: O_2  and  C_3
REMARK    3  A    between atoms: C_3  and  C_5
REMARK    4  A    between atoms: C_5  and  S_15
REMARK    5  A    between atoms: N_6  and  N_7
REMARK    6  A    between atoms: N_7  and  C_8
REMARK    7  A    between atoms: S_15  and  C_16
REMARK    8  A    between atoms: C_19  and  C_20
REMARK    9  A    between atoms: C_23  and  O_24
REMARK   10  A    between atoms: O_24  and  C_25
REMARK   11  A    between atoms: N_28  and  C_29
REMARK                            x       y       z     vdW  Elec       q    Type
REMARK                         _______ _______ _______ _____ _____    ______ ____
ROOT
ATOM      1  C   UNL     1       5.122   5.731  17.106  0.00  0.00    +0.000 C 
ATOM      2  N   UNL     1       4.878   5.479  15.857  0.00  0.00    +0.000 NA
ENDROOT
BRANCH   1   3
ATOM      3  C   UNL     1       6.423   6.278  17.670  0.00  0.00    +0.000 C 
ATOM      4  O   UNL     1       6.953   5.794  18.657  0.00  0.00    +0.000 OA
BRANCH   3   6
ATOM      5  C   UNL     1       7.828   8.170  17.676  0.00  0.00    +0.000 C 
ATOM      6  O   UNL     1       6.772   7.432  17.059  0.00  0.00    +0.000 OA
ENDBRANCH   3   6
ENDBRANCH   1   3
BRANCH   2   7
ATOM      7  N   UNL     1       5.829   5.836  14.951  0.00  0.00    +0.000 N 
ATOM      8  H   UNL     1       6.396   6.680  15.051  0.00  0.00    +0.000 HD
BRANCH   7   9
ATOM      9  C   UNL     1       6.189   4.941  13.929  0.00  0.00    +0.000 A 
ATOM     10  C   UNL     1       7.387   5.073  13.210  0.00  0.00    +0.000 A 
ATOM     11  C   UNL     1       7.726   4.170  12.198  0.00  0.00    +0.000 A 
ATOM     12  C   UNL     1       6.863   3.121  11.896  0.00  0.00    +0.000 A 
ATOM     13 CL   UNL     1       7.269   2.013  10.643  0.00  0.00    +0.000 Cl
ATOM     14  C   UNL     1       5.677   2.958  12.605  0.00  0.00    +0.000 A 
ATOM     15  C   UNL     1       5.345   3.864  13.620  0.00  0.00    +0.000 A 
ENDBRANCH   7   9
ENDBRANCH   2   7
BRANCH   1  16
ATOM     16  S   UNL     1       4.030   5.249  18.378  0.00  0.00    +0.000 S 
BRANCH  16  17
ATOM     17  C   UNL     1       3.103   6.674  18.651  0.00  0.00    +0.000 A 
ATOM     18  N   UNL     1       3.086   7.736  17.888  0.00  0.00    +0.000 NA
ATOM     19  N   UNL     1       2.260   8.657  18.487  0.00  0.00    +0.000 NA
ATOM     20  C   UNL     1       1.824   8.158  19.632  0.00  0.00    +0.000 A 
ATOM     21  N   UNL     1       2.253   6.847  19.714  0.00  0.00    +0.000 N 
ATOM     22  C   UNL     1       1.866   5.844  20.678  0.00  0.00    +0.000 C 
BRANCH  20  23
ATOM     23  C   UNL     1       1.047   8.900  20.625  0.00  0.00    +0.000 A 
ATOM     24  C   UNL     1       0.081   9.826  20.212  0.00  0.00    +0.000 A 
ATOM     25  C   UNL     1      -0.649  10.562  21.154  0.00  0.00    +0.000 A 
ATOM     26  C   UNL     1      -0.433  10.377  22.520  0.00  0.00    +0.000 A 
ATOM     27  C   UNL     1       0.557   9.489  22.940  0.00  0.00    +0.000 A 
ATOM     28  C   UNL     1       1.297   8.770  21.996  0.00  0.00    +0.000 A 
BRANCH  26  29
ATOM     29  O   UNL     1      -1.201  11.142  23.352  0.00  0.00    +0.000 OA
ATOM     30  C   UNL     1      -1.421  12.484  22.925  0.00  0.00    +0.000 C 
ENDBRANCH  26  29
ENDBRANCH  20  23
ENDBRANCH  16  17
ENDBRANCH   1  16
TORSDOF 8
ENDMDL
MODEL 3
REMARK VINA RESULT:      -6.7      1.388      1.917
REMARK  Name = 
REMARK  11 active torsions:
REMARK  status: ('A' for Active; 'I' for Inactive)
REMARK    1  A    between atoms: C_1  and  O_2
REMARK    2  A    between atoms: O_2  and  C_3
REMARK    3  A    between atoms: C_3  and  C_5
REMARK    4  A    between atoms: C_5  and  S_15
REMARK    5  A    between atoms: N_6  and  N_7
REMARK    6  A    between atoms: N_7  and  C_8
REMARK    7  A    between atoms: S_15  and  C_16
REMARK    8  A    between atoms: C_19  and  C_20
REMARK    9  A    between atoms: C_23  and  O_24
REMARK   10  A    between atoms: O_24  and  C_25
REMARK   11  A    between atoms: N_28  and  C_29
REMARK                            x       y       z     vdW  Elec       q    Type
REMARK                         _______ _______ _______ _____ _____    ______ ____
ROOT
ATOM      1  C   UNL     1       3.890   4.839  19.730  0.00  0.00    +0.000 C 
ATOM      2  N   UNL     1       4.791   5.574  19.155  0.00  0.00    +0.000 NA
ENDROOT
BRANCH   1   3
ATOM      3  C   UNL     1       3.881   3.320  19.789  0.00  0.00    +0.000 C 
ATOM      4  O   UNL     1       4.902   2.674  19.960  0.00  0.00    +0.000 OA
BRANCH   3   6
ATOM      5  C   UNL     1       2.612   2.104  18.219  0.00  0.00    +0.000 C 
ATOM      6  O   UNL     1       2.669   2.826  19.450  0.00  0.00    +0.000 OA
ENDBRANCH   3   6
ENDBRANCH   1   3
BRANCH   2   7
ATOM      7  N   UNL     1       5.886   4.942  18.653  0.00  0.00    +0.000 N 
ATOM      8  H   UNL     1       6.574   4.475  19.248  0.00  0.00    +0.000 HD
BRANCH   7   9
ATOM      9  C   UNL     1       6.007   4.752  17.265  0.00  0.00    +0.000 A 
ATOM     10  C   UNL     1       4.902   4.454  16.454  0.00  0.00    +0.000 A 
ATOM     11  C   UNL     1       5.045   4.270  15.076  0.00  0.00    +0.000 A 
ATOM     12  C   UNL     1       6.304   4.384  14.495  0.00  0.00    +0.000 A 
ATOM     13 CL   UNL     1       6.488   4.147  12.800  0.00  0.00    +0.000 Cl
ATOM     14  C   UNL     1       7.414   4.695  15.274  0.00  0.00    +0.000 A 
ATOM     15  C   UNL     1       7.262   4.881  16.654  0.00  0.00    +0.000 A 
ENDBRANCH   7   9
ENDBRANCH   2   7
BRANCH   1  16
ATOM     16  S   UNL     1       2.399   5.508  20.339  0.00  0.00    +0.000 S 
BRANCH  16  17
ATOM     17  C   UNL     1       2.147   6.875  19.322  0.00  0.00    +0.000 A 
ATOM     18  N   UNL     1       2.390   6.931  18.038  0.00  0.00    +0.000 NA
ATOM     19  N   UNL     1       2.100   8.208  17.622  0.00  0.00    +0.000 NA
ATOM     20  C   UNL     1       1.730   8.925  18.671  0.00  0.00    +0.000 A 
ATOM     21  N   UNL     1       1.639   8.073  19.755  0.00  0.00    +0.000 N 
ATOM     22  C   UNL     1       1.088   8.352  21.061  0.00  0.00    +0.000 C 
BRANCH  20  23
ATOM     23  C   UNL     1       1.489  10.368  18.655  0.00  0.00    +0.000 A 
ATOM     24  C   UNL     1       0.227  10.874  18.989  0.00  0.00    +0.000 A 
ATOM     25  C   UNL     1      -0.021  12.252  18.949  0.00  0.00    +0.000 A 
ATOM     26  C   UNL     1       0.988  13.144  18.585  0.00  0.00    +0.000 A 
ATOM     27  C   UNL     1       2.235  12.647  18.209  0.00  0.00    +0.000 A 
ATOM     28  C   UNL     1       2.473  11.269  18.231  0.00  0.00    +0.000 A 
BRANCH  26  29
ATOM     29  O   UNL     1       0.639  14.465  18.584  0.00  0.00    +0.000 OA
ATOM     30  C   UNL     1       1.720  15.387  18.703  0.00  0.00    +0.000 C 
ENDBRANCH  26  29
ENDBRANCH  20  23
ENDBRANCH  16  17
ENDBRANCH   1  16
TORSDOF 8
ENDMDL
MODEL 4
REMARK VINA RESULT:      -6.7      3.739      5.497
REMARK  Name = 
REMARK  11 active torsions:
REMARK  status: ('A' for Active; 'I' for Inactive)
REMARK    1  A    between atoms: C_1  and  O_2
REMARK    2  A    between atoms: O_2  and  C_3
REMARK    3  A    between atoms: C_3  and  C_5
REMARK    4  A    between atoms: C_5  and  S_15
REMARK    5  A    between atoms: N_6  and  N_7
REMARK    6  A    between atoms: N_7  and  C_8
REMARK    7  A    between atoms: S_15  and  C_16
REMARK    8  A    between atoms: C_19  and  C_20
REMARK    9  A    between atoms: C_23  and  O_24
REMARK   10  A    between atoms: O_24  and  C_25
REMARK   11  A    between atoms: N_28  and  C_29
REMARK                            x       y       z     vdW  Elec       q    Type
REMARK                         _______ _______ _______ _____ _____    ______ ____
ROOT
ATOM      1  C   UNL     1       0.904   9.228  20.551  0.00  0.00    +0.000 C 
ATOM      2  N   UNL     1       1.445   8.247  19.897  0.00  0.00    +0.000 NA
ENDROOT
BRANCH   1   3
ATOM      3  C   UNL     1       0.820   9.355  22.063  0.00  0.00    +0.000 C 
ATOM      4  O   UNL     1       1.819   9.404  22.763  0.00  0.00    +0.000 OA
BRANCH   3   6
ATOM      5  C   UNL     1      -0.985  10.321  23.230  0.00  0.00    +0.000 C 
ATOM      6  O   UNL     1      -0.453   9.218  22.495  0.00  0.00    +0.000 OA
ENDBRANCH   3   6
ENDBRANCH   1   3
BRANCH   2   7
ATOM      7  N   UNL     1       2.096   7.297  20.622  0.00  0.00    +0.000 N 
ATOM      8  H   UNL     1       2.375   7.441  21.595  0.00  0.00    +0.000 HD
BRANCH   7   9
ATOM      9  C   UNL     1       2.243   6.000  20.100  0.00  0.00    +0.000 A 
ATOM     10  C   UNL     1       1.524   4.907  20.606  0.00  0.00    +0.000 A 
ATOM     11  C   UNL     1       1.684   3.625  20.071  0.00  0.00    +0.000 A 
ATOM     12  C   UNL     1       2.571   3.427  19.018  0.00  0.00    +0.000 A 
ATOM     13 CL   UNL     1       2.782   1.849  18.362  0.00  0.00    +0.000 Cl
ATOM     14  C   UNL     1       3.284   4.498  18.486  0.00  0.00    +0.000 A 
ATOM     15  C   UNL     1       3.115   5.779  19.025  0.00  0.00    +0.000 A 
ENDBRANCH   7   9
ENDBRANCH   2   7
BRANCH   1  16
ATOM     16  S   UNL     1      -0.034  10.465  19.755  0.00  0.00    +0.000 S 
BRANCH  16  17
ATOM     17  C   UNL     1       1.175  11.474  19.057  0.00  0.00    +0.000 A 
ATOM     18  N   UNL     1       2.013  11.127  18.115  0.00  0.00    +0.000 NA
ATOM     19  N   UNL     1       2.835  12.204  17.883  0.00  0.00    +0.000 NA
ATOM     20  C   UNL     1       2.515  13.175  18.723  0.00  0.00    +0.000 A 
ATOM     21  N   UNL     1       1.382  12.784  19.410  0.00  0.00    +0.000 N 
ATOM     22  C   UNL     1       0.554  13.580  20.284  0.00  0.00    +0.000 C 
BRANCH  20  23
ATOM     23  C   UNL     1       3.264  14.421  18.884  0.00  0.00    +0.000 A 
ATOM     24  C   UNL     1       4.063  14.619  20.017  0.00  0.00    +0.000 A 
ATOM     25  C   UNL     1       4.762  15.820  20.195  0.00  0.00    +0.000 A 
ATOM     26  C   UNL     1       4.681  16.835  19.242  0.00  0.00    +0.000 A 
ATOM     27  C   UNL     1       3.854  16.665  18.132  0.00  0.00    +0.000 A 
ATOM     28  C   UNL     1       3.143  15.472  17.968  0.00  0.00    +0.000 A 
BRANCH  26  29
ATOM     29  O   UNL     1       5.405  17.962  19.513  0.00  0.00    +0.000 OA
ATOM     30  C   UNL     1       6.517  17.784  20.386  0.00  0.00    +0.000 C 
ENDBRANCH  26  29
ENDBRANCH  20  23
ENDBRANCH  16  17
ENDBRANCH   1  16
TORSDOF 8
ENDMDL
MODEL 5
REMARK VINA RESULT:      -6.7      0.630      1.390
REMARK  Name = 
REMARK  11 active torsions:
REMARK  status: ('A' for Active; 'I' for Inactive)
REMARK    1  A    between atoms: C_1  and  O_2
REMARK    2  A    between atoms: O_2  and  C_3
REMARK    3  A    between atoms: C_3  and  C_5
REMARK    4  A    between atoms: C_5  and  S_15
REMARK    5  A    between atoms: N_6  and  N_7
REMARK    6  A    between atoms: N_7  and  C_8
REMARK    7  A    between atoms: S_15  and  C_16
REMARK    8  A    between atoms: C_19  and  C_20
REMARK    9  A    between atoms: C_23  and  O_24
REMARK   10  A    between atoms: O_24  and  C_25
REMARK   11  A    between atoms: N_28  and  C_29
REMARK                            x       y       z     vdW  Elec       q    Type
REMARK                         _______ _______ _______ _____ _____    ______ ____
ROOT
ATOM      1  C   UNL     1       2.660   5.049  19.790  0.00  0.00    +0.000 C 
ATOM      2  N   UNL     1       3.926   4.958  19.521  0.00  0.00    +0.000 NA
ENDROOT
BRANCH   1   3
ATOM      3  C   UNL     1       1.551   4.221  19.161  0.00  0.00    +0.000 C 
ATOM      4  O   UNL     1       1.382   4.181  17.953  0.00  0.00    +0.000 OA
BRANCH   3   6
ATOM      5  C   UNL     1       1.269   2.722  20.957  0.00  0.00    +0.000 C 
ATOM      6  O   UNL     1       0.719   3.725  20.102  0.00  0.00    +0.000 OA
ENDBRANCH   3   6
ENDBRANCH   1   3
BRANCH   2   7
ATOM      7  N   UNL     1       4.317   3.961  18.683  0.00  0.00    +0.000 N 
ATOM      8  H   UNL     1       3.983   2.999  18.777  0.00  0.00    +0.000 HD
BRANCH   7   9
ATOM      9  C   UNL     1       5.061   4.269  17.531  0.00  0.00    +0.000 A 
ATOM     10  C   UNL     1       4.534   4.119  16.240  0.00  0.00    +0.000 A 
ATOM     11  C   UNL     1       5.292   4.433  15.108  0.00  0.00    +0.000 A 
ATOM     12  C   UNL     1       6.593   4.903  15.261  0.00  0.00    +0.000 A 
ATOM     13 CL   UNL     1       7.535   5.280  13.871  0.00  0.00    +0.000 Cl
ATOM     14  C   UNL     1       7.133   5.077  16.531  0.00  0.00    +0.000 A 
ATOM     15  C   UNL     1       6.367   4.764  17.661  0.00  0.00    +0.000 A 
ENDBRANCH   7   9
ENDBRANCH   2   7
BRANCH   1  16
ATOM     16  S   UNL     1       2.012   6.332  20.779  0.00  0.00    +0.000 S 
BRANCH  16  17
ATOM     17  C   UNL     1       1.908   7.651  19.677  0.00  0.00    +0.000 A 
ATOM     18  N   UNL     1       2.266   7.630  18.420  0.00  0.00    +0.000 NA
ATOM     19  N   UNL     1       2.067   8.894  17.917  0.00  0.00    +0.000 NA
ATOM     20  C   UNL     1       1.635   9.678  18.891  0.00  0.00    +0.000 A 
ATOM     21  N   UNL     1       1.413   8.888  20.003  0.00  0.00    +0.000 N 
ATOM     22  C   UNL     1       0.761   9.255  21.238  0.00  0.00    +0.000 C 
BRANCH  20  23
ATOM     23  C   UNL     1       1.456  11.126  18.782  0.00  0.00    +0.000 A 
ATOM     24  C   UNL     1       0.232  11.711  19.130  0.00  0.00    +0.000 A 
ATOM     25  C   UNL     1       0.042  13.093  19.002  0.00  0.00    +0.000 A 
ATOM     26  C   UNL     1       1.071  13.910  18.535  0.00  0.00    +0.000 A 
ATOM     27  C   UNL     1       2.278  13.332  18.145  0.00  0.00    +0.000 A 
ATOM     28  C   UNL     1       2.458  11.949  18.256  0.00  0.00    +0.000 A 
BRANCH  26  29
ATOM     29  O   UNL     1       0.780  15.243  18.454  0.00  0.00    +0.000 OA
ATOM     30  C   UNL     1      -0.479  15.632  18.996  0.00  0.00    +0.000 C 
ENDBRANCH  26  29
ENDBRANCH  20  23
ENDBRANCH  16  17
ENDBRANCH   1  16
TORSDOF 8
ENDMDL
MODEL 6
REMARK VINA RESULT:      -6.6      0.991      1.031
REMARK  Name = 
REMARK  11 active torsions:
REMARK  status: ('A' for Active; 'I' for Inactive)
REMARK    1  A    between atoms: C_1  and  O_2
REMARK    2  A    between atoms: O_2  and  C_3
REMARK    3  A    between atoms: C_3  and  C_5
REMARK    4  A    between atoms: C_5  and  S_15
REMARK    5  A    between atoms: N_6  and  N_7
REMARK    6  A    between atoms: N_7  and  C_8
REMARK    7  A    between atoms: S_15  and  C_16
REMARK    8  A    between atoms: C_19  and  C_20
REMARK    9  A    between atoms: C_23  and  O_24
REMARK   10  A    between atoms: O_24  and  C_25
REMARK   11  A    between atoms: N_28  and  C_29
REMARK                            x       y       z     vdW  Elec       q    Type
REMARK                         _______ _______ _______ _____ _____    ______ ____
ROOT
ATOM      1  C   UNL     1       3.638   4.479  18.854  0.00  0.00    +0.000 C 
ATOM      2  N   UNL     1       4.811   4.506  18.300  0.00  0.00    +0.000 NA
ENDROOT
BRANCH   1   3
ATOM      3  C   UNL     1       2.456   3.636  18.403  0.00  0.00    +0.000 C 
ATOM      4  O   UNL     1       1.922   3.800  17.317  0.00  0.00    +0.000 OA
BRANCH   3   6
ATOM      5  C   UNL     1       0.583   2.684  19.469  0.00  0.00    +0.000 C 
ATOM      6  O   UNL     1       1.999   2.859  19.409  0.00  0.00    +0.000 OA
ENDBRANCH   3   6
ENDBRANCH   1   3
BRANCH   2   7
ATOM      7  N   UNL     1       5.047   3.622  17.293  0.00  0.00    +0.000 N 
ATOM      8  H   UNL     1       4.613   2.697  17.259  0.00  0.00    +0.000 HD
BRANCH   7   9
ATOM      9  C   UNL     1       5.763   4.034  16.156  0.00  0.00    +0.000 A 
ATOM     10  C   UNL     1       6.863   4.900  16.242  0.00  0.00    +0.000 A 
ATOM     11  C   UNL     1       7.562   5.297  15.097  0.00  0.00    +0.000 A 
ATOM     12  C   UNL     1       7.162   4.826  13.851  0.00  0.00    +0.000 A 
ATOM     13 CL   UNL     1       8.011   5.320  12.438  0.00  0.00    +0.000 Cl
ATOM     14  C   UNL     1       6.085   3.952  13.740  0.00  0.00    +0.000 A 
ATOM     15  C   UNL     1       5.392   3.556  14.891  0.00  0.00    +0.000 A 
ENDBRANCH   7   9
ENDBRANCH   2   7
BRANCH   1  16
ATOM     16  S   UNL     1       3.173   5.614  20.094  0.00  0.00    +0.000 S 
BRANCH  16  17
ATOM     17  C   UNL     1       2.521   6.926  19.190  0.00  0.00    +0.000 A 
ATOM     18  N   UNL     1       2.669   7.121  17.906  0.00  0.00    +0.000 NA
ATOM     19  N   UNL     1       2.036   8.301  17.596  0.00  0.00    +0.000 NA
ATOM     20  C   UNL     1       1.553   8.832  18.708  0.00  0.00    +0.000 A 
ATOM     21  N   UNL     1       1.746   7.922  19.730  0.00  0.00    +0.000 N 
ATOM     22  C   UNL     1       1.216   7.967  21.072  0.00  0.00    +0.000 C 
BRANCH  20  23
ATOM     23  C   UNL     1       0.948  10.160  18.806  0.00  0.00    +0.000 A 
ATOM     24  C   UNL     1       1.697  11.240  19.289  0.00  0.00    +0.000 A 
ATOM     25  C   UNL     1       1.119  12.509  19.413  0.00  0.00    +0.000 A 
ATOM     26  C   UNL     1      -0.211  12.721  19.050  0.00  0.00    +0.000 A 
ATOM     27  C   UNL     1      -0.978  11.643  18.609  0.00  0.00    +0.000 A 
ATOM     28  C   UNL     1      -0.402  10.373  18.504  0.00  0.00    +0.000 A 
BRANCH  26  29
ATOM     29  O   UNL     1      -0.673  13.998  19.207  0.00  0.00    +0.000 OA
ATOM     30  C   UNL     1      -0.380  14.608  20.461  0.00  0.00    +0.000 C 
ENDBRANCH  26  29
ENDBRANCH  20  23
ENDBRANCH  16  17
ENDBRANCH   1  16
TORSDOF 8
ENDMDL
MODEL 7
REMARK VINA RESULT:      -6.5      3.833      9.089
REMARK  Name = 
REMARK  11 active torsions:
REMARK  status: ('A' for Active; 'I' for Inactive)
REMARK    1  A    between atoms: C_1  and  O_2
REMARK    2  A    between atoms: O_2  and  C_3
REMARK    3  A    between atoms: C_3  and  C_5
REMARK    4  A    between atoms: C_5  and  S_15
REMARK    5  A    between atoms: N_6  and  N_7
REMARK    6  A    between atoms: N_7  and  C_8
REMARK    7  A    between atoms: S_15  and  C_16
REMARK    8  A    between atoms: C_19  and  C_20
REMARK    9  A    between atoms: C_23  and  O_24
REMARK   10  A    between atoms: O_24  and  C_25
REMARK   11  A    between atoms: N_28  and  C_29
REMARK                            x       y       z     vdW  Elec       q    Type
REMARK                         _______ _______ _______ _____ _____    ______ ____
ROOT
ATOM      1  C   UNL     1      -0.582  12.113  19.795  0.00  0.00    +0.000 C 
ATOM      2  N   UNL     1      -1.391  11.102  19.722  0.00  0.00    +0.000 NA
ENDROOT
BRANCH   1   3
ATOM      3  C   UNL     1      -0.846  13.508  19.251  0.00  0.00    +0.000 C 
ATOM      4  O   UNL     1      -0.261  13.940  18.270  0.00  0.00    +0.000 OA
BRANCH   3   6
ATOM      5  C   UNL     1      -0.971  15.172  20.915  0.00  0.00    +0.000 C 
ATOM      6  O   UNL     1      -1.636  14.216  20.087  0.00  0.00    +0.000 OA
ENDBRANCH   3   6
ENDBRANCH   1   3
BRANCH   2   7
ATOM      7  N   UNL     1      -2.632  11.328  19.213  0.00  0.00    +0.000 N 
ATOM      8  H   UNL     1      -3.346  11.858  19.718  0.00  0.00    +0.000 HD
BRANCH   7   9
ATOM      9  C   UNL     1      -2.911  10.992  17.877  0.00  0.00    +0.000 A 
ATOM     10  C   UNL     1      -2.104  10.106  17.147  0.00  0.00    +0.000 A 
ATOM     11  C   UNL     1      -2.400   9.785  15.819  0.00  0.00    +0.000 A 
ATOM     12  C   UNL     1      -3.514  10.351  15.208  0.00  0.00    +0.000 A 
ATOM     13 CL   UNL     1      -3.877   9.968  13.570  0.00  0.00    +0.000 Cl
ATOM     14  C   UNL     1      -4.340  11.219  15.915  0.00  0.00    +0.000 A 
ATOM     15  C   UNL     1      -4.040  11.534  17.246  0.00  0.00    +0.000 A 
ENDBRANCH   7   9
ENDBRANCH   2   7
BRANCH   1  16
ATOM     16  S   UNL     1       1.064  11.946  20.345  0.00  0.00    +0.000 S 
BRANCH  16  17
ATOM     17  C   UNL     1       1.168  10.274  20.745  0.00  0.00    +0.000 A 
ATOM     18  N   UNL     1       1.056   9.764  21.943  0.00  0.00    +0.000 NA
ATOM     19  N   UNL     1       1.250   8.408  21.830  0.00  0.00    +0.000 NA
ATOM     20  C   UNL     1       1.524   8.119  20.568  0.00  0.00    +0.000 A 
ATOM     21  N   UNL     1       1.368   9.275  19.826  0.00  0.00    +0.000 N 
ATOM     22  C   UNL     1       1.367   9.415  18.389  0.00  0.00    +0.000 C 
BRANCH  20  23
ATOM     23  C   UNL     1       1.939   6.803  20.083  0.00  0.00    +0.000 A 
ATOM     24  C   UNL     1       1.655   5.655  20.832  0.00  0.00    +0.000 A 
ATOM     25  C   UNL     1       2.073   4.394  20.390  0.00  0.00    +0.000 A 
ATOM     26  C   UNL     1       2.771   4.259  19.190  0.00  0.00    +0.000 A 
ATOM     27  C   UNL     1       3.098   5.400  18.458  0.00  0.00    +0.000 A 
ATOM     28  C   UNL     1       2.695   6.661  18.913  0.00  0.00    +0.000 A 
BRANCH  26  29
ATOM     29  O   UNL     1       3.127   2.984  18.851  0.00  0.00    +0.000 OA
ATOM     30  C   UNL     1       2.608   2.509  17.612  0.00  0.00    +0.000 C 
ENDBRANCH  26  29
ENDBRANCH  20  23
ENDBRANCH  16  17
ENDBRANCH   1  16
TORSDOF 8
ENDMDL
MODEL 8
REMARK VINA RESULT:      -6.4      5.364     10.556
REMARK  Name = 
REMARK  11 active torsions:
REMARK  status: ('A' for Active; 'I' for Inactive)
REMARK    1  A    between atoms: C_1  and  O_2
REMARK    2  A    between atoms: O_2  and  C_3
REMARK    3  A    between atoms: C_3  and  C_5
REMARK    4  A    between atoms: C_5  and  S_15
REMARK    5  A    between atoms: N_6  and  N_7
REMARK    6  A    between atoms: N_7  and  C_8
REMARK    7  A    between atoms: S_15  and  C_16
REMARK    8  A    between atoms: C_19  and  C_20
REMARK    9  A    between atoms: C_23  and  O_24
REMARK   10  A    between atoms: O_24  and  C_25
REMARK   11  A    between atoms: N_28  and  C_29
REMARK                            x       y       z     vdW  Elec       q    Type
REMARK                         _______ _______ _______ _____ _____    ______ ____
ROOT
ATOM      1  C   UNL     1      -1.272  12.076  19.658  0.00  0.00    +0.000 C 
ATOM      2  N   UNL     1      -2.132  12.455  20.552  0.00  0.00    +0.000 NA
ENDROOT
BRANCH   1   3
ATOM      3  C   UNL     1      -1.601  11.446  18.314  0.00  0.00    +0.000 C 
ATOM      4  O   UNL     1      -1.568  12.086  17.275  0.00  0.00    +0.000 OA
BRANCH   3   6
ATOM      5  C   UNL     1      -3.077   9.792  17.516  0.00  0.00    +0.000 C 
ATOM      6  O   UNL     1      -2.093  10.197  18.468  0.00  0.00    +0.000 OA
ENDBRANCH   3   6
ENDBRANCH   1   3
BRANCH   2   7
ATOM      7  N   UNL     1      -3.450  12.387  20.222  0.00  0.00    +0.000 N 
ATOM      8  H   UNL     1      -3.773  12.040  19.316  0.00  0.00    +0.000 HD
BRANCH   7   9
ATOM      9  C   UNL     1      -4.429  12.624  21.202  0.00  0.00    +0.000 A 
ATOM     10  C   UNL     1      -5.799  12.627  20.903  0.00  0.00    +0.000 A 
ATOM     11  C   UNL     1      -6.756  12.864  21.895  0.00  0.00    +0.000 A 
ATOM     12  C   UNL     1      -6.345  13.100  23.203  0.00  0.00    +0.000 A 
ATOM     13 CL   UNL     1      -7.517  13.404  24.426  0.00  0.00    +0.000 Cl
ATOM     14  C   UNL     1      -4.992  13.086  23.529  0.00  0.00    +0.000 A 
ATOM     15  C   UNL     1      -4.040  12.844  22.531  0.00  0.00    +0.000 A 
ENDBRANCH   7   9
ENDBRANCH   2   7
BRANCH   1  16
ATOM     16  S   UNL     1       0.441  12.029  19.980  0.00  0.00    +0.000 S 
BRANCH  16  17
ATOM     17  C   UNL     1       0.701  10.389  20.438  0.00  0.00    +0.000 A 
ATOM     18  N   UNL     1       0.467   9.876  21.618  0.00  0.00    +0.000 NA
ATOM     19  N   UNL     1       0.856   8.559  21.575  0.00  0.00    +0.000 NA
ATOM     20  C   UNL     1       1.365   8.302  20.381  0.00  0.00    +0.000 A 
ATOM     21  N   UNL     1       1.177   9.420  19.591  0.00  0.00    +0.000 N 
ATOM     22  C   UNL     1       1.388   9.550  18.169  0.00  0.00    +0.000 C 
BRANCH  20  23
ATOM     23  C   UNL     1       2.025   7.051  20.004  0.00  0.00    +0.000 A 
ATOM     24  C   UNL     1       2.889   7.017  18.903  0.00  0.00    +0.000 A 
ATOM     25  C   UNL     1       3.504   5.819  18.518  0.00  0.00    +0.000 A 
ATOM     26  C   UNL     1       3.272   4.642  19.230  0.00  0.00    +0.000 A 
ATOM     27  C   UNL     1       2.379   4.657  20.301  0.00  0.00    +0.000 A 
ATOM     28  C   UNL     1       1.753   5.852  20.671  0.00  0.00    +0.000 A 
BRANCH  26  29
ATOM     29  O   UNL     1       3.924   3.532  18.771  0.00  0.00    +0.000 OA
ATOM     30  C   UNL     1       4.261   2.564  19.760  0.00  0.00    +0.000 C 
ENDBRANCH  26  29
ENDBRANCH  20  23
ENDBRANCH  16  17
ENDBRANCH   1  16
TORSDOF 8
ENDMDL
MODEL 9
REMARK VINA RESULT:      -6.4      3.779      8.829
REMARK  Name = 
REMARK  11 active torsions:
REMARK  status: ('A' for Active; 'I' for Inactive)
REMARK    1  A    between atoms: C_1  and  O_2
REMARK    2  A    between atoms: O_2  and  C_3
REMARK    3  A    between atoms: C_3  and  C_5
REMARK    4  A    between atoms: C_5  and  S_15
REMARK    5  A    between atoms: N_6  and  N_7
REMARK    6  A    between atoms: N_7  and  C_8
REMARK    7  A    between atoms: S_15  and  C_16
REMARK    8  A    between atoms: C_19  and  C_20
REMARK    9  A    between atoms: C_23  and  O_24
REMARK   10  A    between atoms: O_24  and  C_25
REMARK   11  A    between atoms: N_28  and  C_29
REMARK                            x       y       z     vdW  Elec       q    Type
REMARK                         _______ _______ _______ _____ _____    ______ ____
ROOT
ATOM      1  C   UNL     1      -0.685  11.108  20.127  0.00  0.00    +0.000 C 
ATOM      2  N   UNL     1      -1.121  10.520  19.056  0.00  0.00    +0.000 NA
ENDROOT
BRANCH   1   3
ATOM      3  C   UNL     1      -1.438  12.145  20.946  0.00  0.00    +0.000 C 
ATOM      4  O   UNL     1      -2.194  12.951  20.428  0.00  0.00    +0.000 OA
BRANCH   3   6
ATOM      5  C   UNL     1      -1.931  11.642  23.194  0.00  0.00    +0.000 C 
ATOM      6  O   UNL     1      -1.013  12.155  22.228  0.00  0.00    +0.000 OA
ENDBRANCH   3   6
ENDBRANCH   1   3
BRANCH   2   7
ATOM      7  N   UNL     1      -2.407  10.765  18.687  0.00  0.00    +0.000 N 
ATOM      8  H   UNL     1      -3.083  11.213  19.310  0.00  0.00    +0.000 HD
BRANCH   7   9
ATOM      9  C   UNL     1      -2.799  10.574  17.351  0.00  0.00    +0.000 A 
ATOM     10  C   UNL     1      -2.101   9.720  16.484  0.00  0.00    +0.000 A 
ATOM     11  C   UNL     1      -2.509   9.543  15.159  0.00  0.00    +0.000 A 
ATOM     12  C   UNL     1      -3.626  10.225  14.687  0.00  0.00    +0.000 A 
ATOM     13 CL   UNL     1      -4.125  10.022  13.053  0.00  0.00    +0.000 Cl
ATOM     14  C   UNL     1      -4.345  11.066  15.531  0.00  0.00    +0.000 A 
ATOM     15  C   UNL     1      -3.933  11.235  16.859  0.00  0.00    +0.000 A 
ENDBRANCH   7   9
ENDBRANCH   2   7
BRANCH   1  16
ATOM     16  S   UNL     1       0.967  10.950  20.664  0.00  0.00    +0.000 S 
BRANCH  16  17
ATOM     17  C   UNL     1       1.276   9.268  20.468  0.00  0.00    +0.000 A 
ATOM     18  N   UNL     1       1.021   8.334  21.347  0.00  0.00    +0.000 NA
ATOM     19  N   UNL     1       1.463   7.144  20.820  0.00  0.00    +0.000 NA
ATOM     20  C   UNL     1       2.024   7.380  19.645  0.00  0.00    +0.000 A 
ATOM     21  N   UNL     1       1.819   8.712  19.337  0.00  0.00    +0.000 N 
ATOM     22  C   UNL     1       2.075   9.385  18.086  0.00  0.00    +0.000 C 
BRANCH  20  23
ATOM     23  C   UNL     1       2.746   6.387  18.848  0.00  0.00    +0.000 A 
ATOM     24  C   UNL     1       2.048   5.347  18.222  0.00  0.00    +0.000 A 
ATOM     25  C   UNL     1       2.733   4.376  17.480  0.00  0.00    +0.000 A 
ATOM     26  C   UNL     1       4.120   4.434  17.346  0.00  0.00    +0.000 A 
ATOM     27  C   UNL     1       4.827   5.441  18.002  0.00  0.00    +0.000 A 
ATOM     28  C   UNL     1       4.142   6.398  18.757  0.00  0.00    +0.000 A 
BRANCH  26  29
ATOM     29  O   UNL     1       4.686   3.440  16.598  0.00  0.00    +0.000 OA
ATOM     30  C   UNL     1       5.727   3.850  15.716  0.00  0.00    +0.000 C 
ENDBRANCH  26  29
ENDBRANCH  20  23
ENDBRANCH  16  17
ENDBRANCH   1  16
TORSDOF 8
ENDMDL
