MODEL 1
REMARK VINA RESULT:      -7.4      0.000      0.000
REMARK  Name = 
REMARK  6 active torsions:
REMARK  status: ('A' for Active; 'I' for Inactive)
REMARK    1  A    between atoms: C_1  and  O_2
REMARK    2  A    between atoms: O_2  and  C_3
REMARK    3  A    between atoms: C_8  and  N_9
REMARK    4  A    between atoms: C_13  and  C_14
REMARK    5  A    between atoms: N_16  and  C_17
REMARK    6  A    between atoms: C_17  and  C_18
REMARK                            x       y       z     vdW  Elec       q    Type
REMARK                         _______ _______ _______ _____ _____    ______ ____
ROOT
ATOM      1  N   UNL     1       4.146   4.834  18.172  0.00  0.00    +0.000 N 
ATOM      2  C   UNL     1       3.489   6.016  18.606  0.00  0.00    +0.000 A 
ATOM      3  C   UNL     1       2.759   5.948  19.802  0.00  0.00    +0.000 A 
ATOM      4  C   UNL     1       1.955   7.020  20.205  0.00  0.00    +0.000 A 
ATOM      5  C   UNL     1       1.876   8.145  19.390  0.00  0.00    +0.000 A 
ATOM      6  C   UNL     1       2.631   8.143  18.225  0.00  0.00    +0.000 A 
ATOM      7  N   UNL     1       3.421   7.112  17.823  0.00  0.00    +0.000 NA
ATOM      8  H   UNL     1       4.526   4.361  18.984  0.00  0.00    +0.000 HD
ENDROOT
BRANCH   1  14
ATOM      9  C   UNL     1       6.521   4.664  17.416  0.00  0.00    +0.000 A 
ATOM     10  C   UNL     1       7.412   4.487  16.348  0.00  0.00    +0.000 A 
ATOM     11  C   UNL     1       6.942   4.325  15.043  0.00  0.00    +0.000 A 
ATOM     12  C   UNL     1       5.576   4.342  14.792  0.00  0.00    +0.000 A 
ATOM     13  C   UNL     1       4.682   4.556  15.842  0.00  0.00    +0.000 A 
ATOM     14  C   UNL     1       5.140   4.764  17.153  0.00  0.00    +0.000 A 
BRANCH   9  16
ATOM     15  C   UNL     1       7.731   5.814  19.114  0.00  0.00    +0.000 C 
ATOM     16  O   UNL     1       6.913   4.715  18.732  0.00  0.00    +0.000 OA
ENDBRANCH   9  16
ENDBRANCH   1  14
BRANCH   5  17
ATOM     17  C   UNL     1       0.962   9.289  19.639  0.00  0.00    +0.000 C 
ATOM     18  O   UNL     1       0.632   9.560  20.786  0.00  0.00    +0.000 OA
ATOM     19  N   UNL     1       0.535  10.009  18.545  0.00  0.00    +0.000 N 
ATOM     20  H   UNL     1       0.715   9.692  17.603  0.00  0.00    +0.000 HD
BRANCH  19  21
ATOM     21  C   UNL     1      -0.283  11.195  18.691  0.00  0.00    +0.000 C 
BRANCH  21  22
ATOM     22  C   UNL     1      -1.627  10.910  18.096  0.00  0.00    +0.000 A 
ATOM     23  C   UNL     1      -1.941  10.018  17.088  0.00  0.00    +0.000 A 
ATOM     24  C   UNL     1      -3.328  10.033  16.762  0.00  0.00    +0.000 A 
ATOM     25  C   UNL     1      -4.028  10.932  17.535  0.00  0.00    +0.000 A 
ATOM     26  S   UNL     1      -3.018  11.746  18.648  0.00  0.00    +0.000 S 
ENDBRANCH  21  22
ENDBRANCH  19  21
ENDBRANCH   5  17
TORSDOF 5
ENDMDL
MODEL 2
REMARK VINA RESULT:      -7.2      2.344      3.162
REMARK  Name = 
REMARK  6 active torsions:
REMARK  status: ('A' for Active; 'I' for Inactive)
REMARK    1  A    between atoms: C_1  and  O_2
REMARK    2  A    between atoms: O_2  and  C_3
REMARK    3  A    between atoms: C_8  and  N_9
REMARK    4  A    between atoms: C_13  and  C_14
REMARK    5  A    between atoms: N_16  and  C_17
REMARK    6  A    between atoms: C_17  and  C_18
REMARK                            x       y       z     vdW  Elec       q    Type
REMARK                         _______ _______ _______ _____ _____    ______ ____
ROOT
ATOM      1  N   UNL     1       5.428   3.451  16.513  0.00  0.00    +0.000 N 
ATOM      2  C   UNL     1       4.711   4.196  17.487  0.00  0.00    +0.000 A 
ATOM      3  C   UNL     1       4.494   3.591  18.733  0.00  0.00    +0.000 A 
ATOM      4  C   UNL     1       3.659   4.196  19.680  0.00  0.00    +0.000 A 
ATOM      5  C   UNL     1       3.032   5.395  19.356  0.00  0.00    +0.000 A 
ATOM      6  C   UNL     1       3.299   5.937  18.106  0.00  0.00    +0.000 A 
ATOM      7  N   UNL     1       4.112   5.365  17.179  0.00  0.00    +0.000 NA
ATOM      8  H   UNL     1       6.173   2.946  16.979  0.00  0.00    +0.000 HD
ENDROOT
BRANCH   1  14
ATOM      9  C   UNL     1       7.114   4.811  15.269  0.00  0.00    +0.000 A 
ATOM     10  C   UNL     1       7.648   5.185  14.027  0.00  0.00    +0.000 A 
ATOM     11  C   UNL     1       7.123   4.671  12.839  0.00  0.00    +0.000 A 
ATOM     12  C   UNL     1       6.056   3.784  12.879  0.00  0.00    +0.000 A 
ATOM     13  C   UNL     1       5.492   3.436  14.107  0.00  0.00    +0.000 A 
ATOM     14  C   UNL     1       5.979   3.976  15.308  0.00  0.00    +0.000 A 
BRANCH   9  16
ATOM     15  C   UNL     1       7.357   6.503  16.925  0.00  0.00    +0.000 C 
ATOM     16  O   UNL     1       7.655   5.189  16.473  0.00  0.00    +0.000 OA
ENDBRANCH   9  16
ENDBRANCH   1  14
BRANCH   5  17
ATOM     17  C   UNL     1       2.025   6.065  20.218  0.00  0.00    +0.000 C 
ATOM     18  O   UNL     1       1.173   5.395  20.786  0.00  0.00    +0.000 OA
ATOM     19  N   UNL     1       2.113   7.434  20.349  0.00  0.00    +0.000 N 
ATOM     20  H   UNL     1       2.740   7.978  19.774  0.00  0.00    +0.000 HD
BRANCH  19  21
ATOM     21  C   UNL     1       1.236   8.167  21.237  0.00  0.00    +0.000 C 
BRANCH  21  22
ATOM     22  C   UNL     1       0.632   9.299  20.466  0.00  0.00    +0.000 A 
ATOM     23  C   UNL     1      -0.348  10.183  20.877  0.00  0.00    +0.000 A 
ATOM     24  C   UNL     1      -0.695  11.120  19.861  0.00  0.00    +0.000 A 
ATOM     25  C   UNL     1       0.035  10.924  18.710  0.00  0.00    +0.000 A 
ATOM     26  S   UNL     1       1.133   9.623  18.859  0.00  0.00    +0.000 S 
ENDBRANCH  21  22
ENDBRANCH  19  21
ENDBRANCH   5  17
TORSDOF 5
ENDMDL
MODEL 3
REMARK VINA RESULT:      -7.1      1.890      2.696
REMARK  Name = 
REMARK  6 active torsions:
REMARK  status: ('A' for Active; 'I' for Inactive)
REMARK    1  A    between atoms: C_1  and  O_2
REMARK    2  A    between atoms: O_2  and  C_3
REMARK    3  A    between atoms: C_8  and  N_9
REMARK    4  A    between atoms: C_13  and  C_14
REMARK    5  A    between atoms: N_16  and  C_17
REMARK    6  A    between atoms: C_17  and  C_18
REMARK                            x       y       z     vdW  Elec       q    Type
REMARK                         _______ _______ _______ _____ _____    ______ ____
ROOT
ATOM      1  N   UNL     1       2.837   5.691  19.718  0.00  0.00    +0.000 N 
ATOM      2  C   UNL     1       2.355   7.026  19.651  0.00  0.00    +0.000 A 
ATOM      3  C   UNL     1       1.706   7.536  20.785  0.00  0.00    +0.000 A 
ATOM      4  C   UNL     1       1.063   8.779  20.736  0.00  0.00    +0.000 A 
ATOM      5  C   UNL     1       1.061   9.488  19.539  0.00  0.00    +0.000 A 
ATOM      6  C   UNL     1       1.728   8.922  18.461  0.00  0.00    +0.000 A 
ATOM      7  N   UNL     1       2.362   7.721  18.495  0.00  0.00    +0.000 NA
ATOM      8  H   UNL     1       3.214   5.532  20.645  0.00  0.00    +0.000 HD
ENDROOT
BRANCH   1  14
ATOM      9  C   UNL     1       3.339   4.229  17.756  0.00  0.00    +0.000 A 
ATOM     10  C   UNL     1       4.292   3.778  16.830  0.00  0.00    +0.000 A 
ATOM     11  C   UNL     1       5.610   4.237  16.879  0.00  0.00    +0.000 A 
ATOM     12  C   UNL     1       5.990   5.149  17.855  0.00  0.00    +0.000 A 
ATOM     13  C   UNL     1       5.061   5.575  18.804  0.00  0.00    +0.000 A 
ATOM     14  C   UNL     1       3.743   5.091  18.797  0.00  0.00    +0.000 A 
BRANCH   9  16
ATOM     15  C   UNL     1       1.618   2.672  18.283  0.00  0.00    +0.000 C 
ATOM     16  O   UNL     1       2.006   3.906  17.692  0.00  0.00    +0.000 OA
ENDBRANCH   9  16
ENDBRANCH   1  14
BRANCH   5  17
ATOM     17  C   UNL     1       0.306  10.749  19.323  0.00  0.00    +0.000 C 
ATOM     18  O   UNL     1       0.893  11.743  18.916  0.00  0.00    +0.000 OA
ATOM     19  N   UNL     1      -1.047  10.730  19.582  0.00  0.00    +0.000 N 
ATOM     20  H   UNL     1      -1.485   9.942  20.036  0.00  0.00    +0.000 HD
BRANCH  19  21
ATOM     21  C   UNL     1      -1.885  11.880  19.314  0.00  0.00    +0.000 C 
BRANCH  21  22
ATOM     22  C   UNL     1      -2.752  11.561  18.137  0.00  0.00    +0.000 A 
ATOM     23  C   UNL     1      -2.360  11.149  16.877  0.00  0.00    +0.000 A 
ATOM     24  C   UNL     1      -3.465  10.963  15.998  0.00  0.00    +0.000 A 
ATOM     25  C   UNL     1      -4.665  11.234  16.616  0.00  0.00    +0.000 A 
ATOM     26  S   UNL     1      -4.457  11.704  18.246  0.00  0.00    +0.000 S 
ENDBRANCH  21  22
ENDBRANCH  19  21
ENDBRANCH   5  17
TORSDOF 5
ENDMDL
MODEL 4
REMARK VINA RESULT:      -7.1      2.797      3.599
REMARK  Name = 
REMARK  6 active torsions:
REMARK  status: ('A' for Active; 'I' for Inactive)
REMARK    1  A    between atoms: C_1  and  O_2
REMARK    2  A    between atoms: O_2  and  C_3
REMARK    3  A    between atoms: C_8  and  N_9
REMARK    4  A    between atoms: C_13  and  C_14
REMARK    5  A    between atoms: N_16  and  C_17
REMARK    6  A    between atoms: C_17  and  C_18
REMARK                            x       y       z     vdW  Elec       q    Type
REMARK                         _______ _______ _______ _____ _____    ______ ____
ROOT
ATOM      1  N   UNL     1       2.933   6.635  18.113  0.00  0.00    +0.000 N 
ATOM      2  C   UNL     1       2.161   7.438  18.995  0.00  0.00    +0.000 A 
ATOM      3  C   UNL     1       1.858   8.744  18.583  0.00  0.00    +0.000 A 
ATOM      4  C   UNL     1       1.245   9.642  19.464  0.00  0.00    +0.000 A 
ATOM      5  C   UNL     1       0.962   9.225  20.761  0.00  0.00    +0.000 A 
ATOM      6  C   UNL     1       1.286   7.917  21.095  0.00  0.00    +0.000 A 
ATOM      7  N   UNL     1       1.875   7.031  20.249  0.00  0.00    +0.000 NA
ATOM      8  H   UNL     1       2.631   6.821  17.163  0.00  0.00    +0.000 HD
ENDROOT
BRANCH   1  14
ATOM      9  C   UNL     1       4.158   4.627  18.952  0.00  0.00    +0.000 A 
ATOM     10  C   UNL     1       4.187   3.232  19.091  0.00  0.00    +0.000 A 
ATOM     11  C   UNL     1       3.152   2.441  18.586  0.00  0.00    +0.000 A 
ATOM     12  C   UNL     1       2.081   3.036  17.934  0.00  0.00    +0.000 A 
ATOM     13  C   UNL     1       2.061   4.420  17.756  0.00  0.00    +0.000 A 
ATOM     14  C   UNL     1       3.114   5.226  18.219  0.00  0.00    +0.000 A 
BRANCH   9  16
ATOM     15  C   UNL     1       6.420   5.361  19.052  0.00  0.00    +0.000 C 
ATOM     16  O   UNL     1       5.083   5.466  19.524  0.00  0.00    +0.000 OA
ENDBRANCH   9  16
ENDBRANCH   1  14
BRANCH   5  17
ATOM     17  C   UNL     1       0.437  10.118  21.825  0.00  0.00    +0.000 C 
ATOM     18  O   UNL     1       0.691   9.876  22.997  0.00  0.00    +0.000 OA
ATOM     19  N   UNL     1      -0.312  11.205  21.428  0.00  0.00    +0.000 N 
ATOM     20  H   UNL     1      -0.615  11.313  20.472  0.00  0.00    +0.000 HD
BRANCH  19  21
ATOM     21  C   UNL     1      -0.790  12.184  22.382  0.00  0.00    +0.000 C 
BRANCH  21  22
ATOM     22  C   UNL     1      -2.229  12.464  22.081  0.00  0.00    +0.000 A 
ATOM     23  C   UNL     1      -3.279  12.579  22.972  0.00  0.00    +0.000 A 
ATOM     24  C   UNL     1      -4.521  12.826  22.319  0.00  0.00    +0.000 A 
ATOM     25  C   UNL     1      -4.378  12.896  20.951  0.00  0.00    +0.000 A 
ATOM     26  S   UNL     1      -2.755  12.669  20.462  0.00  0.00    +0.000 S 
ENDBRANCH  21  22
ENDBRANCH  19  21
ENDBRANCH   5  17
TORSDOF 5
ENDMDL
MODEL 5
REMARK VINA RESULT:      -7.1      5.191      8.039
REMARK  Name = 
REMARK  6 active torsions:
REMARK  status: ('A' for Active; 'I' for Inactive)
REMARK    1  A    between atoms: C_1  and  O_2
REMARK    2  A    between atoms: O_2  and  C_3
REMARK    3  A    between atoms: C_8  and  N_9
REMARK    4  A    between atoms: C_13  and  C_14
REMARK    5  A    between atoms: N_16  and  C_17
REMARK    6  A    between atoms: C_17  and  C_18
REMARK                            x       y       z     vdW  Elec       q    Type
REMARK                         _______ _______ _______ _____ _____    ______ ____
ROOT
ATOM      1  N   UNL     1       8.521  10.658  18.168  0.00  0.00    +0.000 N 
ATOM      2  C   UNL     1       8.247   9.266  18.109  0.00  0.00    +0.000 A 
ATOM      3  C   UNL     1       7.193   8.847  17.285  0.00  0.00    +0.000 A 
ATOM      4  C   UNL     1       6.761   7.516  17.303  0.00  0.00    +0.000 A 
ATOM      5  C   UNL     1       7.381   6.620  18.169  0.00  0.00    +0.000 A 
ATOM      6  C   UNL     1       8.421   7.105  18.951  0.00  0.00    +0.000 A 
ATOM      7  N   UNL     1       8.855   8.393  18.939  0.00  0.00    +0.000 NA
ATOM      8  H   UNL     1       8.406  11.047  17.239  0.00  0.00    +0.000 HD
ENDROOT
BRANCH   1  14
ATOM      9  C   UNL     1       9.877  11.482  20.097  0.00  0.00    +0.000 A 
ATOM     10  C   UNL     1      11.112  11.965  20.554  0.00  0.00    +0.000 A 
ATOM     11  C   UNL     1      12.183  12.135  19.675  0.00  0.00    +0.000 A 
ATOM     12  C   UNL     1      12.030  11.830  18.329  0.00  0.00    +0.000 A 
ATOM     13  C   UNL     1      10.794  11.386  17.856  0.00  0.00    +0.000 A 
ATOM     14  C   UNL     1       9.694  11.250  18.718  0.00  0.00    +0.000 A 
BRANCH   9  16
ATOM     15  C   UNL     1       8.638  12.030  22.054  0.00  0.00    +0.000 C 
ATOM     16  O   UNL     1       8.823  11.184  20.927  0.00  0.00    +0.000 OA
ENDBRANCH   9  16
ENDBRANCH   1  14
BRANCH   5  17
ATOM     17  C   UNL     1       6.931   5.221  18.377  0.00  0.00    +0.000 C 
ATOM     18  O   UNL     1       7.706   4.298  18.162  0.00  0.00    +0.000 OA
ATOM     19  N   UNL     1       5.643   5.029  18.826  0.00  0.00    +0.000 N 
ATOM     20  H   UNL     1       4.984   5.793  18.874  0.00  0.00    +0.000 HD
BRANCH  19  21
ATOM     21  C   UNL     1       5.141   3.710  19.147  0.00  0.00    +0.000 C 
BRANCH  21  22
ATOM     22  C   UNL     1       3.707   3.641  18.724  0.00  0.00    +0.000 A 
ATOM     23  C   UNL     1       2.865   2.545  18.741  0.00  0.00    +0.000 A 
ATOM     24  C   UNL     1       1.567   2.850  18.238  0.00  0.00    +0.000 A 
ATOM     25  C   UNL     1       1.459   4.168  17.858  0.00  0.00    +0.000 A 
ATOM     26  S   UNL     1       2.912   5.032  18.111  0.00  0.00    +0.000 S 
ENDBRANCH  21  22
ENDBRANCH  19  21
ENDBRANCH   5  17
TORSDOF 5
ENDMDL
MODEL 6
REMARK VINA RESULT:      -7.0      2.753      3.490
REMARK  Name = 
REMARK  6 active torsions:
REMARK  status: ('A' for Active; 'I' for Inactive)
REMARK    1  A    between atoms: C_1  and  O_2
REMARK    2  A    between atoms: O_2  and  C_3
REMARK    3  A    between atoms: C_8  and  N_9
REMARK    4  A    between atoms: C_13  and  C_14
REMARK    5  A    between atoms: N_16  and  C_17
REMARK    6  A    between atoms: C_17  and  C_18
REMARK                            x       y       z     vdW  Elec       q    Type
REMARK                         _______ _______ _______ _____ _____    ______ ____
ROOT
ATOM      1  N   UNL     1       3.342   6.233  17.770  0.00  0.00    +0.000 N 
ATOM      2  C   UNL     1       2.521   7.164  18.461  0.00  0.00    +0.000 A 
ATOM      3  C   UNL     1       2.237   8.378  17.819  0.00  0.00    +0.000 A 
ATOM      4  C   UNL     1       1.575   9.404  18.502  0.00  0.00    +0.000 A 
ATOM      5  C   UNL     1       1.222   9.208  19.833  0.00  0.00    +0.000 A 
ATOM      6  C   UNL     1       1.531   7.979  20.400  0.00  0.00    +0.000 A 
ATOM      7  N   UNL     1       2.168   6.971  19.749  0.00  0.00    +0.000 NA
ATOM      8  H   UNL     1       3.093   6.252  16.788  0.00  0.00    +0.000 HD
ENDROOT
BRANCH   1  14
ATOM      9  C   UNL     1       4.465   4.420  19.071  0.00  0.00    +0.000 A 
ATOM     10  C   UNL     1       4.488   3.065  19.433  0.00  0.00    +0.000 A 
ATOM     11  C   UNL     1       3.538   2.174  18.931  0.00  0.00    +0.000 A 
ATOM     12  C   UNL     1       2.557   2.627  18.059  0.00  0.00    +0.000 A 
ATOM     13  C   UNL     1       2.547   3.964  17.661  0.00  0.00    +0.000 A 
ATOM     14  C   UNL     1       3.521   4.864  18.122  0.00  0.00    +0.000 A 
BRANCH   9  16
ATOM     15  C   UNL     1       6.634   5.399  19.131  0.00  0.00    +0.000 C 
ATOM     16  O   UNL     1       5.298   5.367  19.616  0.00  0.00    +0.000 OA
ENDBRANCH   9  16
ENDBRANCH   1  14
BRANCH   5  17
ATOM     17  C   UNL     1       0.638  10.262  20.701  0.00  0.00    +0.000 C 
ATOM     18  O   UNL     1       1.182  10.543  21.761  0.00  0.00    +0.000 OA
ATOM     19  N   UNL     1      -0.502  10.892  20.253  0.00  0.00    +0.000 N 
ATOM     20  H   UNL     1      -1.004  10.559  19.443  0.00  0.00    +0.000 HD
BRANCH  19  21
ATOM     21  C   UNL     1      -1.095  11.994  20.982  0.00  0.00    +0.000 C 
BRANCH  21  22
ATOM     22  C   UNL     1      -0.592  13.271  20.386  0.00  0.00    +0.000 A 
ATOM     23  C   UNL     1      -0.566  13.637  19.053  0.00  0.00    +0.000 A 
ATOM     24  C   UNL     1       0.011  14.925  18.855  0.00  0.00    +0.000 A 
ATOM     25  C   UNL     1       0.400  15.503  20.043  0.00  0.00    +0.000 A 
ATOM     26  S   UNL     1       0.068  14.498  21.386  0.00  0.00    +0.000 S 
ENDBRANCH  21  22
ENDBRANCH  19  21
ENDBRANCH   5  17
TORSDOF 5
ENDMDL
MODEL 7
REMARK VINA RESULT:      -7.0      3.122      8.555
REMARK  Name = 
REMARK  6 active torsions:
REMARK  status: ('A' for Active; 'I' for Inactive)
REMARK    1  A    between atoms: C_1  and  O_2
REMARK    2  A    between atoms: O_2  and  C_3
REMARK    3  A    between atoms: C_8  and  N_9
REMARK    4  A    between atoms: C_13  and  C_14
REMARK    5  A    between atoms: N_16  and  C_17
REMARK    6  A    between atoms: C_17  and  C_18
REMARK                            x       y       z     vdW  Elec       q    Type
REMARK                         _______ _______ _______ _____ _____    ______ ____
ROOT
ATOM      1  N   UNL     1       0.844  10.288  20.640  0.00  0.00    +0.000 N 
ATOM      2  C   UNL     1       1.231   8.994  20.201  0.00  0.00    +0.000 A 
ATOM      3  C   UNL     1       1.143   7.943  21.125  0.00  0.00    +0.000 A 
ATOM      4  C   UNL     1       1.658   6.679  20.816  0.00  0.00    +0.000 A 
ATOM      5  C   UNL     1       2.280   6.489  19.586  0.00  0.00    +0.000 A 
ATOM      6  C   UNL     1       2.325   7.574  18.720  0.00  0.00    +0.000 A 
ATOM      7  N   UNL     1       1.823   8.805  19.003  0.00  0.00    +0.000 NA
ATOM      8  H   UNL     1       0.032  10.194  21.239  0.00  0.00    +0.000 HD
ENDROOT
BRANCH   1  14
ATOM      9  C   UNL     1      -0.561  11.572  19.022  0.00  0.00    +0.000 A 
ATOM     10  C   UNL     1      -0.755  12.766  18.313  0.00  0.00    +0.000 A 
ATOM     11  C   UNL     1       0.147  13.826  18.435  0.00  0.00    +0.000 A 
ATOM     12  C   UNL     1       1.254  13.700  19.263  0.00  0.00    +0.000 A 
ATOM     13  C   UNL     1       1.478  12.503  19.943  0.00  0.00    +0.000 A 
ATOM     14  C   UNL     1       0.605  11.412  19.798  0.00  0.00    +0.000 A 
BRANCH   9  16
ATOM     15  C   UNL     1      -2.002  10.143  17.779  0.00  0.00    +0.000 C 
ATOM     16  O   UNL     1      -1.467  10.540  19.035  0.00  0.00    +0.000 OA
ENDBRANCH   9  16
ENDBRANCH   1  14
BRANCH   5  17
ATOM     17  C   UNL     1       2.980   5.240  19.193  0.00  0.00    +0.000 C 
ATOM     18  O   UNL     1       2.332   4.284  18.790  0.00  0.00    +0.000 OA
ATOM     19  N   UNL     1       4.355   5.227  19.291  0.00  0.00    +0.000 N 
ATOM     20  H   UNL     1       4.857   5.976  19.743  0.00  0.00    +0.000 HD
BRANCH  19  21
ATOM     21  C   UNL     1       5.134   4.091  18.846  0.00  0.00    +0.000 C 
BRANCH  21  22
ATOM     22  C   UNL     1       5.601   4.363  17.450  0.00  0.00    +0.000 A 
ATOM     23  C   UNL     1       4.859   4.338  16.284  0.00  0.00    +0.000 A 
ATOM     24  C   UNL     1       5.648   4.626  15.133  0.00  0.00    +0.000 A 
ATOM     25  C   UNL     1       6.964   4.867  15.458  0.00  0.00    +0.000 A 
ATOM     26  S   UNL     1       7.242   4.750  17.141  0.00  0.00    +0.000 S 
ENDBRANCH  21  22
ENDBRANCH  19  21
ENDBRANCH   5  17
TORSDOF 5
ENDMDL
MODEL 8
REMARK VINA RESULT:      -7.0      1.825      2.728
REMARK  Name = 
REMARK  6 active torsions:
REMARK  status: ('A' for Active; 'I' for Inactive)
REMARK    1  A    between atoms: C_1  and  O_2
REMARK    2  A    between atoms: O_2  and  C_3
REMARK    3  A    between atoms: C_8  and  N_9
REMARK    4  A    between atoms: C_13  and  C_14
REMARK    5  A    between atoms: N_16  and  C_17
REMARK    6  A    between atoms: C_17  and  C_18
REMARK                            x       y       z     vdW  Elec       q    Type
REMARK                         _______ _______ _______ _____ _____    ______ ____
ROOT
ATOM      1  N   UNL     1       3.913   5.064  18.557  0.00  0.00    +0.000 N 
ATOM      2  C   UNL     1       3.262   6.289  18.862  0.00  0.00    +0.000 A 
ATOM      3  C   UNL     1       2.463   6.328  20.014  0.00  0.00    +0.000 A 
ATOM      4  C   UNL     1       1.666   7.445  20.288  0.00  0.00    +0.000 A 
ATOM      5  C   UNL     1       1.662   8.506  19.387  0.00  0.00    +0.000 A 
ATOM      6  C   UNL     1       2.482   8.398  18.272  0.00  0.00    +0.000 A 
ATOM      7  N   UNL     1       3.267   7.324  17.996  0.00  0.00    +0.000 NA
ATOM      8  H   UNL     1       4.234   4.646  19.423  0.00  0.00    +0.000 HD
ENDROOT
BRANCH   1  14
ATOM      9  C   UNL     1       6.329   4.901  17.946  0.00  0.00    +0.000 A 
ATOM     10  C   UNL     1       7.282   4.615  16.957  0.00  0.00    +0.000 A 
ATOM     11  C   UNL     1       6.888   4.243  15.670  0.00  0.00    +0.000 A 
ATOM     12  C   UNL     1       5.538   4.157  15.356  0.00  0.00    +0.000 A 
ATOM     13  C   UNL     1       4.582   4.478  16.320  0.00  0.00    +0.000 A 
ATOM     14  C   UNL     1       4.960   4.896  17.607  0.00  0.00    +0.000 A 
BRANCH   9  16
ATOM     15  C   UNL     1       7.929   5.726  19.503  0.00  0.00    +0.000 C 
ATOM     16  O   UNL     1       6.648   5.161  19.256  0.00  0.00    +0.000 OA
ENDBRANCH   9  16
ENDBRANCH   1  14
BRANCH   5  17
ATOM     17  C   UNL     1       0.764   9.684  19.495  0.00  0.00    +0.000 C 
ATOM     18  O   UNL     1       0.081   9.834  20.499  0.00  0.00    +0.000 OA
ATOM     19  N   UNL     1       0.757  10.574  18.443  0.00  0.00    +0.000 N 
ATOM     20  H   UNL     1       1.228  10.367  17.575  0.00  0.00    +0.000 HD
BRANCH  19  21
ATOM     21  C   UNL     1      -0.014  11.799  18.493  0.00  0.00    +0.000 C 
BRANCH  21  22
ATOM     22  C   UNL     1       0.942  12.949  18.534  0.00  0.00    +0.000 A 
ATOM     23  C   UNL     1       2.294  12.946  18.246  0.00  0.00    +0.000 A 
ATOM     24  C   UNL     1       2.890  14.228  18.419  0.00  0.00    +0.000 A 
ATOM     25  C   UNL     1       1.973  15.170  18.828  0.00  0.00    +0.000 A 
ATOM     26  S   UNL     1       0.405  14.511  18.997  0.00  0.00    +0.000 S 
ENDBRANCH  21  22
ENDBRANCH  19  21
ENDBRANCH   5  17
TORSDOF 5
ENDMDL
MODEL 9
REMARK VINA RESULT:      -6.9      2.917      3.697
REMARK  Name = 
REMARK  6 active torsions:
REMARK  status: ('A' for Active; 'I' for Inactive)
REMARK    1  A    between atoms: C_1  and  O_2
REMARK    2  A    between atoms: O_2  and  C_3
REMARK    3  A    between atoms: C_8  and  N_9
REMARK    4  A    between atoms: C_13  and  C_14
REMARK    5  A    between atoms: N_16  and  C_17
REMARK    6  A    between atoms: C_17  and  C_18
REMARK                            x       y       z     vdW  Elec       q    Type
REMARK                         _______ _______ _______ _____ _____    ______ ____
ROOT
ATOM      1  N   UNL     1       2.767   7.173  17.861  0.00  0.00    +0.000 N 
ATOM      2  C   UNL     1       2.007   7.814  18.875  0.00  0.00    +0.000 A 
ATOM      3  C   UNL     1       1.510   9.096  18.599  0.00  0.00    +0.000 A 
ATOM      4  C   UNL     1       0.896   9.852  19.603  0.00  0.00    +0.000 A 
ATOM      5  C   UNL     1       0.805   9.320  20.886  0.00  0.00    +0.000 A 
ATOM      6  C   UNL     1       1.314   8.043  21.083  0.00  0.00    +0.000 A 
ATOM      7  N   UNL     1       1.907   7.294  20.116  0.00  0.00    +0.000 NA
ATOM      8  H   UNL     1       2.345   7.381  16.963  0.00  0.00    +0.000 HD
ENDROOT
BRANCH   1  14
ATOM      9  C   UNL     1       4.433   5.322  18.048  0.00  0.00    +0.000 A 
ATOM     10  C   UNL     1       4.663   3.940  18.120  0.00  0.00    +0.000 A 
ATOM     11  C   UNL     1       3.600   3.035  18.072  0.00  0.00    +0.000 A 
ATOM     12  C   UNL     1       2.299   3.501  17.947  0.00  0.00    +0.000 A 
ATOM     13  C   UNL     1       2.062   4.871  17.835  0.00  0.00    +0.000 A 
ATOM     14  C   UNL     1       3.121   5.793  17.839  0.00  0.00    +0.000 A 
BRANCH   9  16
ATOM     15  C   UNL     1       6.628   6.051  17.488  0.00  0.00    +0.000 C 
ATOM     16  O   UNL     1       5.420   6.265  18.205  0.00  0.00    +0.000 OA
ENDBRANCH   9  16
ENDBRANCH   1  14
BRANCH   5  17
ATOM     17  C   UNL     1       0.298  10.070  22.063  0.00  0.00    +0.000 C 
ATOM     18  O   UNL     1       0.678   9.763  23.185  0.00  0.00    +0.000 OA
ATOM     19  N   UNL     1      -0.581  11.104  21.825  0.00  0.00    +0.000 N 
ATOM     20  H   UNL     1      -0.978  11.257  20.909  0.00  0.00    +0.000 HD
BRANCH  19  21
ATOM     21  C   UNL     1      -1.060  11.952  22.896  0.00  0.00    +0.000 C 
BRANCH  21  22
ATOM     22  C   UNL     1      -2.467  12.350  22.581  0.00  0.00    +0.000 A 
ATOM     23  C   UNL     1      -3.017  12.633  21.345  0.00  0.00    +0.000 A 
ATOM     24  C   UNL     1      -4.390  13.003  21.433  0.00  0.00    +0.000 A 
ATOM     25  C   UNL     1      -4.845  12.986  22.732  0.00  0.00    +0.000 A 
ATOM     26  S   UNL     1      -3.624  12.522  23.835  0.00  0.00    +0.000 S 
ENDBRANCH  21  22
ENDBRANCH  19  21
ENDBRANCH   5  17
TORSDOF 5
ENDMDL
