MODEL 1
REMARK VINA RESULT:      -6.7      0.000      0.000
REMARK  Name = 
REMARK  4 active torsions:
REMARK  status: ('A' for Active; 'I' for Inactive)
REMARK    1  A    between atoms: C_1  and  C_2
REMARK    2  A    between atoms: C_2  and  C_3
REMARK    3  A    between atoms: N_4  and  N_5
REMARK    4  A    between atoms: C_9  and  C_10
REMARK                            x       y       z     vdW  Elec       q    Type
REMARK                         _______ _______ _______ _____ _____    ______ ____
ROOT
ATOM      1  N   UNL     1       2.046   7.865  20.396  0.00  0.00    +0.000 N 
ATOM      2  C   UNL     1       2.087   6.608  19.877  0.00  0.00    +0.000 A 
ATOM      3  N   UNL     1       1.766   5.513  20.523  0.00  0.00    +0.000 NA
ATOM      4  C   UNL     1       1.953   4.395  19.732  0.00  0.00    +0.000 A 
ATOM      5  C   UNL     1       1.762   3.056  20.148  0.00  0.00    +0.000 A 
ATOM      6  C   UNL     1       1.369   2.698  21.553  0.00  0.00    +0.000 C 
ATOM      7  C   UNL     1       1.979   2.029  19.206  0.00  0.00    +0.000 A 
ATOM      8  C   UNL     1       2.368   2.319  17.900  0.00  0.00    +0.000 A 
ATOM      9  C   UNL     1       2.561   3.638  17.485  0.00  0.00    +0.000 A 
ATOM     10  C   UNL     1       2.365   4.661  18.427  0.00  0.00    +0.000 A 
ATOM     11  S   UNL     1       2.591   6.360  18.248  0.00  0.00    +0.000 S 
ATOM     12  H   UNL     1       2.463   8.602  19.838  0.00  0.00    +0.000 HD
ENDROOT
BRANCH   1  16
ATOM     13  C   UNL     1      -0.391   9.294  22.731  0.00  0.00    +0.000 C 
ATOM     14  C   UNL     1       0.391   9.047  21.463  0.00  0.00    +0.000 C 
ATOM     15  C   UNL     1       0.024   9.836  20.233  0.00  0.00    +0.000 C 
ATOM     16  N   UNL     1       1.332   8.156  21.519  0.00  0.00    +0.000 NA
ENDBRANCH   1  16
TORSDOF 1
ENDMDL
MODEL 2
REMARK VINA RESULT:      -6.7      3.626      5.277
REMARK  Name = 
REMARK  4 active torsions:
REMARK  status: ('A' for Active; 'I' for Inactive)
REMARK    1  A    between atoms: C_1  and  C_2
REMARK    2  A    between atoms: C_2  and  C_3
REMARK    3  A    between atoms: N_4  and  N_5
REMARK    4  A    between atoms: C_9  and  C_10
REMARK                            x       y       z     vdW  Elec       q    Type
REMARK                         _______ _______ _______ _____ _____    ______ ____
ROOT
ATOM      1  N   UNL     1       6.044   4.425  17.406  0.00  0.00    +0.000 N 
ATOM      2  C   UNL     1       4.845   4.137  17.982  0.00  0.00    +0.000 A 
ATOM      3  N   UNL     1       4.093   4.993  18.630  0.00  0.00    +0.000 NA
ATOM      4  C   UNL     1       2.958   4.383  19.129  0.00  0.00    +0.000 A 
ATOM      5  C   UNL     1       1.974   5.010  19.929  0.00  0.00    +0.000 A 
ATOM      6  C   UNL     1       2.090   6.441  20.372  0.00  0.00    +0.000 C 
ATOM      7  C   UNL     1       0.864   4.246  20.341  0.00  0.00    +0.000 A 
ATOM      8  C   UNL     1       0.732   2.908  19.971  0.00  0.00    +0.000 A 
ATOM      9  C   UNL     1       1.701   2.282  19.185  0.00  0.00    +0.000 A 
ATOM     10  C   UNL     1       2.818   3.037  18.790  0.00  0.00    +0.000 A 
ATOM     11  S   UNL     1       4.202   2.541  17.892  0.00  0.00    +0.000 S 
ATOM     12  H   UNL     1       6.588   3.638  17.069  0.00  0.00    +0.000 HD
ENDROOT
BRANCH   1  16
ATOM     13  C   UNL     1       7.674   7.705  17.536  0.00  0.00    +0.000 C 
ATOM     14  C   UNL     1       7.264   6.303  17.917  0.00  0.00    +0.000 C 
ATOM     15  C   UNL     1       7.857   5.699  19.164  0.00  0.00    +0.000 C 
ATOM     16  N   UNL     1       6.422   5.704  17.133  0.00  0.00    +0.000 NA
ENDBRANCH   1  16
TORSDOF 1
ENDMDL
MODEL 3
REMARK VINA RESULT:      -6.7      4.081      5.396
REMARK  Name = 
REMARK  4 active torsions:
REMARK  status: ('A' for Active; 'I' for Inactive)
REMARK    1  A    between atoms: C_1  and  C_2
REMARK    2  A    between atoms: C_2  and  C_3
REMARK    3  A    between atoms: N_4  and  N_5
REMARK    4  A    between atoms: C_9  and  C_10
REMARK                            x       y       z     vdW  Elec       q    Type
REMARK                         _______ _______ _______ _____ _____    ______ ____
ROOT
ATOM      1  N   UNL     1       6.693   5.925  16.519  0.00  0.00    +0.000 N 
ATOM      2  C   UNL     1       5.508   5.384  16.913  0.00  0.00    +0.000 A 
ATOM      3  N   UNL     1       4.676   5.928  17.767  0.00  0.00    +0.000 NA
ATOM      4  C   UNL     1       3.582   5.113  17.988  0.00  0.00    +0.000 A 
ATOM      5  C   UNL     1       2.534   5.376  18.901  0.00  0.00    +0.000 A 
ATOM      6  C   UNL     1       2.527   6.588  19.789  0.00  0.00    +0.000 C 
ATOM      7  C   UNL     1       1.480   4.445  18.990  0.00  0.00    +0.000 A 
ATOM      8  C   UNL     1       1.463   3.297  18.201  0.00  0.00    +0.000 A 
ATOM      9  C   UNL     1       2.496   3.029  17.301  0.00  0.00    +0.000 A 
ATOM     10  C   UNL     1       3.558   3.945  17.225  0.00  0.00    +0.000 A 
ATOM     11  S   UNL     1       4.996   3.865  16.280  0.00  0.00    +0.000 S 
ATOM     12  H   UNL     1       7.305   5.330  15.971  0.00  0.00    +0.000 HD
ENDROOT
BRANCH   1  16
ATOM     13  C   UNL     1       7.977   9.094  17.838  0.00  0.00    +0.000 C 
ATOM     14  C   UNL     1       7.664   7.621  17.725  0.00  0.00    +0.000 C 
ATOM     15  C   UNL     1       8.174   6.699  18.801  0.00  0.00    +0.000 C 
ATOM     16  N   UNL     1       6.974   7.246  16.693  0.00  0.00    +0.000 NA
ENDBRANCH   1  16
TORSDOF 1
ENDMDL
MODEL 4
REMARK VINA RESULT:      -6.6      3.548      5.245
REMARK  Name = 
REMARK  4 active torsions:
REMARK  status: ('A' for Active; 'I' for Inactive)
REMARK    1  A    between atoms: C_1  and  C_2
REMARK    2  A    between atoms: C_2  and  C_3
REMARK    3  A    between atoms: N_4  and  N_5
REMARK    4  A    between atoms: C_9  and  C_10
REMARK                            x       y       z     vdW  Elec       q    Type
REMARK                         _______ _______ _______ _____ _____    ______ ____
ROOT
ATOM      1  N   UNL     1       6.549   4.622  19.010  0.00  0.00    +0.000 N 
ATOM      2  C   UNL     1       5.238   4.327  19.226  0.00  0.00    +0.000 A 
ATOM      3  N   UNL     1       4.325   5.185  19.611  0.00  0.00    +0.000 NA
ATOM      4  C   UNL     1       3.100   4.567  19.781  0.00  0.00    +0.000 A 
ATOM      5  C   UNL     1       1.923   5.195  20.252  0.00  0.00    +0.000 A 
ATOM      6  C   UNL     1       1.894   6.637  20.673  0.00  0.00    +0.000 C 
ATOM      7  C   UNL     1       0.749   4.421  20.349  0.00  0.00    +0.000 A 
ATOM      8  C   UNL     1       0.741   3.075  19.990  0.00  0.00    +0.000 A 
ATOM      9  C   UNL     1       1.900   2.448  19.529  0.00  0.00    +0.000 A 
ATOM     10  C   UNL     1       3.076   3.212  19.450  0.00  0.00    +0.000 A 
ATOM     11  S   UNL     1       4.663   2.719  18.996  0.00  0.00    +0.000 S 
ATOM     12  H   UNL     1       7.174   3.838  18.861  0.00  0.00    +0.000 HD
ENDROOT
BRANCH   1  16
ATOM     13  C   UNL     1       7.637   7.769  17.479  0.00  0.00    +0.000 C 
ATOM     14  C   UNL     1       7.205   6.330  17.620  0.00  0.00    +0.000 C 
ATOM     15  C   UNL     1       7.064   5.501  16.370  0.00  0.00    +0.000 C 
ATOM     16  N   UNL     1       6.977   5.902  18.823  0.00  0.00    +0.000 NA
ENDBRANCH   1  16
TORSDOF 1
ENDMDL
MODEL 5
REMARK VINA RESULT:      -6.2      3.481      6.453
REMARK  Name = 
REMARK  4 active torsions:
REMARK  status: ('A' for Active; 'I' for Inactive)
REMARK    1  A    between atoms: C_1  and  C_2
REMARK    2  A    between atoms: C_2  and  C_3
REMARK    3  A    between atoms: N_4  and  N_5
REMARK    4  A    between atoms: C_9  and  C_10
REMARK                            x       y       z     vdW  Elec       q    Type
REMARK                         _______ _______ _______ _____ _____    ______ ____
ROOT
ATOM      1  N   UNL     1       5.062   3.266  17.137  0.00  0.00    +0.000 N 
ATOM      2  C   UNL     1       4.246   4.008  17.935  0.00  0.00    +0.000 A 
ATOM      3  N   UNL     1       3.901   5.253  17.713  0.00  0.00    +0.000 NA
ATOM      4  C   UNL     1       3.096   5.736  18.727  0.00  0.00    +0.000 A 
ATOM      5  C   UNL     1       2.605   7.059  18.825  0.00  0.00    +0.000 A 
ATOM      6  C   UNL     1       2.960   8.124  17.827  0.00  0.00    +0.000 C 
ATOM      7  C   UNL     1       1.778   7.383  19.919  0.00  0.00    +0.000 A 
ATOM      8  C   UNL     1       1.446   6.429  20.880  0.00  0.00    +0.000 A 
ATOM      9  C   UNL     1       1.929   5.123  20.791  0.00  0.00    +0.000 A 
ATOM     10  C   UNL     1       2.771   4.803  19.713  0.00  0.00    +0.000 A 
ATOM     11  S   UNL     1       3.577   3.320  19.366  0.00  0.00    +0.000 S 
ATOM     12  H   UNL     1       5.366   2.371  17.503  0.00  0.00    +0.000 HD
ENDROOT
BRANCH   1  16
ATOM     13  C   UNL     1       6.663   4.566  14.107  0.00  0.00    +0.000 C 
ATOM     14  C   UNL     1       6.419   4.242  15.562  0.00  0.00    +0.000 C 
ATOM     15  C   UNL     1       7.460   4.656  16.570  0.00  0.00    +0.000 C 
ATOM     16  N   UNL     1       5.319   3.617  15.847  0.00  0.00    +0.000 NA
ENDBRANCH   1  16
TORSDOF 1
ENDMDL
MODEL 6
REMARK VINA RESULT:      -6.1      3.233      5.350
REMARK  Name = 
REMARK  4 active torsions:
REMARK  status: ('A' for Active; 'I' for Inactive)
REMARK    1  A    between atoms: C_1  and  C_2
REMARK    2  A    between atoms: C_2  and  C_3
REMARK    3  A    between atoms: N_4  and  N_5
REMARK    4  A    between atoms: C_9  and  C_10
REMARK                            x       y       z     vdW  Elec       q    Type
REMARK                         _______ _______ _______ _____ _____    ______ ____
ROOT
ATOM      1  N   UNL     1       4.453   6.618  16.701  0.00  0.00    +0.000 N 
ATOM      2  C   UNL     1       3.728   5.925  17.620  0.00  0.00    +0.000 A 
ATOM      3  N   UNL     1       3.441   4.648  17.548  0.00  0.00    +0.000 NA
ATOM      4  C   UNL     1       2.657   4.251  18.615  0.00  0.00    +0.000 A 
ATOM      5  C   UNL     1       2.121   2.955  18.801  0.00  0.00    +0.000 A 
ATOM      6  C   UNL     1       2.317   1.852  17.801  0.00  0.00    +0.000 C 
ATOM      7  C   UNL     1       1.354   2.713  19.959  0.00  0.00    +0.000 A 
ATOM      8  C   UNL     1       1.129   3.717  20.898  0.00  0.00    +0.000 A 
ATOM      9  C   UNL     1       1.651   4.998  20.718  0.00  0.00    +0.000 A 
ATOM     10  C   UNL     1       2.399   5.248  19.555  0.00  0.00    +0.000 A 
ATOM     11  S   UNL     1       3.107   6.723  19.015  0.00  0.00    +0.000 S 
ATOM     12  H   UNL     1       4.472   7.627  16.803  0.00  0.00    +0.000 HD
ENDROOT
BRANCH   1  16
ATOM     13  C   UNL     1       7.313   5.002  15.077  0.00  0.00    +0.000 C 
ATOM     14  C   UNL     1       6.488   5.734  16.107  0.00  0.00    +0.000 C 
ATOM     15  C   UNL     1       7.142   6.105  17.413  0.00  0.00    +0.000 C 
ATOM     16  N   UNL     1       5.256   5.992  15.796  0.00  0.00    +0.000 NA
ENDBRANCH   1  16
TORSDOF 1
ENDMDL
MODEL 7
REMARK VINA RESULT:      -6.1      3.600      6.084
REMARK  Name = 
REMARK  4 active torsions:
REMARK  status: ('A' for Active; 'I' for Inactive)
REMARK    1  A    between atoms: C_1  and  C_2
REMARK    2  A    between atoms: C_2  and  C_3
REMARK    3  A    between atoms: N_4  and  N_5
REMARK    4  A    between atoms: C_9  and  C_10
REMARK                            x       y       z     vdW  Elec       q    Type
REMARK                         _______ _______ _______ _____ _____    ______ ____
ROOT
ATOM      1  N   UNL     1       5.199   2.965  16.529  0.00  0.00    +0.000 N 
ATOM      2  C   UNL     1       4.246   3.165  17.480  0.00  0.00    +0.000 A 
ATOM      3  N   UNL     1       3.813   4.336  17.880  0.00  0.00    +0.000 NA
ATOM      4  C   UNL     1       2.874   4.203  18.886  0.00  0.00    +0.000 A 
ATOM      5  C   UNL     1       2.259   5.273  19.580  0.00  0.00    +0.000 A 
ATOM      6  C   UNL     1       2.612   6.709  19.318  0.00  0.00    +0.000 C 
ATOM      7  C   UNL     1       1.304   4.962  20.569  0.00  0.00    +0.000 A 
ATOM      8  C   UNL     1       0.968   3.641  20.857  0.00  0.00    +0.000 A 
ATOM      9  C   UNL     1       1.574   2.582  20.179  0.00  0.00    +0.000 A 
ATOM     10  C   UNL     1       2.541   2.888  19.207  0.00  0.00    +0.000 A 
ATOM     11  S   UNL     1       3.507   1.819  18.262  0.00  0.00    +0.000 S 
ATOM     12  H   UNL     1       5.545   2.017  16.423  0.00  0.00    +0.000 HD
ENDROOT
BRANCH   1  16
ATOM     13  C   UNL     1       6.964   5.682  14.817  0.00  0.00    +0.000 C 
ATOM     14  C   UNL     1       6.610   4.648  15.858  0.00  0.00    +0.000 C 
ATOM     15  C   UNL     1       7.511   4.507  17.058  0.00  0.00    +0.000 C 
ATOM     16  N   UNL     1       5.546   3.938  15.643  0.00  0.00    +0.000 NA
ENDBRANCH   1  16
TORSDOF 1
ENDMDL
MODEL 8
REMARK VINA RESULT:      -5.8      3.811      5.511
REMARK  Name = 
REMARK  4 active torsions:
REMARK  status: ('A' for Active; 'I' for Inactive)
REMARK    1  A    between atoms: C_1  and  C_2
REMARK    2  A    between atoms: C_2  and  C_3
REMARK    3  A    between atoms: N_4  and  N_5
REMARK    4  A    between atoms: C_9  and  C_10
REMARK                            x       y       z     vdW  Elec       q    Type
REMARK                         _______ _______ _______ _____ _____    ______ ____
ROOT
ATOM      1  N   UNL     1       3.840   4.083  16.108  0.00  0.00    +0.000 N 
ATOM      2  C   UNL     1       3.326   3.840  17.344  0.00  0.00    +0.000 A 
ATOM      3  N   UNL     1       3.954   3.224  18.316  0.00  0.00    +0.000 NA
ATOM      4  C   UNL     1       3.148   3.099  19.432  0.00  0.00    +0.000 A 
ATOM      5  C   UNL     1       3.500   2.428  20.627  0.00  0.00    +0.000 A 
ATOM      6  C   UNL     1       4.814   1.718  20.794  0.00  0.00    +0.000 C 
ATOM      7  C   UNL     1       2.563   2.409  21.680  0.00  0.00    +0.000 A 
ATOM      8  C   UNL     1       1.325   3.035  21.555  0.00  0.00    +0.000 A 
ATOM      9  C   UNL     1       0.970   3.695  20.377  0.00  0.00    +0.000 A 
ATOM     10  C   UNL     1       1.893   3.698  19.319  0.00  0.00    +0.000 A 
ATOM     11  S   UNL     1       1.728   4.354  17.734  0.00  0.00    +0.000 S 
ATOM     12  H   UNL     1       3.195   4.433  15.408  0.00  0.00    +0.000 HD
ENDROOT
BRANCH   1  16
ATOM     13  C   UNL     1       7.334   5.014  15.514  0.00  0.00    +0.000 C 
ATOM     14  C   UNL     1       5.848   5.137  15.743  0.00  0.00    +0.000 C 
ATOM     15  C   UNL     1       5.250   6.519  15.822  0.00  0.00    +0.000 C 
ATOM     16  N   UNL     1       5.178   4.033  15.863  0.00  0.00    +0.000 NA
ENDBRANCH   1  16
TORSDOF 1
ENDMDL
MODEL 9
REMARK VINA RESULT:      -5.8      4.886      7.547
REMARK  Name = 
REMARK  4 active torsions:
REMARK  status: ('A' for Active; 'I' for Inactive)
REMARK    1  A    between atoms: C_1  and  C_2
REMARK    2  A    between atoms: C_2  and  C_3
REMARK    3  A    between atoms: N_4  and  N_5
REMARK    4  A    between atoms: C_9  and  C_10
REMARK                            x       y       z     vdW  Elec       q    Type
REMARK                         _______ _______ _______ _____ _____    ______ ____
ROOT
ATOM      1  N   UNL     1       5.811   4.627  13.786  0.00  0.00    +0.000 N 
ATOM      2  C   UNL     1       5.364   4.705  15.069  0.00  0.00    +0.000 A 
ATOM      3  N   UNL     1       4.939   3.692  15.784  0.00  0.00    +0.000 NA
ATOM      4  C   UNL     1       4.516   4.105  17.034  0.00  0.00    +0.000 A 
ATOM      5  C   UNL     1       3.941   3.272  18.022  0.00  0.00    +0.000 A 
ATOM      6  C   UNL     1       3.679   1.811  17.789  0.00  0.00    +0.000 C 
ATOM      7  C   UNL     1       3.581   3.853  19.255  0.00  0.00    +0.000 A 
ATOM      8  C   UNL     1       3.786   5.209  19.500  0.00  0.00    +0.000 A 
ATOM      9  C   UNL     1       4.349   6.037  18.528  0.00  0.00    +0.000 A 
ATOM     10  C   UNL     1       4.690   5.465  17.292  0.00  0.00    +0.000 A 
ATOM     11  S   UNL     1       5.327   6.224  15.882  0.00  0.00    +0.000 S 
ATOM     12  H   UNL     1       5.967   5.505  13.304  0.00  0.00    +0.000 HD
ENDROOT
BRANCH   1  16
ATOM     13  C   UNL     1       6.071   1.696  11.600  0.00  0.00    +0.000 C 
ATOM     14  C   UNL     1       5.566   2.989  12.194  0.00  0.00    +0.000 C 
ATOM     15  C   UNL     1       4.381   3.657  11.546  0.00  0.00    +0.000 C 
ATOM     16  N   UNL     1       6.198   3.445  13.231  0.00  0.00    +0.000 NA
ENDBRANCH   1  16
TORSDOF 1
ENDMDL
