MODEL 1
REMARK VINA RESULT:     -10.1      0.000      0.000
REMARK  Name = 
REMARK  4 active torsions:
REMARK  status: ('A' for Active; 'I' for Inactive)
REMARK    1  A    between atoms: C_2  and  C_3
REMARK    2  A    between atoms: C_6  and  C_7
REMARK    3  A    between atoms: C_13  and  C_14
REMARK    4  A    between atoms: C_17  and  C_18
REMARK                            x       y       z     vdW  Elec       q    Type
REMARK                         _______ _______ _______ _____ _____    ______ ____
ROOT
ATOM      1  C   UNL     1       0.782  10.377  18.882  0.00  0.00    +0.000 A 
ATOM      2  C   UNL     1      -0.612  10.431  18.747  0.00  0.00    +0.000 A 
ATOM      3  N   UNL     1      -1.387  11.543  18.726  0.00  0.00    +0.000 NA
ATOM      4  C   UNL     1      -0.667  12.671  18.839  0.00  0.00    +0.000 A 
ATOM      5  N   UNL     1      -1.204  13.925  18.865  0.00  0.00    +0.000 N 
ATOM      6  C   UNL     1      -0.205  14.857  18.947  0.00  0.00    +0.000 A 
ATOM      7  C   UNL     1       1.010  14.191  18.970  0.00  0.00    +0.000 A 
ATOM      8  C   UNL     1       0.711  12.796  18.939  0.00  0.00    +0.000 A 
ATOM      9  C   UNL     1       1.454  11.606  18.955  0.00  0.00    +0.000 A 
ATOM     10  H   UNL     1      -2.199  14.111  18.812  0.00  0.00    +0.000 HD
ENDROOT
BRANCH   1  14
ATOM     11  C   UNL     1       2.888   6.645  19.172  0.00  0.00    +0.000 A 
ATOM     12  C   UNL     1       2.155   7.116  20.263  0.00  0.00    +0.000 A 
ATOM     13  C   UNL     1       1.478   8.336  20.176  0.00  0.00    +0.000 A 
ATOM     14  C   UNL     1       1.518   9.109  19.001  0.00  0.00    +0.000 A 
ATOM     15  C   UNL     1       2.224   8.595  17.902  0.00  0.00    +0.000 A 
ATOM     16  C   UNL     1       2.863   7.359  17.972  0.00  0.00    +0.000 A 
BRANCH  11  18
ATOM     17  O   UNL     1       4.878   5.433  19.201  0.00  0.00    +0.000 OA
ATOM     18  C   UNL     1       3.650   5.378  19.308  0.00  0.00    +0.000 C 
ATOM     19  N   UNL     1       2.969   4.183  19.528  0.00  0.00    +0.000 N 
ATOM     20  C   UNL     1       3.728   2.972  19.836  0.00  0.00    +0.000 C 
ATOM     21  C   UNL     1       3.325   1.824  18.904  0.00  0.00    +0.000 C 
ATOM     22  O   UNL     1       1.905   1.602  18.940  0.00  0.00    +0.000 OA
ATOM     23  C   UNL     1       1.206   2.777  18.514  0.00  0.00    +0.000 C 
ATOM     24  C   UNL     1       1.519   3.965  19.422  0.00  0.00    +0.000 C 
ENDBRANCH  11  18
ENDBRANCH   1  14
BRANCH   7  25
ATOM     25  C   UNL     1       2.294  14.879  18.943  0.00  0.00    +0.000 A 
ATOM     26  C   UNL     1       2.594  15.876  18.005  0.00  0.00    +0.000 A 
ATOM     27  C   UNL     1       3.835  16.526  18.033  0.00  0.00    +0.000 A 
ATOM     28  C   UNL     1       4.795  16.186  18.997  0.00  0.00    +0.000 A 
ATOM     29  C   UNL     1       4.455  15.258  19.983  0.00  0.00    +0.000 A 
ATOM     30  C   UNL     1       3.239  14.583  19.935  0.00  0.00    +0.000 A 
BRANCH  28  31
ATOM     31  C   UNL     1       6.102  16.897  18.999  0.00  0.00    +0.000 C 
ATOM     32  O   UNL     1       6.118  18.031  19.476  0.00  0.00    +0.000 OA
ATOM     33  N   UNL     1       7.253  16.292  18.496  0.00  0.00    +0.000 N 
ATOM     34  C   UNL     1       7.382  15.050  17.721  0.00  0.00    +0.000 C 
ATOM     35  C   UNL     1       8.351  14.103  18.444  0.00  0.00    +0.000 C 
ATOM     36  O   UNL     1       9.631  14.731  18.630  0.00  0.00    +0.000 OA
ATOM     37  C   UNL     1       9.507  15.948  19.392  0.00  0.00    +0.000 C 
ATOM     38  C   UNL     1       8.548  16.938  18.718  0.00  0.00    +0.000 C 
ENDBRANCH  28  31
ENDBRANCH   7  25
TORSDOF 4
ENDMDL
MODEL 2
REMARK VINA RESULT:     -10.0      0.161      1.126
REMARK  Name = 
REMARK  4 active torsions:
REMARK  status: ('A' for Active; 'I' for Inactive)
REMARK    1  A    between atoms: C_2  and  C_3
REMARK    2  A    between atoms: C_6  and  C_7
REMARK    3  A    between atoms: C_13  and  C_14
REMARK    4  A    between atoms: C_17  and  C_18
REMARK                            x       y       z     vdW  Elec       q    Type
REMARK                         _______ _______ _______ _____ _____    ______ ____
ROOT
ATOM      1  C   UNL     1       0.784  10.293  18.755  0.00  0.00    +0.000 A 
ATOM      2  C   UNL     1      -0.607  10.349  18.593  0.00  0.00    +0.000 A 
ATOM      3  N   UNL     1      -1.385  11.459  18.596  0.00  0.00    +0.000 NA
ATOM      4  C   UNL     1      -0.670  12.584  18.763  0.00  0.00    +0.000 A 
ATOM      5  N   UNL     1      -1.211  13.835  18.822  0.00  0.00    +0.000 N 
ATOM      6  C   UNL     1      -0.216  14.766  18.957  0.00  0.00    +0.000 A 
ATOM      7  C   UNL     1       1.000  14.102  18.982  0.00  0.00    +0.000 A 
ATOM      8  C   UNL     1       0.705  12.708  18.895  0.00  0.00    +0.000 A 
ATOM      9  C   UNL     1       1.451  11.519  18.884  0.00  0.00    +0.000 A 
ATOM     10  H   UNL     1      -2.205  14.020  18.755  0.00  0.00    +0.000 HD
ENDROOT
BRANCH   1  14
ATOM     11  C   UNL     1       2.979   6.614  19.072  0.00  0.00    +0.000 A 
ATOM     12  C   UNL     1       3.036   7.358  17.891  0.00  0.00    +0.000 A 
ATOM     13  C   UNL     1       2.313   8.549  17.781  0.00  0.00    +0.000 A 
ATOM     14  C   UNL     1       1.521   9.023  18.843  0.00  0.00    +0.000 A 
ATOM     15  C   UNL     1       1.514   8.283  20.036  0.00  0.00    +0.000 A 
ATOM     16  C   UNL     1       2.269   7.118  20.163  0.00  0.00    +0.000 A 
BRANCH  11  18
ATOM     17  O   UNL     1       4.919   5.333  18.930  0.00  0.00    +0.000 OA
ATOM     18  C   UNL     1       3.704   5.321  19.145  0.00  0.00    +0.000 C 
ATOM     19  N   UNL     1       3.003   4.151  19.428  0.00  0.00    +0.000 N 
ATOM     20  C   UNL     1       3.744   2.914  19.672  0.00  0.00    +0.000 C 
ATOM     21  C   UNL     1       3.220   1.781  18.782  0.00  0.00    +0.000 C 
ATOM     22  O   UNL     1       1.801   1.609  18.944  0.00  0.00    +0.000 OA
ATOM     23  C   UNL     1       1.110   2.808  18.578  0.00  0.00    +0.000 C 
ATOM     24  C   UNL     1       1.543   3.984  19.450  0.00  0.00    +0.000 C 
ENDBRANCH  11  18
ENDBRANCH   1  14
BRANCH   7  25
ATOM     25  C   UNL     1       2.282  14.793  19.005  0.00  0.00    +0.000 A 
ATOM     26  C   UNL     1       3.184  14.670  20.071  0.00  0.00    +0.000 A 
ATOM     27  C   UNL     1       4.415  15.337  20.038  0.00  0.00    +0.000 A 
ATOM     28  C   UNL     1       4.762  16.139  18.941  0.00  0.00    +0.000 A 
ATOM     29  C   UNL     1       3.899  16.183  17.845  0.00  0.00    +0.000 A 
ATOM     30  C   UNL     1       2.658  15.554  17.891  0.00  0.00    +0.000 A 
BRANCH  28  31
ATOM     31  C   UNL     1       6.079  16.832  18.938  0.00  0.00    +0.000 C 
ATOM     32  O   UNL     1       6.109  17.968  19.411  0.00  0.00    +0.000 OA
ATOM     33  N   UNL     1       7.220  16.210  18.437  0.00  0.00    +0.000 N 
ATOM     34  C   UNL     1       7.333  14.963  17.667  0.00  0.00    +0.000 C 
ATOM     35  C   UNL     1       8.290  14.006  18.393  0.00  0.00    +0.000 C 
ATOM     36  O   UNL     1       9.578  14.618  18.575  0.00  0.00    +0.000 OA
ATOM     37  C   UNL     1       9.471  15.840  19.332  0.00  0.00    +0.000 C 
ATOM     38  C   UNL     1       8.524  16.839  18.655  0.00  0.00    +0.000 C 
ENDBRANCH  28  31
ENDBRANCH   7  25
TORSDOF 4
ENDMDL
MODEL 3
REMARK VINA RESULT:      -9.6      0.971     10.248
REMARK  Name = 
REMARK  4 active torsions:
REMARK  status: ('A' for Active; 'I' for Inactive)
REMARK    1  A    between atoms: C_2  and  C_3
REMARK    2  A    between atoms: C_6  and  C_7
REMARK    3  A    between atoms: C_13  and  C_14
REMARK    4  A    between atoms: C_17  and  C_18
REMARK                            x       y       z     vdW  Elec       q    Type
REMARK                         _______ _______ _______ _____ _____    ______ ____
ROOT
ATOM      1  C   UNL     1       2.229  13.767  19.162  0.00  0.00    +0.000 A 
ATOM      2  C   UNL     1       0.984  14.393  19.304  0.00  0.00    +0.000 A 
ATOM      3  N   UNL     1      -0.235  13.802  19.270  0.00  0.00    +0.000 NA
ATOM      4  C   UNL     1      -0.155  12.473  19.091  0.00  0.00    +0.000 A 
ATOM      5  N   UNL     1      -1.235  11.644  19.002  0.00  0.00    +0.000 N 
ATOM      6  C   UNL     1      -0.815  10.348  18.863  0.00  0.00    +0.000 A 
ATOM      7  C   UNL     1       0.570  10.337  18.867  0.00  0.00    +0.000 A 
ATOM      8  C   UNL     1       0.989  11.696  18.975  0.00  0.00    +0.000 A 
ATOM      9  C   UNL     1       2.218  12.372  19.019  0.00  0.00    +0.000 A 
ATOM     10  H   UNL     1      -2.194  11.965  19.052  0.00  0.00    +0.000 HD
ENDROOT
BRANCH   1  14
ATOM     11  C   UNL     1       5.955  15.897  18.977  0.00  0.00    +0.000 A 
ATOM     12  C   UNL     1       5.296  15.754  20.200  0.00  0.00    +0.000 A 
ATOM     13  C   UNL     1       4.078  15.071  20.261  0.00  0.00    +0.000 A 
ATOM     14  C   UNL     1       3.493  14.518  19.107  0.00  0.00    +0.000 A 
ATOM     15  C   UNL     1       4.194  14.635  17.897  0.00  0.00    +0.000 A 
ATOM     16  C   UNL     1       5.430  15.277  17.842  0.00  0.00    +0.000 A 
BRANCH  11  18
ATOM     17  O   UNL     1       7.133  17.881  18.659  0.00  0.00    +0.000 OA
ATOM     18  C   UNL     1       7.215  16.679  18.925  0.00  0.00    +0.000 C 
ATOM     19  N   UNL     1       8.433  16.042  19.153  0.00  0.00    +0.000 N 
ATOM     20  C   UNL     1       9.650  16.844  19.274  0.00  0.00    +0.000 C 
ATOM     21  C   UNL     1      10.740  16.328  18.329  0.00  0.00    +0.000 C 
ATOM     22  O   UNL     1      10.987  14.927  18.540  0.00  0.00    +0.000 OA
ATOM     23  C   UNL     1       9.798  14.169  18.291  0.00  0.00    +0.000 C 
ATOM     24  C   UNL     1       8.667  14.593  19.227  0.00  0.00    +0.000 C 
ENDBRANCH  11  18
ENDBRANCH   1  14
BRANCH   7  25
ATOM     25  C   UNL     1       1.355   9.109  18.847  0.00  0.00    +0.000 A 
ATOM     26  C   UNL     1       2.138   8.734  17.747  0.00  0.00    +0.000 A 
ATOM     27  C   UNL     1       2.893   7.555  17.784  0.00  0.00    +0.000 A 
ATOM     28  C   UNL     1       2.874   6.732  18.919  0.00  0.00    +0.000 A 
ATOM     29  C   UNL     1       2.163   7.157  20.043  0.00  0.00    +0.000 A 
ATOM     30  C   UNL     1       1.381   8.308  19.996  0.00  0.00    +0.000 A 
BRANCH  28  31
ATOM     31  C   UNL     1       3.689   5.487  18.925  0.00  0.00    +0.000 C 
ATOM     32  O   UNL     1       4.855   5.588  19.304  0.00  0.00    +0.000 OA
ATOM     33  N   UNL     1       3.144   4.266  18.532  0.00  0.00    +0.000 N 
ATOM     34  C   UNL     1       1.858   3.996  17.872  0.00  0.00    +0.000 C 
ATOM     35  C   UNL     1       1.056   2.997  18.719  0.00  0.00    +0.000 C 
ATOM     36  O   UNL     1       1.802   1.783  18.914  0.00  0.00    +0.000 OA
ATOM     37  C   UNL     1       3.062   2.045  19.563  0.00  0.00    +0.000 C 
ATOM     38  C   UNL     1       3.910   3.040  18.762  0.00  0.00    +0.000 C 
ENDBRANCH  28  31
ENDBRANCH   7  25
TORSDOF 4
ENDMDL
MODEL 4
REMARK VINA RESULT:      -9.3      1.610      9.754
REMARK  Name = 
REMARK  4 active torsions:
REMARK  status: ('A' for Active; 'I' for Inactive)
REMARK    1  A    between atoms: C_2  and  C_3
REMARK    2  A    between atoms: C_6  and  C_7
REMARK    3  A    between atoms: C_13  and  C_14
REMARK    4  A    between atoms: C_17  and  C_18
REMARK                            x       y       z     vdW  Elec       q    Type
REMARK                         _______ _______ _______ _____ _____    ______ ____
ROOT
ATOM      1  C   UNL     1       2.585  14.426  18.821  0.00  0.00    +0.000 A 
ATOM      2  C   UNL     1       1.426  15.214  18.809  0.00  0.00    +0.000 A 
ATOM      3  N   UNL     1       0.144  14.778  18.752  0.00  0.00    +0.000 NA
ATOM      4  C   UNL     1       0.060  13.437  18.719  0.00  0.00    +0.000 A 
ATOM      5  N   UNL     1      -1.113  12.744  18.641  0.00  0.00    +0.000 N 
ATOM      6  C   UNL     1      -0.859  11.398  18.668  0.00  0.00    +0.000 A 
ATOM      7  C   UNL     1       0.510  11.216  18.770  0.00  0.00    +0.000 A 
ATOM      8  C   UNL     1       1.097  12.517  18.764  0.00  0.00    +0.000 A 
ATOM      9  C   UNL     1       2.399  13.036  18.823  0.00  0.00    +0.000 A 
ATOM     10  H   UNL     1      -2.023  13.185  18.590  0.00  0.00    +0.000 HD
ENDROOT
BRANCH   1  14
ATOM     11  C   UNL     1       6.562  16.043  18.704  0.00  0.00    +0.000 A 
ATOM     12  C   UNL     1       5.662  16.481  19.678  0.00  0.00    +0.000 A 
ATOM     13  C   UNL     1       4.363  15.965  19.711  0.00  0.00    +0.000 A 
ATOM     14  C   UNL     1       3.937  15.004  18.776  0.00  0.00    +0.000 A 
ATOM     15  C   UNL     1       4.871  14.546  17.834  0.00  0.00    +0.000 A 
ATOM     16  C   UNL     1       6.179  15.026  17.827  0.00  0.00    +0.000 A 
BRANCH  11  18
ATOM     17  O   UNL     1       7.995  17.848  18.361  0.00  0.00    +0.000 OA
ATOM     18  C   UNL     1       7.915  16.650  18.648  0.00  0.00    +0.000 C 
ATOM     19  N   UNL     1       9.036  15.862  18.898  0.00  0.00    +0.000 N 
ATOM     20  C   UNL     1      10.348  16.499  19.015  0.00  0.00    +0.000 C 
ATOM     21  C   UNL     1      11.366  15.825  18.089  0.00  0.00    +0.000 C 
ATOM     22  O   UNL     1      11.423  14.408  18.325  0.00  0.00    +0.000 OA
ATOM     23  C   UNL     1      10.146  13.810  18.080  0.00  0.00    +0.000 C 
ATOM     24  C   UNL     1       9.076  14.397  18.998  0.00  0.00    +0.000 C 
ENDBRANCH  11  18
ENDBRANCH   1  14
BRANCH   7  25
ATOM     25  C   UNL     1       1.127   9.907  18.934  0.00  0.00    +0.000 A 
ATOM     26  C   UNL     1       1.137   9.227  20.160  0.00  0.00    +0.000 A 
ATOM     27  C   UNL     1       1.723   7.959  20.263  0.00  0.00    +0.000 A 
ATOM     28  C   UNL     1       2.311   7.353  19.142  0.00  0.00    +0.000 A 
ATOM     29  C   UNL     1       2.218   7.996  17.907  0.00  0.00    +0.000 A 
ATOM     30  C   UNL     1       1.671   9.272  17.809  0.00  0.00    +0.000 A 
BRANCH  28  31
ATOM     31  C   UNL     1       2.924   6.005  19.287  0.00  0.00    +0.000 C 
ATOM     32  O   UNL     1       2.377   5.227  20.069  0.00  0.00    +0.000 OA
ATOM     33  N   UNL     1       4.055   5.644  18.558  0.00  0.00    +0.000 N 
ATOM     34  C   UNL     1       4.942   6.491  17.747  0.00  0.00    +0.000 C 
ATOM     35  C   UNL     1       5.012   5.928  16.320  0.00  0.00    +0.000 C 
ATOM     36  O   UNL     1       5.470   4.564  16.334  0.00  0.00    +0.000 OA
ATOM     37  C   UNL     1       4.599   3.732  17.126  0.00  0.00    +0.000 C 
ATOM     38  C   UNL     1       4.488   4.246  18.567  0.00  0.00    +0.000 C 
ENDBRANCH  28  31
ENDBRANCH   7  25
TORSDOF 4
ENDMDL
MODEL 5
REMARK VINA RESULT:      -9.2      1.078      1.384
REMARK  Name = 
REMARK  4 active torsions:
REMARK  status: ('A' for Active; 'I' for Inactive)
REMARK    1  A    between atoms: C_2  and  C_3
REMARK    2  A    between atoms: C_6  and  C_7
REMARK    3  A    between atoms: C_13  and  C_14
REMARK    4  A    between atoms: C_17  and  C_18
REMARK                            x       y       z     vdW  Elec       q    Type
REMARK                         _______ _______ _______ _____ _____    ______ ____
ROOT
ATOM      1  C   UNL     1       0.798  10.283  18.804  0.00  0.00    +0.000 A 
ATOM      2  C   UNL     1      -0.586  10.378  18.601  0.00  0.00    +0.000 A 
ATOM      3  N   UNL     1      -1.329  11.511  18.558  0.00  0.00    +0.000 NA
ATOM      4  C   UNL     1      -0.584  12.617  18.723  0.00  0.00    +0.000 A 
ATOM      5  N   UNL     1      -1.088  13.885  18.740  0.00  0.00    +0.000 N 
ATOM      6  C   UNL     1      -0.068  14.788  18.884  0.00  0.00    +0.000 A 
ATOM      7  C   UNL     1       1.125  14.088  18.958  0.00  0.00    +0.000 A 
ATOM      8  C   UNL     1       0.790  12.703  18.892  0.00  0.00    +0.000 A 
ATOM      9  C   UNL     1       1.499  11.492  18.927  0.00  0.00    +0.000 A 
ATOM     10  H   UNL     1      -2.073  14.099  18.641  0.00  0.00    +0.000 HD
ENDROOT
BRANCH   1  14
ATOM     11  C   UNL     1       2.869   6.549  19.259  0.00  0.00    +0.000 A 
ATOM     12  C   UNL     1       2.943   7.242  18.048  0.00  0.00    +0.000 A 
ATOM     13  C   UNL     1       2.261   8.451  17.894  0.00  0.00    +0.000 A 
ATOM     14  C   UNL     1       1.492   8.994  18.940  0.00  0.00    +0.000 A 
ATOM     15  C   UNL     1       1.469   8.303  20.162  0.00  0.00    +0.000 A 
ATOM     16  C   UNL     1       2.185   7.120  20.333  0.00  0.00    +0.000 A 
BRANCH  11  18
ATOM     17  O   UNL     1       4.780   5.215  19.267  0.00  0.00    +0.000 OA
ATOM     18  C   UNL     1       3.551   5.236  19.380  0.00  0.00    +0.000 C 
ATOM     19  N   UNL     1       2.799   4.084  19.594  0.00  0.00    +0.000 N 
ATOM     20  C   UNL     1       3.483   2.824  19.887  0.00  0.00    +0.000 C 
ATOM     21  C   UNL     1       3.005   1.713  18.948  0.00  0.00    +0.000 C 
ATOM     22  O   UNL     1       1.573   1.579  18.990  0.00  0.00    +0.000 OA
ATOM     23  C   UNL     1       0.947   2.798  18.578  0.00  0.00    +0.000 C 
ATOM     24  C   UNL     1       1.338   3.956  19.494  0.00  0.00    +0.000 C 
ENDBRANCH  11  18
ENDBRANCH   1  14
BRANCH   7  25
ATOM     25  C   UNL     1       2.427  14.740  19.004  0.00  0.00    +0.000 A 
ATOM     26  C   UNL     1       3.396  14.559  18.007  0.00  0.00    +0.000 A 
ATOM     27  C   UNL     1       4.625  15.225  18.084  0.00  0.00    +0.000 A 
ATOM     28  C   UNL     1       4.906  16.081  19.159  0.00  0.00    +0.000 A 
ATOM     29  C   UNL     1       3.903  16.326  20.099  0.00  0.00    +0.000 A 
ATOM     30  C   UNL     1       2.696  15.636  20.047  0.00  0.00    +0.000 A 
BRANCH  28  31
ATOM     31  C   UNL     1       6.222  16.774  19.209  0.00  0.00    +0.000 C 
ATOM     32  O   UNL     1       6.274  17.903  18.722  0.00  0.00    +0.000 OA
ATOM     33  N   UNL     1       7.333  16.171  19.794  0.00  0.00    +0.000 N 
ATOM     34  C   UNL     1       7.506  14.779  20.235  0.00  0.00    +0.000 C 
ATOM     35  C   UNL     1       7.909  14.766  21.718  0.00  0.00    +0.000 C 
ATOM     36  O   UNL     1       9.113  15.526  21.923  0.00  0.00    +0.000 OA
ATOM     37  C   UNL     1       8.945  16.892  21.493  0.00  0.00    +0.000 C 
ATOM     38  C   UNL     1       8.540  16.970  20.016  0.00  0.00    +0.000 C 
ENDBRANCH  28  31
ENDBRANCH   7  25
TORSDOF 4
ENDMDL
MODEL 6
REMARK VINA RESULT:      -9.2      1.474      2.381
REMARK  Name = 
REMARK  4 active torsions:
REMARK  status: ('A' for Active; 'I' for Inactive)
REMARK    1  A    between atoms: C_2  and  C_3
REMARK    2  A    between atoms: C_6  and  C_7
REMARK    3  A    between atoms: C_13  and  C_14
REMARK    4  A    between atoms: C_17  and  C_18
REMARK                            x       y       z     vdW  Elec       q    Type
REMARK                         _______ _______ _______ _____ _____    ______ ____
ROOT
ATOM      1  C   UNL     1       0.627  10.591  19.010  0.00  0.00    +0.000 A 
ATOM      2  C   UNL     1      -0.774  10.617  19.012  0.00  0.00    +0.000 A 
ATOM      3  N   UNL     1      -1.569  11.694  19.224  0.00  0.00    +0.000 NA
ATOM      4  C   UNL     1      -0.864  12.818  19.432  0.00  0.00    +0.000 A 
ATOM      5  N   UNL     1      -1.421  14.037  19.688  0.00  0.00    +0.000 N 
ATOM      6  C   UNL     1      -0.437  14.981  19.812  0.00  0.00    +0.000 A 
ATOM      7  C   UNL     1       0.787  14.359  19.627  0.00  0.00    +0.000 A 
ATOM      8  C   UNL     1       0.515  12.974  19.422  0.00  0.00    +0.000 A 
ATOM      9  C   UNL     1       1.279  11.818  19.197  0.00  0.00    +0.000 A 
ATOM     10  H   UNL     1      -2.419  14.195  19.754  0.00  0.00    +0.000 HD
ENDROOT
BRANCH   1  14
ATOM     11  C   UNL     1       2.822   6.925  18.566  0.00  0.00    +0.000 A 
ATOM     12  C   UNL     1       2.263   7.255  19.803  0.00  0.00    +0.000 A 
ATOM     13  C   UNL     1       1.558   8.453  19.953  0.00  0.00    +0.000 A 
ATOM     14  C   UNL     1       1.397   9.344  18.876  0.00  0.00    +0.000 A 
ATOM     15  C   UNL     1       1.928   8.971  17.631  0.00  0.00    +0.000 A 
ATOM     16  C   UNL     1       2.593   7.757  17.469  0.00  0.00    +0.000 A 
BRANCH  11  18
ATOM     17  O   UNL     1       3.218   4.682  19.053  0.00  0.00    +0.000 OA
ATOM     18  C   UNL     1       3.619   5.679  18.445  0.00  0.00    +0.000 C 
ATOM     19  N   UNL     1       4.783   5.675  17.682  0.00  0.00    +0.000 N 
ATOM     20  C   UNL     1       5.467   4.408  17.423  0.00  0.00    +0.000 C 
ATOM     21  C   UNL     1       6.949   4.501  17.798  0.00  0.00    +0.000 C 
ATOM     22  O   UNL     1       7.583   5.608  17.134  0.00  0.00    +0.000 OA
ATOM     23  C   UNL     1       6.958   6.839  17.512  0.00  0.00    +0.000 C 
ATOM     24  C   UNL     1       5.479   6.847  17.132  0.00  0.00    +0.000 C 
ENDBRANCH  11  18
ENDBRANCH   1  14
BRANCH   7  25
ATOM     25  C   UNL     1       2.049  15.087  19.582  0.00  0.00    +0.000 A 
ATOM     26  C   UNL     1       3.041  14.934  20.561  0.00  0.00    +0.000 A 
ATOM     27  C   UNL     1       4.247  15.638  20.463  0.00  0.00    +0.000 A 
ATOM     28  C   UNL     1       4.479  16.508  19.387  0.00  0.00    +0.000 A 
ATOM     29  C   UNL     1       3.525  16.585  18.371  0.00  0.00    +0.000 A 
ATOM     30  C   UNL     1       2.309  15.917  18.484  0.00  0.00    +0.000 A 
BRANCH  28  31
ATOM     31  C   UNL     1       5.773  17.240  19.314  0.00  0.00    +0.000 C 
ATOM     32  O   UNL     1       5.800  18.371  19.799  0.00  0.00    +0.000 OA
ATOM     33  N   UNL     1       6.899  16.659  18.735  0.00  0.00    +0.000 N 
ATOM     34  C   UNL     1       7.000  15.425  17.942  0.00  0.00    +0.000 C 
ATOM     35  C   UNL     1       8.026  14.488  18.596  0.00  0.00    +0.000 C 
ATOM     36  O   UNL     1       9.306  15.135  18.707  0.00  0.00    +0.000 OA
ATOM     37  C   UNL     1       9.210  16.344  19.486  0.00  0.00    +0.000 C 
ATOM     38  C   UNL     1       8.195  17.323  18.882  0.00  0.00    +0.000 C 
ENDBRANCH  28  31
ENDBRANCH   7  25
TORSDOF 4
ENDMDL
MODEL 7
REMARK VINA RESULT:      -9.1      1.262     10.314
REMARK  Name = 
REMARK  4 active torsions:
REMARK  status: ('A' for Active; 'I' for Inactive)
REMARK    1  A    between atoms: C_2  and  C_3
REMARK    2  A    between atoms: C_6  and  C_7
REMARK    3  A    between atoms: C_13  and  C_14
REMARK    4  A    between atoms: C_17  and  C_18
REMARK                            x       y       z     vdW  Elec       q    Type
REMARK                         _______ _______ _______ _____ _____    ______ ____
ROOT
ATOM      1  C   UNL     1       2.290  13.669  20.089  0.00  0.00    +0.000 A 
ATOM      2  C   UNL     1       1.120  14.251  20.598  0.00  0.00    +0.000 A 
ATOM      3  N   UNL     1      -0.072  13.640  20.804  0.00  0.00    +0.000 NA
ATOM      4  C   UNL     1      -0.043  12.338  20.473  0.00  0.00    +0.000 A 
ATOM      5  N   UNL     1      -1.116  11.500  20.567  0.00  0.00    +0.000 N 
ATOM      6  C   UNL     1      -0.749  10.234  20.195  0.00  0.00    +0.000 A 
ATOM      7  C   UNL     1       0.594  10.252  19.857  0.00  0.00    +0.000 A 
ATOM      8  C   UNL     1       1.033  11.602  19.999  0.00  0.00    +0.000 A 
ATOM      9  C   UNL     1       2.238  12.296  19.809  0.00  0.00    +0.000 A 
ATOM     10  H   UNL     1      -2.031  11.793  20.885  0.00  0.00    +0.000 HD
ENDROOT
BRANCH   1  14
ATOM     11  C   UNL     1       5.866  15.884  19.222  0.00  0.00    +0.000 A 
ATOM     12  C   UNL     1       5.456  15.717  20.547  0.00  0.00    +0.000 A 
ATOM     13  C   UNL     1       4.286  15.006  20.831  0.00  0.00    +0.000 A 
ATOM     14  C   UNL     1       3.504  14.449  19.803  0.00  0.00    +0.000 A 
ATOM     15  C   UNL     1       3.959  14.591  18.483  0.00  0.00    +0.000 A 
ATOM     16  C   UNL     1       5.148  15.261  18.201  0.00  0.00    +0.000 A 
BRANCH  11  18
ATOM     17  O   UNL     1       6.917  17.883  18.650  0.00  0.00    +0.000 OA
ATOM     18  C   UNL     1       7.077  16.695  18.940  0.00  0.00    +0.000 C 
ATOM     19  N   UNL     1       8.335  16.098  18.990  0.00  0.00    +0.000 N 
ATOM     20  C   UNL     1       9.530  16.934  18.885  0.00  0.00    +0.000 C 
ATOM     21  C   UNL     1      10.469  16.410  17.794  0.00  0.00    +0.000 C 
ATOM     22  O   UNL     1      10.790  15.024  18.009  0.00  0.00    +0.000 OA
ATOM     23  C   UNL     1       9.601  14.228  17.982  0.00  0.00    +0.000 C 
ATOM     24  C   UNL     1       8.623  14.659  19.074  0.00  0.00    +0.000 C 
ENDBRANCH  11  18
ENDBRANCH   1  14
BRANCH   7  25
ATOM     25  C   UNL     1       1.344   9.050  19.518  0.00  0.00    +0.000 A 
ATOM     26  C   UNL     1       1.484   7.974  20.405  0.00  0.00    +0.000 A 
ATOM     27  C   UNL     1       2.195   6.829  20.025  0.00  0.00    +0.000 A 
ATOM     28  C   UNL     1       2.782   6.744  18.754  0.00  0.00    +0.000 A 
ATOM     29  C   UNL     1       2.562   7.781  17.845  0.00  0.00    +0.000 A 
ATOM     30  C   UNL     1       1.889   8.936  18.232  0.00  0.00    +0.000 A 
BRANCH  28  31
ATOM     31  C   UNL     1       3.531   5.513  18.383  0.00  0.00    +0.000 C 
ATOM     32  O   UNL     1       4.754   5.614  18.286  0.00  0.00    +0.000 OA
ATOM     33  N   UNL     1       2.872   4.304  18.171  0.00  0.00    +0.000 N 
ATOM     34  C   UNL     1       1.430   4.045  18.047  0.00  0.00    +0.000 C 
ATOM     35  C   UNL     1       1.014   2.996  19.088  0.00  0.00    +0.000 C 
ATOM     36  O   UNL     1       1.772   1.785  18.920  0.00  0.00    +0.000 OA
ATOM     37  C   UNL     1       3.186   2.036  19.044  0.00  0.00    +0.000 C 
ATOM     38  C   UNL     1       3.663   3.081  18.027  0.00  0.00    +0.000 C 
ENDBRANCH  28  31
ENDBRANCH   7  25
TORSDOF 4
ENDMDL
MODEL 8
REMARK VINA RESULT:      -9.0      0.928     10.328
REMARK  Name = 
REMARK  4 active torsions:
REMARK  status: ('A' for Active; 'I' for Inactive)
REMARK    1  A    between atoms: C_2  and  C_3
REMARK    2  A    between atoms: C_6  and  C_7
REMARK    3  A    between atoms: C_13  and  C_14
REMARK    4  A    between atoms: C_17  and  C_18
REMARK                            x       y       z     vdW  Elec       q    Type
REMARK                         _______ _______ _______ _____ _____    ______ ____
ROOT
ATOM      1  C   UNL     1       1.924  14.049  19.501  0.00  0.00    +0.000 A 
ATOM      2  C   UNL     1       0.653  14.629  19.609  0.00  0.00    +0.000 A 
ATOM      3  N   UNL     1      -0.543  14.002  19.493  0.00  0.00    +0.000 NA
ATOM      4  C   UNL     1      -0.409  12.685  19.262  0.00  0.00    +0.000 A 
ATOM      5  N   UNL     1      -1.456  11.827  19.087  0.00  0.00    +0.000 N 
ATOM      6  C   UNL     1      -0.987  10.552  18.913  0.00  0.00    +0.000 A 
ATOM      7  C   UNL     1       0.396  10.584  18.983  0.00  0.00    +0.000 A 
ATOM      8  C   UNL     1       0.764  11.950  19.168  0.00  0.00    +0.000 A 
ATOM      9  C   UNL     1       1.967  12.662  19.298  0.00  0.00    +0.000 A 
ATOM     10  H   UNL     1      -2.427  12.116  19.105  0.00  0.00    +0.000 HD
ENDROOT
BRANCH   1  14
ATOM     11  C   UNL     1       5.506  16.415  19.652  0.00  0.00    +0.000 A 
ATOM     12  C   UNL     1       4.882  16.175  18.425  0.00  0.00    +0.000 A 
ATOM     13  C   UNL     1       3.723  15.396  18.372  0.00  0.00    +0.000 A 
ATOM     14  C   UNL     1       3.163  14.841  19.538  0.00  0.00    +0.000 A 
ATOM     15  C   UNL     1       3.781  15.133  20.764  0.00  0.00    +0.000 A 
ATOM     16  C   UNL     1       4.911  15.946  20.824  0.00  0.00    +0.000 A 
BRANCH  11  18
ATOM     17  O   UNL     1       6.684  18.421  19.773  0.00  0.00    +0.000 OA
ATOM     18  C   UNL     1       6.769  17.194  19.678  0.00  0.00    +0.000 C 
ATOM     19  N   UNL     1       7.990  16.532  19.575  0.00  0.00    +0.000 N 
ATOM     20  C   UNL     1       9.231  17.280  19.777  0.00  0.00    +0.000 C 
ATOM     21  C   UNL     1      10.195  17.064  18.606  0.00  0.00    +0.000 C 
ATOM     22  O   UNL     1      10.433  15.664  18.382  0.00  0.00    +0.000 OA
ATOM     23  C   UNL     1       9.207  14.995  18.068  0.00  0.00    +0.000 C 
ATOM     24  C   UNL     1       8.199  15.124  19.209  0.00  0.00    +0.000 C 
ENDBRANCH  11  18
ENDBRANCH   1  14
BRANCH   7  25
ATOM     25  C   UNL     1       1.221   9.384  18.949  0.00  0.00    +0.000 A 
ATOM     26  C   UNL     1       1.329   8.514  20.043  0.00  0.00    +0.000 A 
ATOM     27  C   UNL     1       2.117   7.360  19.955  0.00  0.00    +0.000 A 
ATOM     28  C   UNL     1       2.812   7.059  18.773  0.00  0.00    +0.000 A 
ATOM     29  C   UNL     1       2.627   7.882  17.661  0.00  0.00    +0.000 A 
ATOM     30  C   UNL     1       1.876   9.050  17.756  0.00  0.00    +0.000 A 
BRANCH  28  31
ATOM     31  C   UNL     1       3.640   5.824  18.714  0.00  0.00    +0.000 C 
ATOM     32  O   UNL     1       4.855   5.962  18.853  0.00  0.00    +0.000 OA
ATOM     33  N   UNL     1       3.056   4.573  18.526  0.00  0.00    +0.000 N 
ATOM     34  C   UNL     1       1.674   4.244  18.148  0.00  0.00    +0.000 C 
ATOM     35  C   UNL     1       1.071   3.308  19.206  0.00  0.00    +0.000 C 
ATOM     36  O   UNL     1       1.866   2.117  19.343  0.00  0.00    +0.000 OA
ATOM     37  C   UNL     1       3.221   2.438  19.716  0.00  0.00    +0.000 C 
ATOM     38  C   UNL     1       3.879   3.374  18.694  0.00  0.00    +0.000 C 
ENDBRANCH  28  31
ENDBRANCH   7  25
TORSDOF 4
ENDMDL
MODEL 9
REMARK VINA RESULT:      -8.9      1.556      9.710
REMARK  Name = 
REMARK  4 active torsions:
REMARK  status: ('A' for Active; 'I' for Inactive)
REMARK    1  A    between atoms: C_2  and  C_3
REMARK    2  A    between atoms: C_6  and  C_7
REMARK    3  A    between atoms: C_13  and  C_14
REMARK    4  A    between atoms: C_17  and  C_18
REMARK                            x       y       z     vdW  Elec       q    Type
REMARK                         _______ _______ _______ _____ _____    ______ ____
ROOT
ATOM      1  C   UNL     1       2.275  14.116  19.217  0.00  0.00    +0.000 A 
ATOM      2  C   UNL     1       1.084  14.835  19.384  0.00  0.00    +0.000 A 
ATOM      3  N   UNL     1      -0.177  14.336  19.389  0.00  0.00    +0.000 NA
ATOM      4  C   UNL     1      -0.199  13.002  19.225  0.00  0.00    +0.000 A 
ATOM      5  N   UNL     1      -1.340  12.255  19.174  0.00  0.00    +0.000 N 
ATOM      6  C   UNL     1      -1.021  10.930  19.041  0.00  0.00    +0.000 A 
ATOM      7  C   UNL     1       0.359  10.816  19.009  0.00  0.00    +0.000 A 
ATOM      8  C   UNL     1       0.880  12.142  19.089  0.00  0.00    +0.000 A 
ATOM      9  C   UNL     1       2.157  12.725  19.092  0.00  0.00    +0.000 A 
ATOM     10  H   UNL     1      -2.271  12.647  19.246  0.00  0.00    +0.000 HD
ENDROOT
BRANCH   1  14
ATOM     11  C   UNL     1       6.078  16.095  18.953  0.00  0.00    +0.000 A 
ATOM     12  C   UNL     1       5.516  15.515  17.813  0.00  0.00    +0.000 A 
ATOM     13  C   UNL     1       4.284  14.860  17.899  0.00  0.00    +0.000 A 
ATOM     14  C   UNL     1       3.589  14.771  19.120  0.00  0.00    +0.000 A 
ATOM     15  C   UNL     1       4.151  15.400  20.241  0.00  0.00    +0.000 A 
ATOM     16  C   UNL     1       5.357  16.092  20.148  0.00  0.00    +0.000 A 
BRANCH  11  18
ATOM     17  O   UNL     1       7.461  17.921  18.526  0.00  0.00    +0.000 OA
ATOM     18  C   UNL     1       7.415  16.731  18.852  0.00  0.00    +0.000 C 
ATOM     19  N   UNL     1       8.559  15.978  19.103  0.00  0.00    +0.000 N 
ATOM     20  C   UNL     1       9.858  16.647  19.175  0.00  0.00    +0.000 C 
ATOM     21  C   UNL     1      10.873  15.969  18.249  0.00  0.00    +0.000 C 
ATOM     22  O   UNL     1      10.969  14.562  18.528  0.00  0.00    +0.000 OA
ATOM     23  C   UNL     1       9.702  13.927  18.327  0.00  0.00    +0.000 C 
ATOM     24  C   UNL     1       8.636  14.517  19.248  0.00  0.00    +0.000 C 
ENDBRANCH  11  18
ENDBRANCH   1  14
BRANCH   7  25
ATOM     25  C   UNL     1       1.050   9.533  18.984  0.00  0.00    +0.000 A 
ATOM     26  C   UNL     1       1.603   8.998  17.812  0.00  0.00    +0.000 A 
ATOM     27  C   UNL     1       2.277   7.772  17.843  0.00  0.00    +0.000 A 
ATOM     28  C   UNL     1       2.407   7.059  19.045  0.00  0.00    +0.000 A 
ATOM     29  C   UNL     1       1.933   7.641  20.222  0.00  0.00    +0.000 A 
ATOM     30  C   UNL     1       1.228   8.841  20.189  0.00  0.00    +0.000 A 
BRANCH  28  31
ATOM     31  C   UNL     1       3.130   5.759  19.041  0.00  0.00    +0.000 C 
ATOM     32  O   UNL     1       2.661   4.860  19.738  0.00  0.00    +0.000 OA
ATOM     33  N   UNL     1       4.276   5.573  18.270  0.00  0.00    +0.000 N 
ATOM     34  C   UNL     1       5.079   6.572  17.549  0.00  0.00    +0.000 C 
ATOM     35  C   UNL     1       5.173   6.171  16.070  0.00  0.00    +0.000 C 
ATOM     36  O   UNL     1       5.741   4.856  15.935  0.00  0.00    +0.000 OA
ATOM     37  C   UNL     1       4.954   3.875  16.639  0.00  0.00    +0.000 C 
ATOM     38  C   UNL     1       4.823   4.223  18.127  0.00  0.00    +0.000 C 
ENDBRANCH  28  31
ENDBRANCH   7  25
TORSDOF 4
ENDMDL
