MODEL 1
REMARK VINA RESULT:      -8.1      0.000      0.000
REMARK  Name = 
REMARK  2 active torsions:
REMARK  status: ('A' for Active; 'I' for Inactive)
REMARK    1  A    between atoms: N_3  and  C_4
REMARK    2  A    between atoms: N_10  and  C_18
REMARK                            x       y       z     vdW  Elec       q    Type
REMARK                         _______ _______ _______ _____ _____    ______ ____
ROOT
ATOM      1  O   UNL     1       4.006   7.643  17.732  0.00  0.00    +0.000 OA
ATOM      2  C   UNL     1       3.510   6.818  18.497  0.00  0.00    +0.000 C 
ATOM      3  N   UNL     1       2.499   7.121  19.405  0.00  0.00    +0.000 N 
ATOM      4  N   UNL     1       3.951   5.470  18.561  0.00  0.00    +0.000 N 
ATOM      5  C   UNL     1       3.149   4.348  18.826  0.00  0.00    +0.000 C 
ATOM      6  N   UNL     1       3.676   3.329  19.385  0.00  0.00    +0.000 NA
ATOM      7  C   UNL     1       3.095   2.078  19.842  0.00  0.00    +0.000 C 
ATOM      8  C   UNL     1       1.846   1.601  19.124  0.00  0.00    +0.000 C 
ATOM      9  C   UNL     1       0.570   2.274  19.637  0.00  0.00    +0.000 C 
ATOM     10  C   UNL     1       0.658   3.785  19.786  0.00  0.00    +0.000 C 
ATOM     11  S   UNL     1       1.464   4.516  18.356  0.00  0.00    +0.000 S 
ATOM     12  H   UNL     1       2.366   6.466  20.162  0.00  0.00    +0.000 HD
ENDROOT
BRANCH   4  13
ATOM     13  C   UNL     1       5.330   5.271  18.179  0.00  0.00    +0.000 A 
ATOM     14  C   UNL     1       6.305   5.610  19.137  0.00  0.00    +0.000 A 
ATOM     15  C   UNL     1       7.656   5.599  18.816  0.00  0.00    +0.000 A 
ATOM     16  C   UNL     1       8.051   5.322  17.514  0.00  0.00    +0.000 A 
ATOM     17  C   UNL     1       7.108   5.021  16.522  0.00  0.00    +0.000 A 
ATOM     18  C   UNL     1       7.546   4.858  15.196  0.00  0.00    +0.000 A 
ATOM     19  C   UNL     1       6.649   4.556  14.176  0.00  0.00    +0.000 A 
ATOM     20  C   UNL     1       5.309   4.370  14.478  0.00  0.00    +0.000 A 
ATOM     21  C   UNL     1       4.853   4.559  15.788  0.00  0.00    +0.000 A 
ATOM     22  C   UNL     1       5.727   4.924  16.845  0.00  0.00    +0.000 A 
ENDBRANCH   4  13
BRANCH   3  23
ATOM     23  C   UNL     1       1.701   8.283  19.423  0.00  0.00    +0.000 A 
ATOM     24  C   UNL     1       1.390   9.007  18.270  0.00  0.00    +0.000 A 
ATOM     25  C   UNL     1       0.580  10.145  18.340  0.00  0.00    +0.000 A 
ATOM     26  C   UNL     1       0.068  10.563  19.559  0.00  0.00    +0.000 A 
ATOM     27  C   UNL     1       0.354   9.838  20.715  0.00  0.00    +0.000 A 
ATOM     28  C   UNL     1       1.162   8.699  20.644  0.00  0.00    +0.000 A 
ENDBRANCH   3  23
TORSDOF 2
ENDMDL
MODEL 2
REMARK VINA RESULT:      -7.7      0.610      1.103
REMARK  Name = 
REMARK  2 active torsions:
REMARK  status: ('A' for Active; 'I' for Inactive)
REMARK    1  A    between atoms: N_3  and  C_4
REMARK    2  A    between atoms: N_10  and  C_18
REMARK                            x       y       z     vdW  Elec       q    Type
REMARK                         _______ _______ _______ _____ _____    ______ ____
ROOT
ATOM      1  O   UNL     1       3.636   7.985  17.433  0.00  0.00    +0.000 OA
ATOM      2  C   UNL     1       3.322   7.129  18.257  0.00  0.00    +0.000 C 
ATOM      3  N   UNL     1       2.387   7.340  19.268  0.00  0.00    +0.000 N 
ATOM      4  N   UNL     1       3.915   5.839  18.288  0.00  0.00    +0.000 N 
ATOM      5  C   UNL     1       3.277   4.643  18.653  0.00  0.00    +0.000 C 
ATOM      6  N   UNL     1       3.974   3.702  19.163  0.00  0.00    +0.000 NA
ATOM      7  C   UNL     1       3.590   2.406  19.695  0.00  0.00    +0.000 C 
ATOM      8  C   UNL     1       2.331   1.776  19.125  0.00  0.00    +0.000 C 
ATOM      9  C   UNL     1       1.051   2.317  19.767  0.00  0.00    +0.000 C 
ATOM     10  C   UNL     1       0.984   3.832  19.889  0.00  0.00    +0.000 C 
ATOM     11  S   UNL     1       1.543   4.613  18.370  0.00  0.00    +0.000 S 
ATOM     12  H   UNL     1       2.411   6.693  20.043  0.00  0.00    +0.000 HD
ENDROOT
BRANCH   4  13
ATOM     13  C   UNL     1       5.258   5.785  17.759  0.00  0.00    +0.000 A 
ATOM     14  C   UNL     1       6.234   6.542  18.435  0.00  0.00    +0.000 A 
ATOM     15  C   UNL     1       7.517   6.677  17.921  0.00  0.00    +0.000 A 
ATOM     16  C   UNL     1       7.825   6.121  16.686  0.00  0.00    +0.000 A 
ATOM     17  C   UNL     1       6.869   5.396  15.963  0.00  0.00    +0.000 A 
ATOM     18  C   UNL     1       7.191   4.948  14.670  0.00  0.00    +0.000 A 
ATOM     19  C   UNL     1       6.277   4.222  13.912  0.00  0.00    +0.000 A 
ATOM     20  C   UNL     1       5.044   3.899  14.457  0.00  0.00    +0.000 A 
ATOM     21  C   UNL     1       4.696   4.363  15.731  0.00  0.00    +0.000 A 
ATOM     22  C   UNL     1       5.579   5.155  16.511  0.00  0.00    +0.000 A 
ENDBRANCH   4  13
BRANCH   3  23
ATOM     23  C   UNL     1       1.470   8.408  19.361  0.00  0.00    +0.000 A 
ATOM     24  C   UNL     1       1.054   8.946  20.580  0.00  0.00    +0.000 A 
ATOM     25  C   UNL     1       0.154  10.016  20.617  0.00  0.00    +0.000 A 
ATOM     26  C   UNL     1      -0.330  10.560  19.437  0.00  0.00    +0.000 A 
ATOM     27  C   UNL     1       0.092  10.045  18.212  0.00  0.00    +0.000 A 
ATOM     28  C   UNL     1       0.995   8.978  18.176  0.00  0.00    +0.000 A 
ENDBRANCH   3  23
TORSDOF 2
ENDMDL
MODEL 3
REMARK VINA RESULT:      -7.0      5.009     11.221
REMARK  Name = 
REMARK  2 active torsions:
REMARK  status: ('A' for Active; 'I' for Inactive)
REMARK    1  A    between atoms: N_3  and  C_4
REMARK    2  A    between atoms: N_10  and  C_18
REMARK                            x       y       z     vdW  Elec       q    Type
REMARK                         _______ _______ _______ _____ _____    ______ ____
ROOT
ATOM      1  O   UNL     1      -1.907  10.000  19.104  0.00  0.00    +0.000 OA
ATOM      2  C   UNL     1      -1.185  10.914  19.497  0.00  0.00    +0.000 C 
ATOM      3  N   UNL     1       0.168  10.757  19.783  0.00  0.00    +0.000 N 
ATOM      4  N   UNL     1      -1.672  12.226  19.740  0.00  0.00    +0.000 N 
ATOM      5  C   UNL     1      -0.965  13.422  19.541  0.00  0.00    +0.000 C 
ATOM      6  N   UNL     1      -1.248  14.435  20.265  0.00  0.00    +0.000 NA
ATOM      7  C   UNL     1      -0.649  15.757  20.339  0.00  0.00    +0.000 C 
ATOM      8  C   UNL     1       0.021  16.277  19.080  0.00  0.00    +0.000 C 
ATOM      9  C   UNL     1       1.445  15.743  18.899  0.00  0.00    +0.000 C 
ATOM     10  C   UNL     1       1.600  14.244  19.109  0.00  0.00    +0.000 C 
ATOM     11  S   UNL     1       0.270  13.352  18.293  0.00  0.00    +0.000 S 
ATOM     12  H   UNL     1       0.592  11.474  20.355  0.00  0.00    +0.000 HD
ENDROOT
BRANCH   4  13
ATOM     13  C   UNL     1      -3.071  12.289  20.097  0.00  0.00    +0.000 A 
ATOM     14  C   UNL     1      -3.987  12.416  19.035  0.00  0.00    +0.000 A 
ATOM     15  C   UNL     1      -5.337  12.636  19.278  0.00  0.00    +0.000 A 
ATOM     16  C   UNL     1      -5.782  12.808  20.583  0.00  0.00    +0.000 A 
ATOM     17  C   UNL     1      -4.894  12.730  21.663  0.00  0.00    +0.000 A 
ATOM     18  C   UNL     1      -5.368  13.020  22.954  0.00  0.00    +0.000 A 
ATOM     19  C   UNL     1      -4.526  12.956  24.061  0.00  0.00    +0.000 A 
ATOM     20  C   UNL     1      -3.209  12.556  23.894  0.00  0.00    +0.000 A 
ATOM     21  C   UNL     1      -2.714  12.292  22.611  0.00  0.00    +0.000 A 
ATOM     22  C   UNL     1      -3.526  12.404  21.452  0.00  0.00    +0.000 A 
ENDBRANCH   4  13
BRANCH   3  23
ATOM     23  C   UNL     1       0.986   9.664  19.426  0.00  0.00    +0.000 A 
ATOM     24  C   UNL     1       1.273   8.616  20.301  0.00  0.00    +0.000 A 
ATOM     25  C   UNL     1       2.077   7.546  19.892  0.00  0.00    +0.000 A 
ATOM     26  C   UNL     1       2.591   7.513  18.605  0.00  0.00    +0.000 A 
ATOM     27  C   UNL     1       2.295   8.544  17.715  0.00  0.00    +0.000 A 
ATOM     28  C   UNL     1       1.489   9.611  18.123  0.00  0.00    +0.000 A 
ENDBRANCH   3  23
TORSDOF 2
ENDMDL
MODEL 4
REMARK VINA RESULT:      -6.8      8.604     10.286
REMARK  Name = 
REMARK  2 active torsions:
REMARK  status: ('A' for Active; 'I' for Inactive)
REMARK    1  A    between atoms: N_3  and  C_4
REMARK    2  A    between atoms: N_10  and  C_18
REMARK                            x       y       z     vdW  Elec       q    Type
REMARK                         _______ _______ _______ _____ _____    ______ ____
ROOT
ATOM      1  O   UNL     1       8.661  14.380  22.505  0.00  0.00    +0.000 OA
ATOM      2  C   UNL     1       7.654  14.145  21.841  0.00  0.00    +0.000 C 
ATOM      3  N   UNL     1       6.575  13.403  22.315  0.00  0.00    +0.000 N 
ATOM      4  N   UNL     1       7.503  14.578  20.497  0.00  0.00    +0.000 N 
ATOM      5  C   UNL     1       6.303  14.970  19.883  0.00  0.00    +0.000 C 
ATOM      6  N   UNL     1       6.172  14.808  18.623  0.00  0.00    +0.000 NA
ATOM      7  C   UNL     1       5.043  15.043  17.739  0.00  0.00    +0.000 C 
ATOM      8  C   UNL     1       4.056  16.117  18.160  0.00  0.00    +0.000 C 
ATOM      9  C   UNL     1       3.032  15.618  19.183  0.00  0.00    +0.000 C 
ATOM     10  C   UNL     1       3.618  14.828  20.343  0.00  0.00    +0.000 C 
ATOM     11  S   UNL     1       5.096  15.633  20.974  0.00  0.00    +0.000 S 
ATOM     12  H   UNL     1       5.943  13.035  21.618  0.00  0.00    +0.000 HD
ENDROOT
BRANCH   4  13
ATOM     13  C   UNL     1       8.745  14.741  19.777  0.00  0.00    +0.000 A 
ATOM     14  C   UNL     1       9.166  16.063  19.536  0.00  0.00    +0.000 A 
ATOM     15  C   UNL     1      10.262  16.328  18.726  0.00  0.00    +0.000 A 
ATOM     16  C   UNL     1      10.910  15.281  18.083  0.00  0.00    +0.000 A 
ATOM     17  C   UNL     1      10.496  13.956  18.265  0.00  0.00    +0.000 A 
ATOM     18  C   UNL     1      11.110  12.942  17.508  0.00  0.00    +0.000 A 
ATOM     19  C   UNL     1      10.735  11.610  17.654  0.00  0.00    +0.000 A 
ATOM     20  C   UNL     1       9.771  11.270  18.590  0.00  0.00    +0.000 A 
ATOM     21  C   UNL     1       9.129  12.271  19.330  0.00  0.00    +0.000 A 
ATOM     22  C   UNL     1       9.443  13.646  19.168  0.00  0.00    +0.000 A 
ENDBRANCH   4  13
BRANCH   3  23
ATOM     23  C   UNL     1       6.320  13.044  23.655  0.00  0.00    +0.000 A 
ATOM     24  C   UNL     1       5.810  13.941  24.596  0.00  0.00    +0.000 A 
ATOM     25  C   UNL     1       5.560  13.530  25.909  0.00  0.00    +0.000 A 
ATOM     26  C   UNL     1       5.809  12.221  26.289  0.00  0.00    +0.000 A 
ATOM     27  C   UNL     1       6.300  11.310  25.355  0.00  0.00    +0.000 A 
ATOM     28  C   UNL     1       6.547  11.720  24.041  0.00  0.00    +0.000 A 
ENDBRANCH   3  23
TORSDOF 2
ENDMDL
MODEL 5
REMARK VINA RESULT:      -6.7      8.157     11.399
REMARK  Name = 
REMARK  2 active torsions:
REMARK  status: ('A' for Active; 'I' for Inactive)
REMARK    1  A    between atoms: N_3  and  C_4
REMARK    2  A    between atoms: N_10  and  C_18
REMARK                            x       y       z     vdW  Elec       q    Type
REMARK                         _______ _______ _______ _____ _____    ______ ____
ROOT
ATOM      1  O   UNL     1      -0.446  14.200  23.423  0.00  0.00    +0.000 OA
ATOM      2  C   UNL     1      -1.663  14.128  23.575  0.00  0.00    +0.000 C 
ATOM      3  N   UNL     1      -2.364  14.859  24.531  0.00  0.00    +0.000 N 
ATOM      4  N   UNL     1      -2.481  13.254  22.811  0.00  0.00    +0.000 N 
ATOM      5  C   UNL     1      -3.800  13.503  22.400  0.00  0.00    +0.000 C 
ATOM      6  N   UNL     1      -4.590  12.515  22.226  0.00  0.00    +0.000 NA
ATOM      7  C   UNL     1      -6.001  12.465  21.882  0.00  0.00    +0.000 C 
ATOM      8  C   UNL     1      -6.552  13.628  21.077  0.00  0.00    +0.000 C 
ATOM      9  C   UNL     1      -6.900  14.841  21.944  0.00  0.00    +0.000 C 
ATOM     10  C   UNL     1      -5.832  15.237  22.953  0.00  0.00    +0.000 C 
ATOM     11  S   UNL     1      -4.203  15.201  22.194  0.00  0.00    +0.000 S 
ATOM     12  H   UNL     1      -3.289  14.525  24.761  0.00  0.00    +0.000 HD
ENDROOT
BRANCH   4  13
ATOM     13  C   UNL     1      -1.805  12.073  22.324  0.00  0.00    +0.000 A 
ATOM     14  C   UNL     1      -1.501  11.083  23.278  0.00  0.00    +0.000 A 
ATOM     15  C   UNL     1      -0.723   9.982  22.942  0.00  0.00    +0.000 A 
ATOM     16  C   UNL     1      -0.173   9.892  21.670  0.00  0.00    +0.000 A 
ATOM     17  C   UNL     1      -0.418  10.879  20.706  0.00  0.00    +0.000 A 
ATOM     18  C   UNL     1       0.248  10.803  19.471  0.00  0.00    +0.000 A 
ATOM     19  C   UNL     1       0.037  11.757  18.480  0.00  0.00    +0.000 A 
ATOM     20  C   UNL     1      -0.878  12.776  18.698  0.00  0.00    +0.000 A 
ATOM     21  C   UNL     1      -1.527  12.883  19.934  0.00  0.00    +0.000 A 
ATOM     22  C   UNL     1      -1.294  11.962  20.989  0.00  0.00    +0.000 A 
ENDBRANCH   4  13
BRANCH   3  23
ATOM     23  C   UNL     1      -1.886  15.963  25.267  0.00  0.00    +0.000 A 
ATOM     24  C   UNL     1      -1.039  15.830  26.369  0.00  0.00    +0.000 A 
ATOM     25  C   UNL     1      -0.580  16.959  27.055  0.00  0.00    +0.000 A 
ATOM     26  C   UNL     1      -0.958  18.227  26.641  0.00  0.00    +0.000 A 
ATOM     27  C   UNL     1      -1.787  18.375  25.531  0.00  0.00    +0.000 A 
ATOM     28  C   UNL     1      -2.243  17.246  24.843  0.00  0.00    +0.000 A 
ENDBRANCH   3  23
TORSDOF 2
ENDMDL
MODEL 6
REMARK VINA RESULT:      -6.7      4.642     10.531
REMARK  Name = 
REMARK  2 active torsions:
REMARK  status: ('A' for Active; 'I' for Inactive)
REMARK    1  A    between atoms: N_3  and  C_4
REMARK    2  A    between atoms: N_10  and  C_18
REMARK                            x       y       z     vdW  Elec       q    Type
REMARK                         _______ _______ _______ _____ _____    ______ ____
ROOT
ATOM      1  O   UNL     1      -1.194   9.931  20.435  0.00  0.00    +0.000 OA
ATOM      2  C   UNL     1      -0.264  10.735  20.420  0.00  0.00    +0.000 C 
ATOM      3  N   UNL     1       1.065  10.372  20.217  0.00  0.00    +0.000 N 
ATOM      4  N   UNL     1      -0.448  12.124  20.652  0.00  0.00    +0.000 N 
ATOM      5  C   UNL     1       0.283  13.166  20.059  0.00  0.00    +0.000 C 
ATOM      6  N   UNL     1       0.428  14.261  20.699  0.00  0.00    +0.000 NA
ATOM      7  C   UNL     1       1.178  15.464  20.381  0.00  0.00    +0.000 C 
ATOM      8  C   UNL     1       1.388  15.773  18.910  0.00  0.00    +0.000 C 
ATOM      9  C   UNL     1       2.556  14.994  18.298  0.00  0.00    +0.000 C 
ATOM     10  C   UNL     1       2.581  13.510  18.630  0.00  0.00    +0.000 C 
ATOM     11  S   UNL     1       0.938  12.799  18.470  0.00  0.00    +0.000 S 
ATOM     12  H   UNL     1       1.762  11.045  20.501  0.00  0.00    +0.000 HD
ENDROOT
BRANCH   4  13
ATOM     13  C   UNL     1      -1.588  12.448  21.477  0.00  0.00    +0.000 A 
ATOM     14  C   UNL     1      -1.369  12.492  22.868  0.00  0.00    +0.000 A 
ATOM     15  C   UNL     1      -2.427  12.645  23.754  0.00  0.00    +0.000 A 
ATOM     16  C   UNL     1      -3.729  12.681  23.270  0.00  0.00    +0.000 A 
ATOM     17  C   UNL     1      -3.991  12.599  21.896  0.00  0.00    +0.000 A 
ATOM     18  C   UNL     1      -5.326  12.528  21.462  0.00  0.00    +0.000 A 
ATOM     19  C   UNL     1      -5.638  12.447  20.109  0.00  0.00    +0.000 A 
ATOM     20  C   UNL     1      -4.618  12.480  19.170  0.00  0.00    +0.000 A 
ATOM     21  C   UNL     1      -3.283  12.521  19.587  0.00  0.00    +0.000 A 
ATOM     22  C   UNL     1      -2.922  12.546  20.960  0.00  0.00    +0.000 A 
ENDBRANCH   4  13
BRANCH   3  23
ATOM     23  C   UNL     1       1.537   9.134  19.734  0.00  0.00    +0.000 A 
ATOM     24  C   UNL     1       1.655   8.001  20.540  0.00  0.00    +0.000 A 
ATOM     25  C   UNL     1       2.113   6.791  20.008  0.00  0.00    +0.000 A 
ATOM     26  C   UNL     1       2.450   6.704  18.665  0.00  0.00    +0.000 A 
ATOM     27  C   UNL     1       2.319   7.823  17.844  0.00  0.00    +0.000 A 
ATOM     28  C   UNL     1       1.856   9.031  18.377  0.00  0.00    +0.000 A 
ENDBRANCH   3  23
TORSDOF 2
ENDMDL
MODEL 7
REMARK VINA RESULT:      -6.7      9.405     11.149
REMARK  Name = 
REMARK  2 active torsions:
REMARK  status: ('A' for Active; 'I' for Inactive)
REMARK    1  A    between atoms: N_3  and  C_4
REMARK    2  A    between atoms: N_10  and  C_18
REMARK                            x       y       z     vdW  Elec       q    Type
REMARK                         _______ _______ _______ _____ _____    ______ ____
ROOT
ATOM      1  O   UNL     1       9.796  14.120  21.351  0.00  0.00    +0.000 OA
ATOM      2  C   UNL     1       8.610  14.022  21.042  0.00  0.00    +0.000 C 
ATOM      3  N   UNL     1       7.627  13.538  21.902  0.00  0.00    +0.000 N 
ATOM      4  N   UNL     1       8.125  14.356  19.750  0.00  0.00    +0.000 N 
ATOM      5  C   UNL     1       6.870  14.911  19.455  0.00  0.00    +0.000 C 
ATOM      6  N   UNL     1       6.337  14.667  18.321  0.00  0.00    +0.000 NA
ATOM      7  C   UNL     1       5.042  15.033  17.771  0.00  0.00    +0.000 C 
ATOM      8  C   UNL     1       4.407  16.305  18.302  0.00  0.00    +0.000 C 
ATOM      9  C   UNL     1       3.680  16.098  19.634  0.00  0.00    +0.000 C 
ATOM     10  C   UNL     1       4.464  15.315  20.677  0.00  0.00    +0.000 C 
ATOM     11  S   UNL     1       6.169  15.881  20.742  0.00  0.00    +0.000 S 
ATOM     12  H   UNL     1       6.764  13.236  21.472  0.00  0.00    +0.000 HD
ENDROOT
BRANCH   4  13
ATOM     13  C   UNL     1       9.098  14.220  18.690  0.00  0.00    +0.000 A 
ATOM     14  C   UNL     1       9.385  12.910  18.262  0.00  0.00    +0.000 A 
ATOM     15  C   UNL     1      10.410  12.661  17.359  0.00  0.00    +0.000 A 
ATOM     16  C   UNL     1      11.214  13.708  16.927  0.00  0.00    +0.000 A 
ATOM     17  C   UNL     1      10.986  15.020  17.363  0.00  0.00    +0.000 A 
ATOM     18  C   UNL     1      11.892  16.028  16.987  0.00  0.00    +0.000 A 
ATOM     19  C   UNL     1      11.709  17.346  17.392  0.00  0.00    +0.000 A 
ATOM     20  C   UNL     1      10.592  17.681  18.143  0.00  0.00    +0.000 A 
ATOM     21  C   UNL     1       9.697  16.684  18.550  0.00  0.00    +0.000 A 
ATOM     22  C   UNL     1       9.881  15.319  18.206  0.00  0.00    +0.000 A 
ENDBRANCH   4  13
BRANCH   3  23
ATOM     23  C   UNL     1       7.742  13.352  23.295  0.00  0.00    +0.000 A 
ATOM     24  C   UNL     1       7.602  14.394  24.213  0.00  0.00    +0.000 A 
ATOM     25  C   UNL     1       7.708  14.153  25.587  0.00  0.00    +0.000 A 
ATOM     26  C   UNL     1       7.947  12.869  26.052  0.00  0.00    +0.000 A 
ATOM     27  C   UNL     1       8.070  11.815  25.147  0.00  0.00    +0.000 A 
ATOM     28  C   UNL     1       7.960  12.057  23.775  0.00  0.00    +0.000 A 
ENDBRANCH   3  23
TORSDOF 2
ENDMDL
MODEL 8
REMARK VINA RESULT:      -6.6      9.033     10.732
REMARK  Name = 
REMARK  2 active torsions:
REMARK  status: ('A' for Active; 'I' for Inactive)
REMARK    1  A    between atoms: N_3  and  C_4
REMARK    2  A    between atoms: N_10  and  C_18
REMARK                            x       y       z     vdW  Elec       q    Type
REMARK                         _______ _______ _______ _____ _____    ______ ____
ROOT
ATOM      1  O   UNL     1       9.003  14.202  23.611  0.00  0.00    +0.000 OA
ATOM      2  C   UNL     1       8.149  14.024  22.745  0.00  0.00    +0.000 C 
ATOM      3  N   UNL     1       6.975  13.305  22.956  0.00  0.00    +0.000 N 
ATOM      4  N   UNL     1       8.294  14.504  21.416  0.00  0.00    +0.000 N 
ATOM      5  C   UNL     1       7.260  14.956  20.582  0.00  0.00    +0.000 C 
ATOM      6  N   UNL     1       7.389  14.838  19.317  0.00  0.00    +0.000 NA
ATOM      7  C   UNL     1       6.477  15.141  18.228  0.00  0.00    +0.000 C 
ATOM      8  C   UNL     1       5.454  16.235  18.475  0.00  0.00    +0.000 C 
ATOM      9  C   UNL     1       4.225  15.741  19.244  0.00  0.00    +0.000 C 
ATOM     10  C   UNL     1       4.535  14.894  20.470  0.00  0.00    +0.000 C 
ATOM     11  S   UNL     1       5.871  15.627  21.423  0.00  0.00    +0.000 S 
ATOM     12  H   UNL     1       6.493  12.982  22.130  0.00  0.00    +0.000 HD
ENDROOT
BRANCH   4  13
ATOM     13  C   UNL     1       9.663  14.645  20.976  0.00  0.00    +0.000 A 
ATOM     14  C   UNL     1      10.202  15.946  21.000  0.00  0.00    +0.000 A 
ATOM     15  C   UNL     1      11.452  16.212  20.457  0.00  0.00    +0.000 A 
ATOM     16  C   UNL     1      12.153  15.199  19.816  0.00  0.00    +0.000 A 
ATOM     17  C   UNL     1      11.631  13.901  19.735  0.00  0.00    +0.000 A 
ATOM     18  C   UNL     1      12.323  12.937  18.981  0.00  0.00    +0.000 A 
ATOM     19  C   UNL     1      11.848  11.634  18.871  0.00  0.00    +0.000 A 
ATOM     20  C   UNL     1      10.696  11.268  19.552  0.00  0.00    +0.000 A 
ATOM     21  C   UNL     1       9.980  12.223  20.282  0.00  0.00    +0.000 A 
ATOM     22  C   UNL     1      10.402  13.576  20.370  0.00  0.00    +0.000 A 
ENDBRANCH   4  13
BRANCH   3  23
ATOM     23  C   UNL     1       6.437  12.914  24.200  0.00  0.00    +0.000 A 
ATOM     24  C   UNL     1       5.903  13.823  25.114  0.00  0.00    +0.000 A 
ATOM     25  C   UNL     1       5.366  13.382  26.328  0.00  0.00    +0.000 A 
ATOM     26  C   UNL     1       5.352  12.029  26.633  0.00  0.00    +0.000 A 
ATOM     27  C   UNL     1       5.864  11.108  25.720  0.00  0.00    +0.000 A 
ATOM     28  C   UNL     1       6.398  11.550  24.505  0.00  0.00    +0.000 A 
ENDBRANCH   3  23
TORSDOF 2
ENDMDL
MODEL 9
REMARK VINA RESULT:      -6.6      8.882     10.647
REMARK  Name = 
REMARK  2 active torsions:
REMARK  status: ('A' for Active; 'I' for Inactive)
REMARK    1  A    between atoms: N_3  and  C_4
REMARK    2  A    between atoms: N_10  and  C_18
REMARK                            x       y       z     vdW  Elec       q    Type
REMARK                         _______ _______ _______ _____ _____    ______ ____
ROOT
ATOM      1  O   UNL     1       6.641  14.474  17.901  0.00  0.00    +0.000 OA
ATOM      2  C   UNL     1       6.728  15.071  18.972  0.00  0.00    +0.000 C 
ATOM      3  N   UNL     1       5.651  15.694  19.596  0.00  0.00    +0.000 N 
ATOM      4  N   UNL     1       7.957  15.222  19.668  0.00  0.00    +0.000 N 
ATOM      5  C   UNL     1       8.120  15.252  21.062  0.00  0.00    +0.000 C 
ATOM      6  N   UNL     1       9.096  15.910  21.556  0.00  0.00    +0.000 NA
ATOM      7  C   UNL     1       9.471  16.179  22.934  0.00  0.00    +0.000 C 
ATOM      8  C   UNL     1       9.047  15.156  23.972  0.00  0.00    +0.000 C 
ATOM      9  C   UNL     1       7.597  15.335  24.428  0.00  0.00    +0.000 C 
ATOM     10  C   UNL     1       6.591  15.529  23.304  0.00  0.00    +0.000 C 
ATOM     11  S   UNL     1       6.902  14.367  21.969  0.00  0.00    +0.000 S 
ATOM     12  H   UNL     1       5.877  16.380  20.302  0.00  0.00    +0.000 HD
ENDROOT
BRANCH   4  13
ATOM     13  C   UNL     1       9.130  15.204  18.825  0.00  0.00    +0.000 A 
ATOM     14  C   UNL     1       9.389  16.370  18.080  0.00  0.00    +0.000 A 
ATOM     15  C   UNL     1      10.401  16.401  17.130  0.00  0.00    +0.000 A 
ATOM     16  C   UNL     1      11.121  15.246  16.854  0.00  0.00    +0.000 A 
ATOM     17  C   UNL     1      10.864  14.054  17.545  0.00  0.00    +0.000 A 
ATOM     18  C   UNL     1      11.540  12.884  17.155  0.00  0.00    +0.000 A 
ATOM     19  C   UNL     1      11.321  11.676  17.810  0.00  0.00    +0.000 A 
ATOM     20  C   UNL     1      10.456  11.634  18.893  0.00  0.00    +0.000 A 
ATOM     21  C   UNL     1       9.753  12.783  19.274  0.00  0.00    +0.000 A 
ATOM     22  C   UNL     1       9.905  14.020  18.594  0.00  0.00    +0.000 A 
ENDBRANCH   4  13
BRANCH   3  23
ATOM     23  C   UNL     1       4.285  15.527  19.287  0.00  0.00    +0.000 A 
ATOM     24  C   UNL     1       3.524  14.461  19.770  0.00  0.00    +0.000 A 
ATOM     25  C   UNL     1       2.167  14.351  19.448  0.00  0.00    +0.000 A 
ATOM     26  C   UNL     1       1.560  15.307  18.648  0.00  0.00    +0.000 A 
ATOM     27  C   UNL     1       2.304  16.387  18.175  0.00  0.00    +0.000 A 
ATOM     28  C   UNL     1       3.659  16.499  18.501  0.00  0.00    +0.000 A 
ENDBRANCH   3  23
TORSDOF 2
ENDMDL
