MODEL 1
REMARK VINA RESULT:      -7.2      0.000      0.000
REMARK  Name = 
REMARK  8 active torsions:
REMARK  status: ('A' for Active; 'I' for Inactive)
REMARK    1  A    between atoms: C_1  and  C_2
REMARK    2  A    between atoms: C_2  and  N_3
REMARK    3  A    between atoms: C_12  and  C_13
REMARK    4  A    between atoms: C_14  and  C_15
REMARK    5  A    between atoms: C_14  and  C_17
REMARK    6  A    between atoms: C_17  and  O_19
REMARK    7  A    between atoms: O_19  and  C_20
REMARK    8  A    between atoms: C_20  and  C_21
REMARK                            x       y       z     vdW  Elec       q    Type
REMARK                         _______ _______ _______ _____ _____    ______ ____
ROOT
ATOM      1  N   UNL     1       3.523   7.434  17.788  0.00  0.00    +0.000 N 
ATOM      2  C   UNL     1       3.178   6.211  18.240  0.00  0.00    +0.000 A 
ATOM      3  N   UNL     1       2.432   6.020  19.323  0.00  0.00    +0.000 NA
ATOM      4  N   UNL     1       2.236   4.692  19.384  0.00  0.00    +0.000 N 
ATOM      5  C   UNL     1       1.652   3.989  20.443  0.00  0.00    +0.000 A 
ATOM      6  C   UNL     1       1.429   2.669  20.339  0.00  0.00    +0.000 A 
ATOM      7  C   UNL     1       1.698   2.038  19.063  0.00  0.00    +0.000 A 
ATOM      8  C   UNL     1       2.248   2.717  18.039  0.00  0.00    +0.000 A 
ATOM      9  C   UNL     1       2.695   4.066  18.215  0.00  0.00    +0.000 A 
ATOM     10  C   UNL     1       3.531   4.991  17.579  0.00  0.00    +0.000 A 
ATOM     11  H   UNL     1       4.482   7.609  17.511  0.00  0.00    +0.000 HD
ENDROOT
BRANCH   1  13
ATOM     12  C   UNL     1       1.474   8.696  17.517  0.00  0.00    +0.000 C 
ATOM     13  C   UNL     1       2.791   8.598  18.266  0.00  0.00    +0.000 C 
ENDBRANCH   1  13
BRANCH  10  14
ATOM     14  C   UNL     1       4.456   4.864  16.451  0.00  0.00    +0.000 C 
ATOM     15  C   UNL     1       5.816   4.813  16.447  0.00  0.00    +0.000 C 
BRANCH  15  16
ATOM     16  C   UNL     1       6.452   4.734  17.825  0.00  0.00    +0.000 C 
ATOM     17  N   UNL     1       6.979   4.669  18.968  0.00  0.00    +0.000 NA
ENDBRANCH  15  16
BRANCH  15  18
ATOM     18  C   UNL     1       6.578   4.656  15.205  0.00  0.00    +0.000 C 
ATOM     19  O   UNL     1       7.553   5.332  14.913  0.00  0.00    +0.000 OA
BRANCH  18  20
ATOM     20  O   UNL     1       5.972   3.741  14.412  0.00  0.00    +0.000 OA
BRANCH  20  21
ATOM     21  C   UNL     1       6.376   3.763  13.036  0.00  0.00    +0.000 C 
ATOM     22  C   UNL     1       5.194   3.299  12.205  0.00  0.00    +0.000 C 
ENDBRANCH  20  21
ENDBRANCH  18  20
ENDBRANCH  15  18
ENDBRANCH  10  14
TORSDOF 6
ENDMDL
MODEL 2
REMARK VINA RESULT:      -7.2      2.104      3.016
REMARK  Name = 
REMARK  8 active torsions:
REMARK  status: ('A' for Active; 'I' for Inactive)
REMARK    1  A    between atoms: C_1  and  C_2
REMARK    2  A    between atoms: C_2  and  N_3
REMARK    3  A    between atoms: C_12  and  C_13
REMARK    4  A    between atoms: C_14  and  C_15
REMARK    5  A    between atoms: C_14  and  C_17
REMARK    6  A    between atoms: C_17  and  O_19
REMARK    7  A    between atoms: O_19  and  C_20
REMARK    8  A    between atoms: C_20  and  C_21
REMARK                            x       y       z     vdW  Elec       q    Type
REMARK                         _______ _______ _______ _____ _____    ______ ____
ROOT
ATOM      1  N   UNL     1       7.000   4.706  18.174  0.00  0.00    +0.000 N 
ATOM      2  C   UNL     1       5.725   4.321  18.391  0.00  0.00    +0.000 A 
ATOM      3  N   UNL     1       5.146   4.366  19.586  0.00  0.00    +0.000 NA
ATOM      4  N   UNL     1       3.872   3.997  19.372  0.00  0.00    +0.000 N 
ATOM      5  C   UNL     1       2.911   3.729  20.353  0.00  0.00    +0.000 A 
ATOM      6  C   UNL     1       1.644   3.458  20.005  0.00  0.00    +0.000 A 
ATOM      7  C   UNL     1       1.289   3.576  18.605  0.00  0.00    +0.000 A 
ATOM      8  C   UNL     1       2.210   3.846  17.662  0.00  0.00    +0.000 A 
ATOM      9  C   UNL     1       3.600   3.914  17.999  0.00  0.00    +0.000 A 
ATOM     10  C   UNL     1       4.844   3.871  17.357  0.00  0.00    +0.000 A 
ATOM     11  H   UNL     1       7.607   4.120  17.613  0.00  0.00    +0.000 HD
ENDROOT
BRANCH   1  13
ATOM     12  C   UNL     1       8.010   6.871  18.562  0.00  0.00    +0.000 C 
ATOM     13  C   UNL     1       7.673   5.524  19.173  0.00  0.00    +0.000 C 
ENDBRANCH   1  13
BRANCH  10  14
ATOM     14  C   UNL     1       5.224   3.581  15.972  0.00  0.00    +0.000 C 
ATOM     15  C   UNL     1       5.409   4.434  14.927  0.00  0.00    +0.000 C 
BRANCH  15  16
ATOM     16  C   UNL     1       5.348   5.909  15.294  0.00  0.00    +0.000 C 
ATOM     17  N   UNL     1       5.299   7.131  15.599  0.00  0.00    +0.000 NA
ENDBRANCH  15  16
BRANCH  15  18
ATOM     18  C   UNL     1       5.819   3.956  13.605  0.00  0.00    +0.000 C 
ATOM     19  O   UNL     1       6.982   3.856  13.246  0.00  0.00    +0.000 OA
BRANCH  18  20
ATOM     20  O   UNL     1       4.723   3.754  12.835  0.00  0.00    +0.000 OA
BRANCH  20  21
ATOM     21  C   UNL     1       4.965   3.072  11.597  0.00  0.00    +0.000 C 
ATOM     22  C   UNL     1       3.678   3.112  10.794  0.00  0.00    +0.000 C 
ENDBRANCH  20  21
ENDBRANCH  18  20
ENDBRANCH  15  18
ENDBRANCH  10  14
TORSDOF 6
ENDMDL
MODEL 3
REMARK VINA RESULT:      -7.2      0.989      1.075
REMARK  Name = 
REMARK  8 active torsions:
REMARK  status: ('A' for Active; 'I' for Inactive)
REMARK    1  A    between atoms: C_1  and  C_2
REMARK    2  A    between atoms: C_2  and  N_3
REMARK    3  A    between atoms: C_12  and  C_13
REMARK    4  A    between atoms: C_14  and  C_15
REMARK    5  A    between atoms: C_14  and  C_17
REMARK    6  A    between atoms: C_17  and  O_19
REMARK    7  A    between atoms: O_19  and  C_20
REMARK    8  A    between atoms: C_20  and  C_21
REMARK                            x       y       z     vdW  Elec       q    Type
REMARK                         _______ _______ _______ _____ _____    ______ ____
ROOT
ATOM      1  N   UNL     1       2.745   7.780  18.562  0.00  0.00    +0.000 N 
ATOM      2  C   UNL     1       2.636   6.465  18.842  0.00  0.00    +0.000 A 
ATOM      3  N   UNL     1       1.846   5.989  19.799  0.00  0.00    +0.000 NA
ATOM      4  N   UNL     1       1.943   4.652  19.702  0.00  0.00    +0.000 N 
ATOM      5  C   UNL     1       1.426   3.716  20.603  0.00  0.00    +0.000 A 
ATOM      6  C   UNL     1       1.512   2.403  20.341  0.00  0.00    +0.000 A 
ATOM      7  C   UNL     1       2.040   2.006  19.052  0.00  0.00    +0.000 A 
ATOM      8  C   UNL     1       2.526   2.906  18.178  0.00  0.00    +0.000 A 
ATOM      9  C   UNL     1       2.643   4.286  18.543  0.00  0.00    +0.000 A 
ATOM     10  C   UNL     1       3.314   5.437  18.112  0.00  0.00    +0.000 A 
ATOM     11  H   UNL     1       3.664   8.183  18.425  0.00  0.00    +0.000 HD
ENDROOT
BRANCH   1  13
ATOM     12  C   UNL     1       1.196   9.518  17.900  0.00  0.00    +0.000 C 
ATOM     13  C   UNL     1       1.730   8.697  19.059  0.00  0.00    +0.000 C 
ENDBRANCH   1  13
BRANCH  10  14
ATOM     14  C   UNL     1       4.352   5.647  17.100  0.00  0.00    +0.000 C 
ATOM     15  C   UNL     1       5.702   5.746  17.251  0.00  0.00    +0.000 C 
BRANCH  15  16
ATOM     16  C   UNL     1       6.206   5.454  18.655  0.00  0.00    +0.000 C 
ATOM     17  N   UNL     1       6.623   5.212  19.820  0.00  0.00    +0.000 NA
ENDBRANCH  15  16
BRANCH  15  18
ATOM     18  C   UNL     1       6.594   5.933  16.104  0.00  0.00    +0.000 C 
ATOM     19  O   UNL     1       7.674   6.499  16.166  0.00  0.00    +0.000 OA
BRANCH  18  20
ATOM     20  O   UNL     1       5.988   5.485  14.979  0.00  0.00    +0.000 OA
BRANCH  20  21
ATOM     21  C   UNL     1       6.612   4.353  14.360  0.00  0.00    +0.000 C 
ATOM     22  C   UNL     1       5.638   3.795  13.339  0.00  0.00    +0.000 C 
ENDBRANCH  20  21
ENDBRANCH  18  20
ENDBRANCH  15  18
ENDBRANCH  10  14
TORSDOF 6
ENDMDL
MODEL 4
REMARK VINA RESULT:      -7.1      2.331      2.953
REMARK  Name = 
REMARK  8 active torsions:
REMARK  status: ('A' for Active; 'I' for Inactive)
REMARK    1  A    between atoms: C_1  and  C_2
REMARK    2  A    between atoms: C_2  and  N_3
REMARK    3  A    between atoms: C_12  and  C_13
REMARK    4  A    between atoms: C_14  and  C_15
REMARK    5  A    between atoms: C_14  and  C_17
REMARK    6  A    between atoms: C_17  and  O_19
REMARK    7  A    between atoms: O_19  and  C_20
REMARK    8  A    between atoms: C_20  and  C_21
REMARK                            x       y       z     vdW  Elec       q    Type
REMARK                         _______ _______ _______ _____ _____    ______ ____
ROOT
ATOM      1  N   UNL     1       2.303   7.793  20.045  0.00  0.00    +0.000 N 
ATOM      2  C   UNL     1       2.173   6.460  19.883  0.00  0.00    +0.000 A 
ATOM      3  N   UNL     1       1.513   5.685  20.737  0.00  0.00    +0.000 NA
ATOM      4  N   UNL     1       1.529   4.460  20.185  0.00  0.00    +0.000 N 
ATOM      5  C   UNL     1       1.108   3.272  20.791  0.00  0.00    +0.000 A 
ATOM      6  C   UNL     1       1.088   2.126  20.094  0.00  0.00    +0.000 A 
ATOM      7  C   UNL     1       1.397   2.190  18.680  0.00  0.00    +0.000 A 
ATOM      8  C   UNL     1       1.790   3.335  18.093  0.00  0.00    +0.000 A 
ATOM      9  C   UNL     1       2.028   4.511  18.875  0.00  0.00    +0.000 A 
ATOM     10  C   UNL     1       2.682   5.743  18.754  0.00  0.00    +0.000 A 
ATOM     11  H   UNL     1       3.210   8.223  19.907  0.00  0.00    +0.000 HD
ENDROOT
BRANCH   1  13
ATOM     12  C   UNL     1       0.573   9.478  20.203  0.00  0.00    +0.000 C 
ATOM     13  C   UNL     1       1.421   8.483  20.974  0.00  0.00    +0.000 C 
ENDBRANCH   1  13
BRANCH  10  14
ATOM     14  C   UNL     1       3.566   6.287  17.720  0.00  0.00    +0.000 C 
ATOM     15  C   UNL     1       4.893   6.067  17.511  0.00  0.00    +0.000 C 
BRANCH  15  16
ATOM     16  C   UNL     1       5.505   4.992  18.395  0.00  0.00    +0.000 C 
ATOM     17  N   UNL     1       6.012   4.101  19.128  0.00  0.00    +0.000 NA
ENDBRANCH  15  16
BRANCH  15  18
ATOM     18  C   UNL     1       5.611   6.689  16.395  0.00  0.00    +0.000 C 
ATOM     19  O   UNL     1       5.083   7.017  15.344  0.00  0.00    +0.000 OA
BRANCH  18  20
ATOM     20  O   UNL     1       6.935   6.733  16.674  0.00  0.00    +0.000 OA
BRANCH  20  21
ATOM     21  C   UNL     1       7.373   7.910  17.366  0.00  0.00    +0.000 C 
ATOM     22  C   UNL     1       8.247   7.462  18.523  0.00  0.00    +0.000 C 
ENDBRANCH  20  21
ENDBRANCH  18  20
ENDBRANCH  15  18
ENDBRANCH  10  14
TORSDOF 6
ENDMDL
MODEL 5
REMARK VINA RESULT:      -7.1      1.577      1.820
REMARK  Name = 
REMARK  8 active torsions:
REMARK  status: ('A' for Active; 'I' for Inactive)
REMARK    1  A    between atoms: C_1  and  C_2
REMARK    2  A    between atoms: C_2  and  N_3
REMARK    3  A    between atoms: C_12  and  C_13
REMARK    4  A    between atoms: C_14  and  C_15
REMARK    5  A    between atoms: C_14  and  C_17
REMARK    6  A    between atoms: C_17  and  O_19
REMARK    7  A    between atoms: O_19  and  C_20
REMARK    8  A    between atoms: C_20  and  C_21
REMARK                            x       y       z     vdW  Elec       q    Type
REMARK                         _______ _______ _______ _____ _____    ______ ____
ROOT
ATOM      1  N   UNL     1       2.260   7.878  19.415  0.00  0.00    +0.000 N 
ATOM      2  C   UNL     1       2.255   6.541  19.595  0.00  0.00    +0.000 A 
ATOM      3  N   UNL     1       1.689   5.950  20.642  0.00  0.00    +0.000 NA
ATOM      4  N   UNL     1       1.812   4.632  20.410  0.00  0.00    +0.000 N 
ATOM      5  C   UNL     1       1.518   3.602  21.309  0.00  0.00    +0.000 A 
ATOM      6  C   UNL     1       1.595   2.320  20.919  0.00  0.00    +0.000 A 
ATOM      7  C   UNL     1       1.868   2.055  19.522  0.00  0.00    +0.000 A 
ATOM      8  C   UNL     1       2.139   3.046  18.653  0.00  0.00    +0.000 A 
ATOM      9  C   UNL     1       2.278   4.397  19.108  0.00  0.00    +0.000 A 
ATOM     10  C   UNL     1       2.809   5.611  18.658  0.00  0.00    +0.000 A 
ATOM     11  H   UNL     1       3.119   8.338  19.137  0.00  0.00    +0.000 HD
ENDROOT
BRANCH   1  13
ATOM     12  C   UNL     1       1.013   9.952  19.387  0.00  0.00    +0.000 C 
ATOM     13  C   UNL     1       1.333   8.699  20.181  0.00  0.00    +0.000 C 
ENDBRANCH   1  13
BRANCH  10  14
ATOM     14  C   UNL     1       3.617   5.954  17.485  0.00  0.00    +0.000 C 
ATOM     15  C   UNL     1       4.970   6.027  17.356  0.00  0.00    +0.000 C 
BRANCH  15  16
ATOM     16  C   UNL     1       5.750   5.544  18.568  0.00  0.00    +0.000 C 
ATOM     17  N   UNL     1       6.395   5.143  19.574  0.00  0.00    +0.000 NA
ENDBRANCH  15  16
BRANCH  15  18
ATOM     18  C   UNL     1       5.605   6.366  16.080  0.00  0.00    +0.000 C 
ATOM     19  O   UNL     1       5.070   7.033  15.208  0.00  0.00    +0.000 OA
BRANCH  18  20
ATOM     20  O   UNL     1       6.804   5.743  15.989  0.00  0.00    +0.000 OA
BRANCH  20  21
ATOM     21  C   UNL     1       7.016   5.003  14.779  0.00  0.00    +0.000 C 
ATOM     22  C   UNL     1       6.099   3.795  14.815  0.00  0.00    +0.000 C 
ENDBRANCH  20  21
ENDBRANCH  18  20
ENDBRANCH  15  18
ENDBRANCH  10  14
TORSDOF 6
ENDMDL
MODEL 6
REMARK VINA RESULT:      -6.8      1.765      2.705
REMARK  Name = 
REMARK  8 active torsions:
REMARK  status: ('A' for Active; 'I' for Inactive)
REMARK    1  A    between atoms: C_1  and  C_2
REMARK    2  A    between atoms: C_2  and  N_3
REMARK    3  A    between atoms: C_12  and  C_13
REMARK    4  A    between atoms: C_14  and  C_15
REMARK    5  A    between atoms: C_14  and  C_17
REMARK    6  A    between atoms: C_17  and  O_19
REMARK    7  A    between atoms: O_19  and  C_20
REMARK    8  A    between atoms: C_20  and  C_21
REMARK                            x       y       z     vdW  Elec       q    Type
REMARK                         _______ _______ _______ _____ _____    ______ ____
ROOT
ATOM      1  N   UNL     1       2.903   7.760  18.489  0.00  0.00    +0.000 N 
ATOM      2  C   UNL     1       2.770   6.421  18.593  0.00  0.00    +0.000 A 
ATOM      3  N   UNL     1       1.883   5.838  19.391  0.00  0.00    +0.000 NA
ATOM      4  N   UNL     1       1.997   4.523  19.142  0.00  0.00    +0.000 N 
ATOM      5  C   UNL     1       1.389   3.488  19.860  0.00  0.00    +0.000 A 
ATOM      6  C   UNL     1       1.511   2.216  19.449  0.00  0.00    +0.000 A 
ATOM      7  C   UNL     1       2.179   1.976  18.187  0.00  0.00    +0.000 A 
ATOM      8  C   UNL     1       2.754   2.972  17.489  0.00  0.00    +0.000 A 
ATOM      9  C   UNL     1       2.823   4.296  18.031  0.00  0.00    +0.000 A 
ATOM     10  C   UNL     1       3.530   5.486  17.821  0.00  0.00    +0.000 A 
ATOM     11  H   UNL     1       3.829   8.170  18.505  0.00  0.00    +0.000 HD
ENDROOT
BRANCH   1  13
ATOM     12  C   UNL     1       1.263   9.410  17.819  0.00  0.00    +0.000 C 
ATOM     13  C   UNL     1       1.834   8.617  18.980  0.00  0.00    +0.000 C 
ENDBRANCH   1  13
BRANCH  10  14
ATOM     14  C   UNL     1       4.673   5.809  16.963  0.00  0.00    +0.000 C 
ATOM     15  C   UNL     1       6.000   5.849  17.265  0.00  0.00    +0.000 C 
BRANCH  15  16
ATOM     16  C   UNL     1       6.348   5.347  18.657  0.00  0.00    +0.000 C 
ATOM     17  N   UNL     1       6.638   4.930  19.811  0.00  0.00    +0.000 NA
ENDBRANCH  15  16
BRANCH  15  18
ATOM     18  C   UNL     1       7.011   6.173  16.255  0.00  0.00    +0.000 C 
ATOM     19  O   UNL     1       7.111   5.599  15.182  0.00  0.00    +0.000 OA
BRANCH  18  20
ATOM     20  O   UNL     1       7.856   7.111  16.744  0.00  0.00    +0.000 OA
BRANCH  20  21
ATOM     21  C   UNL     1       7.227   8.207  17.421  0.00  0.00    +0.000 C 
ATOM     22  C   UNL     1       8.319   9.013  18.099  0.00  0.00    +0.000 C 
ENDBRANCH  20  21
ENDBRANCH  18  20
ENDBRANCH  15  18
ENDBRANCH  10  14
TORSDOF 6
ENDMDL
MODEL 7
REMARK VINA RESULT:      -6.8      1.820      2.201
REMARK  Name = 
REMARK  8 active torsions:
REMARK  status: ('A' for Active; 'I' for Inactive)
REMARK    1  A    between atoms: C_1  and  C_2
REMARK    2  A    between atoms: C_2  and  N_3
REMARK    3  A    between atoms: C_12  and  C_13
REMARK    4  A    between atoms: C_14  and  C_15
REMARK    5  A    between atoms: C_14  and  C_17
REMARK    6  A    between atoms: C_17  and  O_19
REMARK    7  A    between atoms: O_19  and  C_20
REMARK    8  A    between atoms: C_20  and  C_21
REMARK                            x       y       z     vdW  Elec       q    Type
REMARK                         _______ _______ _______ _____ _____    ______ ____
ROOT
ATOM      1  N   UNL     1       2.101   7.924  19.893  0.00  0.00    +0.000 N 
ATOM      2  C   UNL     1       2.064   6.586  19.726  0.00  0.00    +0.000 A 
ATOM      3  N   UNL     1       1.307   5.782  20.465  0.00  0.00    +0.000 NA
ATOM      4  N   UNL     1       1.474   4.558  19.937  0.00  0.00    +0.000 N 
ATOM      5  C   UNL     1       1.013   3.353  20.476  0.00  0.00    +0.000 A 
ATOM      6  C   UNL     1       1.167   2.204  19.799  0.00  0.00    +0.000 A 
ATOM      7  C   UNL     1       1.708   2.280  18.457  0.00  0.00    +0.000 A 
ATOM      8  C   UNL     1       2.140   3.441  17.932  0.00  0.00    +0.000 A 
ATOM      9  C   UNL     1       2.186   4.629  18.730  0.00  0.00    +0.000 A 
ATOM     10  C   UNL     1       2.791   5.891  18.708  0.00  0.00    +0.000 A 
ATOM     11  H   UNL     1       2.997   8.397  19.907  0.00  0.00    +0.000 HD
ENDROOT
BRANCH   1  13
ATOM     12  C   UNL     1       1.579   8.962  22.016  0.00  0.00    +0.000 C 
ATOM     13  C   UNL     1       1.042   8.573  20.651  0.00  0.00    +0.000 C 
ENDBRANCH   1  13
BRANCH  10  14
ATOM     14  C   UNL     1       3.811   6.475  17.833  0.00  0.00    +0.000 C 
ATOM     15  C   UNL     1       5.146   6.215  17.764  0.00  0.00    +0.000 C 
BRANCH  15  16
ATOM     16  C   UNL     1       5.610   5.049  18.623  0.00  0.00    +0.000 C 
ATOM     17  N   UNL     1       5.994   4.083  19.336  0.00  0.00    +0.000 NA
ENDBRANCH  15  16
BRANCH  15  18
ATOM     18  C   UNL     1       6.013   6.889  16.794  0.00  0.00    +0.000 C 
ATOM     19  O   UNL     1       6.808   7.769  17.088  0.00  0.00    +0.000 OA
BRANCH  18  20
ATOM     20  O   UNL     1       5.715   6.463  15.544  0.00  0.00    +0.000 OA
BRANCH  20  21
ATOM     21  C   UNL     1       6.449   5.314  15.100  0.00  0.00    +0.000 C 
ATOM     22  C   UNL     1       5.449   4.320  14.540  0.00  0.00    +0.000 C 
ENDBRANCH  20  21
ENDBRANCH  18  20
ENDBRANCH  15  18
ENDBRANCH  10  14
TORSDOF 6
ENDMDL
MODEL 8
REMARK VINA RESULT:      -6.7      2.534      6.292
REMARK  Name = 
REMARK  8 active torsions:
REMARK  status: ('A' for Active; 'I' for Inactive)
REMARK    1  A    between atoms: C_1  and  C_2
REMARK    2  A    between atoms: C_2  and  N_3
REMARK    3  A    between atoms: C_12  and  C_13
REMARK    4  A    between atoms: C_14  and  C_15
REMARK    5  A    between atoms: C_14  and  C_17
REMARK    6  A    between atoms: C_17  and  O_19
REMARK    7  A    between atoms: O_19  and  C_20
REMARK    8  A    between atoms: C_20  and  C_21
REMARK                            x       y       z     vdW  Elec       q    Type
REMARK                         _______ _______ _______ _____ _____    ______ ____
ROOT
ATOM      1  N   UNL     1       6.660   5.080  17.941  0.00  0.00    +0.000 N 
ATOM      2  C   UNL     1       6.609   4.937  16.600  0.00  0.00    +0.000 A 
ATOM      3  N   UNL     1       7.562   5.375  15.785  0.00  0.00    +0.000 NA
ATOM      4  N   UNL     1       7.193   4.963  14.560  0.00  0.00    +0.000 N 
ATOM      5  C   UNL     1       7.790   5.328  13.349  0.00  0.00    +0.000 A 
ATOM      6  C   UNL     1       7.383   4.771  12.198  0.00  0.00    +0.000 A 
ATOM      7  C   UNL     1       6.404   3.705  12.273  0.00  0.00    +0.000 A 
ATOM      8  C   UNL     1       5.838   3.345  13.440  0.00  0.00    +0.000 A 
ATOM      9  C   UNL     1       6.102   4.085  14.638  0.00  0.00    +0.000 A 
ATOM     10  C   UNL     1       5.554   4.254  15.914  0.00  0.00    +0.000 A 
ATOM     11  H   UNL     1       5.837   5.401  18.438  0.00  0.00    +0.000 HD
ENDROOT
BRANCH   1  13
ATOM     12  C   UNL     1       8.059   6.911  18.683  0.00  0.00    +0.000 C 
ATOM     13  C   UNL     1       7.933   5.403  18.570  0.00  0.00    +0.000 C 
ENDBRANCH   1  13
BRANCH  10  14
ATOM     14  C   UNL     1       4.303   3.786  16.515  0.00  0.00    +0.000 C 
ATOM     15  C   UNL     1       3.409   4.458  17.291  0.00  0.00    +0.000 C 
BRANCH  15  16
ATOM     16  C   UNL     1       3.684   5.947  17.431  0.00  0.00    +0.000 C 
ATOM     17  N   UNL     1       3.913   7.181  17.547  0.00  0.00    +0.000 NA
ENDBRANCH  15  16
BRANCH  15  18
ATOM     18  C   UNL     1       2.185   3.822  17.785  0.00  0.00    +0.000 C 
ATOM     19  O   UNL     1       1.062   4.121  17.410  0.00  0.00    +0.000 OA
BRANCH  18  20
ATOM     20  O   UNL     1       2.493   2.952  18.777  0.00  0.00    +0.000 OA
BRANCH  20  21
ATOM     21  C   UNL     1       2.669   3.542  20.072  0.00  0.00    +0.000 C 
ATOM     22  C   UNL     1       1.330   3.488  20.784  0.00  0.00    +0.000 C 
ENDBRANCH  20  21
ENDBRANCH  18  20
ENDBRANCH  15  18
ENDBRANCH  10  14
TORSDOF 6
ENDMDL
MODEL 9
REMARK VINA RESULT:      -6.7      2.928      6.181
REMARK  Name = 
REMARK  8 active torsions:
REMARK  status: ('A' for Active; 'I' for Inactive)
REMARK    1  A    between atoms: C_1  and  C_2
REMARK    2  A    between atoms: C_2  and  N_3
REMARK    3  A    between atoms: C_12  and  C_13
REMARK    4  A    between atoms: C_14  and  C_15
REMARK    5  A    between atoms: C_14  and  C_17
REMARK    6  A    between atoms: C_17  and  O_19
REMARK    7  A    between atoms: O_19  and  C_20
REMARK    8  A    between atoms: C_20  and  C_21
REMARK                            x       y       z     vdW  Elec       q    Type
REMARK                         _______ _______ _______ _____ _____    ______ ____
ROOT
ATOM      1  N   UNL     1       6.358   6.395  17.771  0.00  0.00    +0.000 N 
ATOM      2  C   UNL     1       6.344   5.879  16.525  0.00  0.00    +0.000 A 
ATOM      3  N   UNL     1       7.391   5.922  15.709  0.00  0.00    +0.000 NA
ATOM      4  N   UNL     1       7.015   5.231  14.619  0.00  0.00    +0.000 N 
ATOM      5  C   UNL     1       7.717   5.140  13.413  0.00  0.00    +0.000 A 
ATOM      6  C   UNL     1       7.277   4.338  12.431  0.00  0.00    +0.000 A 
ATOM      7  C   UNL     1       6.135   3.492  12.712  0.00  0.00    +0.000 A 
ATOM      8  C   UNL     1       5.467   3.570  13.877  0.00  0.00    +0.000 A 
ATOM      9  C   UNL     1       5.794   4.578  14.840  0.00  0.00    +0.000 A 
ATOM     10  C   UNL     1       5.224   5.186  15.965  0.00  0.00    +0.000 A 
ATOM     11  H   UNL     1       5.577   6.960  18.084  0.00  0.00    +0.000 HD
ENDROOT
BRANCH   1  13
ATOM     12  C   UNL     1       7.925   5.658  19.462  0.00  0.00    +0.000 C 
ATOM     13  C   UNL     1       7.636   6.700  18.397  0.00  0.00    +0.000 C 
ENDBRANCH   1  13
BRANCH  10  14
ATOM     14  C   UNL     1       3.887   5.096  16.558  0.00  0.00    +0.000 C 
ATOM     15  C   UNL     1       3.478   4.432  17.674  0.00  0.00    +0.000 C 
BRANCH  15  16
ATOM     16  C   UNL     1       4.601   3.817  18.494  0.00  0.00    +0.000 C 
ATOM     17  N   UNL     1       5.532   3.307  19.174  0.00  0.00    +0.000 NA
ENDBRANCH  15  16
BRANCH  15  18
ATOM     18  C   UNL     1       2.087   4.479  18.132  0.00  0.00    +0.000 C 
ATOM     19  O   UNL     1       1.122   4.436  17.384  0.00  0.00    +0.000 OA
BRANCH  18  20
ATOM     20  O   UNL     1       2.055   4.683  19.470  0.00  0.00    +0.000 OA
BRANCH  20  21
ATOM     21  C   UNL     1       1.077   3.913  20.181  0.00  0.00    +0.000 C 
ATOM     22  C   UNL     1       1.757   3.326  21.404  0.00  0.00    +0.000 C 
ENDBRANCH  20  21
ENDBRANCH  18  20
ENDBRANCH  15  18
ENDBRANCH  10  14
TORSDOF 6
ENDMDL
