MODEL 1
REMARK VINA RESULT:      -7.9      0.000      0.000
REMARK  Name = 
REMARK  5 active torsions:
REMARK  status: ('A' for Active; 'I' for Inactive)
REMARK    1  A    between atoms: C_1  and  O_2
REMARK    2  A    between atoms: O_2  and  C_3
REMARK    3  A    between atoms: C_6  and  N_7
REMARK    4  A    between atoms: N_14  and  C_15
REMARK    5  A    between atoms: C_18  and  N_19
REMARK                            x       y       z     vdW  Elec       q    Type
REMARK                         _______ _______ _______ _____ _____    ______ ____
ROOT
ATOM      1  N   UNL     1       4.359   4.086  18.709  0.00  0.00    +0.000 N 
ATOM      2  N   UNL     1       4.312   2.847  19.284  0.00  0.00    +0.000 NA
ATOM      3  N   UNL     1       3.435   2.871  20.281  0.00  0.00    +0.000 NA
ATOM      4  C   UNL     1       2.893   4.117  20.326  0.00  0.00    +0.000 A 
ATOM      5  C   UNL     1       1.928   4.705  21.125  0.00  0.00    +0.000 A 
ATOM      6  N   UNL     1       1.574   5.994  20.897  0.00  0.00    +0.000 NA
ATOM      7  C   UNL     1       2.180   6.686  19.910  0.00  0.00    +0.000 A 
ATOM      8  N   UNL     1       1.848   8.014  19.693  0.00  0.00    +0.000 N 
ATOM      9  N   UNL     1       3.138   6.207  19.105  0.00  0.00    +0.000 NA
ATOM     10  C   UNL     1       3.452   4.920  19.349  0.00  0.00    +0.000 A 
ATOM     11  H   UNL     1       2.608   8.433  19.171  0.00  0.00    +0.000 HD
ENDROOT
BRANCH   1  15
ATOM     12  C   UNL     1       6.942   4.940  15.463  0.00  0.00    +0.000 A 
ATOM     13  C   UNL     1       5.609   4.593  15.238  0.00  0.00    +0.000 A 
ATOM     14  C   UNL     1       4.755   4.306  16.309  0.00  0.00    +0.000 A 
ATOM     15  C   UNL     1       5.236   4.363  17.626  0.00  0.00    +0.000 A 
ATOM     16  C   UNL     1       6.579   4.688  17.845  0.00  0.00    +0.000 A 
ATOM     17  C   UNL     1       7.427   4.970  16.768  0.00  0.00    +0.000 A 
BRANCH  12  19
ATOM     18  C   UNL     1       7.151   4.688  13.123  0.00  0.00    +0.000 C 
ATOM     19  O   UNL     1       7.684   5.193  14.343  0.00  0.00    +0.000 OA
ENDBRANCH  12  19
ENDBRANCH   1  15
BRANCH   8  20
ATOM     20  C   UNL     1       1.365   8.748  20.846  0.00  0.00    +0.000 C 
ATOM     21  C   UNL     1       1.203  10.241  20.574  0.00  0.00    +0.000 C 
ATOM     22  C   UNL     1       0.264  10.710  21.675  0.00  0.00    +0.000 C 
ATOM     23  C   UNL     1      -0.630   9.506  21.999  0.00  0.00    +0.000 C 
ATOM     24  C   UNL     1      -0.062   8.329  21.198  0.00  0.00    +0.000 C 
BRANCH  23  25
ATOM     25  N   UNL     1      -0.641   9.254  23.438  0.00  0.00    +0.000 NA
ATOM     26  H   UNL     1      -0.724   8.253  23.624  0.00  0.00    +0.000 HD
ATOM     27  H   UNL     1      -1.465   9.683  23.857  0.00  0.00    +0.000 HD
ENDBRANCH  23  25
ENDBRANCH   8  20
TORSDOF 4
ENDMDL
MODEL 2
REMARK VINA RESULT:      -7.5      2.428      3.288
REMARK  Name = 
REMARK  5 active torsions:
REMARK  status: ('A' for Active; 'I' for Inactive)
REMARK    1  A    between atoms: C_1  and  O_2
REMARK    2  A    between atoms: O_2  and  C_3
REMARK    3  A    between atoms: C_6  and  N_7
REMARK    4  A    between atoms: N_14  and  C_15
REMARK    5  A    between atoms: C_18  and  N_19
REMARK                            x       y       z     vdW  Elec       q    Type
REMARK                         _______ _______ _______ _____ _____    ______ ____
ROOT
ATOM      1  N   UNL     1       3.122   6.170  18.815  0.00  0.00    +0.000 N 
ATOM      2  N   UNL     1       2.950   5.316  19.868  0.00  0.00    +0.000 NA
ATOM      3  N   UNL     1       2.184   5.907  20.778  0.00  0.00    +0.000 NA
ATOM      4  C   UNL     1       1.836   7.130  20.295  0.00  0.00    +0.000 A 
ATOM      5  C   UNL     1       1.047   8.155  20.787  0.00  0.00    +0.000 A 
ATOM      6  N   UNL     1       0.865   9.269  20.034  0.00  0.00    +0.000 NA
ATOM      7  C   UNL     1       1.468   9.367  18.832  0.00  0.00    +0.000 A 
ATOM      8  N   UNL     1       1.313  10.516  18.073  0.00  0.00    +0.000 N 
ATOM      9  N   UNL     1       2.265   8.436  18.289  0.00  0.00    +0.000 NA
ATOM     10  C   UNL     1       2.411   7.338  19.056  0.00  0.00    +0.000 A 
ATOM     11  H   UNL     1       2.072  10.539  17.403  0.00  0.00    +0.000 HD
ENDROOT
BRANCH   1  15
ATOM     12  C   UNL     1       5.542   5.125  15.500  0.00  0.00    +0.000 A 
ATOM     13  C   UNL     1       5.439   6.454  15.914  0.00  0.00    +0.000 A 
ATOM     14  C   UNL     1       4.637   6.802  17.007  0.00  0.00    +0.000 A 
ATOM     15  C   UNL     1       3.922   5.811  17.698  0.00  0.00    +0.000 A 
ATOM     16  C   UNL     1       4.010   4.484  17.265  0.00  0.00    +0.000 A 
ATOM     17  C   UNL     1       4.812   4.145  16.169  0.00  0.00    +0.000 A 
BRANCH  12  19
ATOM     18  C   UNL     1       5.975   3.813  13.584  0.00  0.00    +0.000 C 
ATOM     19  O   UNL     1       6.349   4.903  14.420  0.00  0.00    +0.000 OA
ENDBRANCH  12  19
ENDBRANCH   1  15
BRANCH   8  20
ATOM     20  C   UNL     1       1.054  11.737  18.809  0.00  0.00    +0.000 C 
ATOM     21  C   UNL     1       1.974  12.884  18.398  0.00  0.00    +0.000 C 
ATOM     22  C   UNL     1       1.245  14.127  18.890  0.00  0.00    +0.000 C 
ATOM     23  C   UNL     1      -0.248  13.784  18.825  0.00  0.00    +0.000 C 
ATOM     24  C   UNL     1      -0.327  12.295  18.466  0.00  0.00    +0.000 C 
BRANCH  23  25
ATOM     25  N   UNL     1      -0.895  14.090  20.098  0.00  0.00    +0.000 NA
ATOM     26  H   UNL     1      -0.477  14.919  20.521  0.00  0.00    +0.000 HD
ATOM     27  H   UNL     1      -0.733  13.330  20.758  0.00  0.00    +0.000 HD
ENDBRANCH  23  25
ENDBRANCH   8  20
TORSDOF 4
ENDMDL
MODEL 3
REMARK VINA RESULT:      -7.4      2.405      3.255
REMARK  Name = 
REMARK  5 active torsions:
REMARK  status: ('A' for Active; 'I' for Inactive)
REMARK    1  A    between atoms: C_1  and  O_2
REMARK    2  A    between atoms: O_2  and  C_3
REMARK    3  A    between atoms: C_6  and  N_7
REMARK    4  A    between atoms: N_14  and  C_15
REMARK    5  A    between atoms: C_18  and  N_19
REMARK                            x       y       z     vdW  Elec       q    Type
REMARK                         _______ _______ _______ _____ _____    ______ ____
ROOT
ATOM      1  N   UNL     1       3.035   6.031  18.936  0.00  0.00    +0.000 N 
ATOM      2  N   UNL     1       2.823   5.217  20.014  0.00  0.00    +0.000 NA
ATOM      3  N   UNL     1       2.090   5.870  20.907  0.00  0.00    +0.000 NA
ATOM      4  C   UNL     1       1.801   7.094  20.390  0.00  0.00    +0.000 A 
ATOM      5  C   UNL     1       1.064   8.171  20.853  0.00  0.00    +0.000 A 
ATOM      6  N   UNL     1       0.935   9.270  20.069  0.00  0.00    +0.000 NA
ATOM      7  C   UNL     1       1.539   9.304  18.863  0.00  0.00    +0.000 A 
ATOM      8  N   UNL     1       1.439  10.438  18.072  0.00  0.00    +0.000 N 
ATOM      9  N   UNL     1       2.289   8.321  18.347  0.00  0.00    +0.000 NA
ATOM     10  C   UNL     1       2.382   7.239  19.144  0.00  0.00    +0.000 A 
ATOM     11  H   UNL     1       2.197  10.404  17.402  0.00  0.00    +0.000 HD
ENDROOT
BRANCH   1  15
ATOM     12  C   UNL     1       5.324   4.728  15.621  0.00  0.00    +0.000 A 
ATOM     13  C   UNL     1       4.605   3.813  16.391  0.00  0.00    +0.000 A 
ATOM     14  C   UNL     1       3.851   4.241  17.489  0.00  0.00    +0.000 A 
ATOM     15  C   UNL     1       3.814   5.602  17.829  0.00  0.00    +0.000 A 
ATOM     16  C   UNL     1       4.556   6.512  17.069  0.00  0.00    +0.000 A 
ATOM     17  C   UNL     1       5.311   6.075  15.974  0.00  0.00    +0.000 A 
BRANCH  12  19
ATOM     18  C   UNL     1       7.176   4.935  14.167  0.00  0.00    +0.000 C 
ATOM     19  O   UNL     1       6.029   4.197  14.576  0.00  0.00    +0.000 OA
ENDBRANCH  12  19
ENDBRANCH   1  15
BRANCH   8  20
ATOM     20  C   UNL     1       1.242  11.690  18.773  0.00  0.00    +0.000 C 
ATOM     21  C   UNL     1       2.170  12.798  18.282  0.00  0.00    +0.000 C 
ATOM     22  C   UNL     1       1.494  14.075  18.758  0.00  0.00    +0.000 C 
ATOM     23  C   UNL     1      -0.009  13.769  18.770  0.00  0.00    +0.000 C 
ATOM     24  C   UNL     1      -0.139  12.271  18.469  0.00  0.00    +0.000 C 
BRANCH  23  25
ATOM     25  N   UNL     1      -0.592  14.136  20.057  0.00  0.00    +0.000 NA
ATOM     26  H   UNL     1       0.136  14.229  20.766  0.00  0.00    +0.000 HD
ATOM     27  H   UNL     1      -1.204  13.389  20.384  0.00  0.00    +0.000 HD
ENDBRANCH  23  25
ENDBRANCH   8  20
TORSDOF 4
ENDMDL
MODEL 4
REMARK VINA RESULT:      -7.4      1.920      2.138
REMARK  Name = 
REMARK  5 active torsions:
REMARK  status: ('A' for Active; 'I' for Inactive)
REMARK    1  A    between atoms: C_1  and  O_2
REMARK    2  A    between atoms: O_2  and  C_3
REMARK    3  A    between atoms: C_6  and  N_7
REMARK    4  A    between atoms: N_14  and  C_15
REMARK    5  A    between atoms: C_18  and  N_19
REMARK                            x       y       z     vdW  Elec       q    Type
REMARK                         _______ _______ _______ _____ _____    ______ ____
ROOT
ATOM      1  N   UNL     1       4.610   4.979  17.905  0.00  0.00    +0.000 N 
ATOM      2  N   UNL     1       4.716   4.031  18.884  0.00  0.00    +0.000 NA
ATOM      3  N   UNL     1       3.944   4.382  19.905  0.00  0.00    +0.000 NA
ATOM      4  C   UNL     1       3.314   5.540  19.569  0.00  0.00    +0.000 A 
ATOM      5  C   UNL     1       2.391   6.341  20.219  0.00  0.00    +0.000 A 
ATOM      6  N   UNL     1       1.917   7.447  19.592  0.00  0.00    +0.000 NA
ATOM      7  C   UNL     1       2.366   7.757  18.358  0.00  0.00    +0.000 A 
ATOM      8  N   UNL     1       1.912   8.903  17.726  0.00  0.00    +0.000 N 
ATOM      9  N   UNL     1       3.273   7.054  17.666  0.00  0.00    +0.000 NA
ATOM     10  C   UNL     1       3.709   5.955  18.312  0.00  0.00    +0.000 A 
ATOM     11  H   UNL     1       2.581   9.132  17.001  0.00  0.00    +0.000 HD
ENDROOT
BRANCH   1  15
ATOM     12  C   UNL     1       6.782   4.696  14.280  0.00  0.00    +0.000 A 
ATOM     13  C   UNL     1       5.457   4.264  14.350  0.00  0.00    +0.000 A 
ATOM     14  C   UNL     1       4.739   4.353  15.547  0.00  0.00    +0.000 A 
ATOM     15  C   UNL     1       5.350   4.878  16.696  0.00  0.00    +0.000 A 
ATOM     16  C   UNL     1       6.686   5.289  16.628  0.00  0.00    +0.000 A 
ATOM     17  C   UNL     1       7.398   5.193  15.427  0.00  0.00    +0.000 A 
BRANCH  12  19
ATOM     18  C   UNL     1       6.739   3.676  12.150  0.00  0.00    +0.000 C 
ATOM     19  O   UNL     1       7.387   4.557  13.062  0.00  0.00    +0.000 OA
ENDBRANCH  12  19
ENDBRANCH   1  15
BRANCH   8  20
ATOM     20  C   UNL     1       1.491   9.986  18.592  0.00  0.00    +0.000 C 
ATOM     21  C   UNL     1       2.107  11.328  18.207  0.00  0.00    +0.000 C 
ATOM     22  C   UNL     1       1.198  12.350  18.876  0.00  0.00    +0.000 C 
ATOM     23  C   UNL     1      -0.192  11.704  18.917  0.00  0.00    +0.000 C 
ATOM     24  C   UNL     1      -0.004  10.261  18.430  0.00  0.00    +0.000 C 
BRANCH  23  25
ATOM     25  N   UNL     1      -0.745  11.773  20.267  0.00  0.00    +0.000 NA
ATOM     26  H   UNL     1      -1.393  11.001  20.427  0.00  0.00    +0.000 HD
ATOM     27  H   UNL     1      -1.296  12.625  20.370  0.00  0.00    +0.000 HD
ENDBRANCH  23  25
ENDBRANCH   8  20
TORSDOF 4
ENDMDL
MODEL 5
REMARK VINA RESULT:      -7.2      2.069      2.766
REMARK  Name = 
REMARK  5 active torsions:
REMARK  status: ('A' for Active; 'I' for Inactive)
REMARK    1  A    between atoms: C_1  and  O_2
REMARK    2  A    between atoms: O_2  and  C_3
REMARK    3  A    between atoms: C_6  and  N_7
REMARK    4  A    between atoms: N_14  and  C_15
REMARK    5  A    between atoms: C_18  and  N_19
REMARK                            x       y       z     vdW  Elec       q    Type
REMARK                         _______ _______ _______ _____ _____    ______ ____
ROOT
ATOM      1  N   UNL     1       3.851   5.765  18.610  0.00  0.00    +0.000 N 
ATOM      2  N   UNL     1       3.634   4.803  19.557  0.00  0.00    +0.000 NA
ATOM      3  N   UNL     1       2.715   5.241  20.409  0.00  0.00    +0.000 NA
ATOM      4  C   UNL     1       2.317   6.473  19.992  0.00  0.00    +0.000 A 
ATOM      5  C   UNL     1       1.385   7.380  20.465  0.00  0.00    +0.000 A 
ATOM      6  N   UNL     1       1.192   8.543  19.794  0.00  0.00    +0.000 NA
ATOM      7  C   UNL     1       1.922   8.803  18.690  0.00  0.00    +0.000 A 
ATOM      8  N   UNL     1       1.755  10.004  18.018  0.00  0.00    +0.000 N 
ATOM      9  N   UNL     1       2.860   7.996  18.175  0.00  0.00    +0.000 NA
ATOM     10  C   UNL     1       3.013   6.844  18.858  0.00  0.00    +0.000 A 
ATOM     11  H   UNL     1       2.583  10.151  17.454  0.00  0.00    +0.000 HD
ENDROOT
BRANCH   1  15
ATOM     12  C   UNL     1       6.735   5.206  15.560  0.00  0.00    +0.000 A 
ATOM     13  C   UNL     1       7.020   6.005  16.669  0.00  0.00    +0.000 A 
ATOM     14  C   UNL     1       6.067   6.194  17.675  0.00  0.00    +0.000 A 
ATOM     15  C   UNL     1       4.808   5.581  17.577  0.00  0.00    +0.000 A 
ATOM     16  C   UNL     1       4.520   4.800  16.453  0.00  0.00    +0.000 A 
ATOM     17  C   UNL     1       5.478   4.618  15.448  0.00  0.00    +0.000 A 
BRANCH  12  19
ATOM     18  C   UNL     1       7.319   4.882  13.294  0.00  0.00    +0.000 C 
ATOM     19  O   UNL     1       7.739   5.096  14.638  0.00  0.00    +0.000 OA
ENDBRANCH  12  19
ENDBRANCH   1  15
BRANCH   8  20
ATOM     20  C   UNL     1       1.300  11.124  18.817  0.00  0.00    +0.000 C 
ATOM     21  C   UNL     1       2.074  12.408  18.533  0.00  0.00    +0.000 C 
ATOM     22  C   UNL     1       1.162  13.506  19.063  0.00  0.00    +0.000 C 
ATOM     23  C   UNL     1      -0.267  12.975  18.894  0.00  0.00    +0.000 C 
ATOM     24  C   UNL     1      -0.127  11.518  18.436  0.00  0.00    +0.000 C 
BRANCH  23  25
ATOM     25  N   UNL     1      -1.007  13.101  20.148  0.00  0.00    +0.000 NA
ATOM     26  H   UNL     1      -1.332  14.060  20.276  0.00  0.00    +0.000 HD
ATOM     27  H   UNL     1      -0.386  12.911  20.934  0.00  0.00    +0.000 HD
ENDBRANCH  23  25
ENDBRANCH   8  20
TORSDOF 4
ENDMDL
MODEL 6
REMARK VINA RESULT:      -7.1      3.395      5.011
REMARK  Name = 
REMARK  5 active torsions:
REMARK  status: ('A' for Active; 'I' for Inactive)
REMARK    1  A    between atoms: C_1  and  O_2
REMARK    2  A    between atoms: O_2  and  C_3
REMARK    3  A    between atoms: C_6  and  N_7
REMARK    4  A    between atoms: N_14  and  C_15
REMARK    5  A    between atoms: C_18  and  N_19
REMARK                            x       y       z     vdW  Elec       q    Type
REMARK                         _______ _______ _______ _____ _____    ______ ____
ROOT
ATOM      1  N   UNL     1       6.924   5.377  15.781  0.00  0.00    +0.000 N 
ATOM      2  N   UNL     1       7.741   6.458  15.957  0.00  0.00    +0.000 NA
ATOM      3  N   UNL     1       7.638   6.873  17.214  0.00  0.00    +0.000 NA
ATOM      4  C   UNL     1       6.779   6.038  17.857  0.00  0.00    +0.000 A 
ATOM      5  C   UNL     1       6.318   5.968  19.160  0.00  0.00    +0.000 A 
ATOM      6  N   UNL     1       5.465   4.973  19.508  0.00  0.00    +0.000 NA
ATOM      7  C   UNL     1       5.067   4.081  18.578  0.00  0.00    +0.000 A 
ATOM      8  N   UNL     1       4.169   3.082  18.919  0.00  0.00    +0.000 N 
ATOM      9  N   UNL     1       5.442   4.085  17.292  0.00  0.00    +0.000 NA
ATOM     10  C   UNL     1       6.301   5.077  16.985  0.00  0.00    +0.000 A 
ATOM     11  H   UNL     1       3.752   2.745  18.060  0.00  0.00    +0.000 HD
ENDROOT
BRANCH   1  15
ATOM     12  C   UNL     1       6.544   3.471  12.019  0.00  0.00    +0.000 A 
ATOM     13  C   UNL     1       5.701   3.128  13.077  0.00  0.00    +0.000 A 
ATOM     14  C   UNL     1       5.828   3.754  14.322  0.00  0.00    +0.000 A 
ATOM     15  C   UNL     1       6.811   4.735  14.519  0.00  0.00    +0.000 A 
ATOM     16  C   UNL     1       7.669   5.059  13.462  0.00  0.00    +0.000 A 
ATOM     17  C   UNL     1       7.538   4.425  12.221  0.00  0.00    +0.000 A 
BRANCH  12  19
ATOM     18  C   UNL     1       6.594   1.392  10.896  0.00  0.00    +0.000 C 
ATOM     19  O   UNL     1       6.332   2.791  10.851  0.00  0.00    +0.000 OA
ENDBRANCH  12  19
ENDBRANCH   1  15
BRANCH   8  20
ATOM     20  C   UNL     1       3.263   3.382  20.010  0.00  0.00    +0.000 C 
ATOM     21  C   UNL     1       2.337   4.557  19.707  0.00  0.00    +0.000 C 
ATOM     22  C   UNL     1       1.201   4.389  20.705  0.00  0.00    +0.000 C 
ATOM     23  C   UNL     1       1.084   2.879  20.951  0.00  0.00    +0.000 C 
ATOM     24  C   UNL     1       2.272   2.238  20.223  0.00  0.00    +0.000 C 
BRANCH  23  25
ATOM     25  N   UNL     1       1.084   2.597  22.384  0.00  0.00    +0.000 NA
ATOM     26  H   UNL     1       2.012   2.297  22.688  0.00  0.00    +0.000 HD
ATOM     27  H   UNL     1       0.461   1.814  22.581  0.00  0.00    +0.000 HD
ENDBRANCH  23  25
ENDBRANCH   8  20
TORSDOF 4
ENDMDL
MODEL 7
REMARK VINA RESULT:      -7.0      1.317      1.406
REMARK  Name = 
REMARK  5 active torsions:
REMARK  status: ('A' for Active; 'I' for Inactive)
REMARK    1  A    between atoms: C_1  and  O_2
REMARK    2  A    between atoms: O_2  and  C_3
REMARK    3  A    between atoms: C_6  and  N_7
REMARK    4  A    between atoms: N_14  and  C_15
REMARK    5  A    between atoms: C_18  and  N_19
REMARK                            x       y       z     vdW  Elec       q    Type
REMARK                         _______ _______ _______ _____ _____    ______ ____
ROOT
ATOM      1  N   UNL     1       4.055   4.974  18.706  0.00  0.00    +0.000 N 
ATOM      2  N   UNL     1       3.934   3.864  19.494  0.00  0.00    +0.000 NA
ATOM      3  N   UNL     1       3.006   4.093  20.416  0.00  0.00    +0.000 NA
ATOM      4  C   UNL     1       2.507   5.339  20.200  0.00  0.00    +0.000 A 
ATOM      5  C   UNL     1       1.522   6.088  20.820  0.00  0.00    +0.000 A 
ATOM      6  N   UNL     1       1.226   7.321  20.340  0.00  0.00    +0.000 NA
ATOM      7  C   UNL     1       1.907   7.804  19.280  0.00  0.00    +0.000 A 
ATOM      8  N   UNL     1       1.634   9.077  18.805  0.00  0.00    +0.000 N 
ATOM      9  N   UNL     1       2.890   7.161  18.634  0.00  0.00    +0.000 NA
ATOM     10  C   UNL     1       3.145   5.934  19.128  0.00  0.00    +0.000 A 
ATOM     11  H   UNL     1       2.435   9.373  18.261  0.00  0.00    +0.000 HD
ENDROOT
BRANCH   1  15
ATOM     12  C   UNL     1       6.832   5.134  15.512  0.00  0.00    +0.000 A 
ATOM     13  C   UNL     1       5.674   4.361  15.409  0.00  0.00    +0.000 A 
ATOM     14  C   UNL     1       4.758   4.304  16.464  0.00  0.00    +0.000 A 
ATOM     15  C   UNL     1       4.998   5.025  17.644  0.00  0.00    +0.000 A 
ATOM     16  C   UNL     1       6.171   5.779  17.752  0.00  0.00    +0.000 A 
ATOM     17  C   UNL     1       7.085   5.828  16.693  0.00  0.00    +0.000 A 
BRANCH  12  19
ATOM     18  C   UNL     1       7.100   4.547  13.239  0.00  0.00    +0.000 C 
ATOM     19  O   UNL     1       7.657   5.111  14.422  0.00  0.00    +0.000 OA
ENDBRANCH  12  19
ENDBRANCH   1  15
BRANCH   8  20
ATOM     20  C   UNL     1       1.117  10.023  19.774  0.00  0.00    +0.000 C 
ATOM     21  C   UNL     1       1.424  11.473  19.410  0.00  0.00    +0.000 C 
ATOM     22  C   UNL     1       0.420  12.272  20.228  0.00  0.00    +0.000 C 
ATOM     23  C   UNL     1      -0.812  11.369  20.370  0.00  0.00    +0.000 C 
ATOM     24  C   UNL     1      -0.412  10.011  19.780  0.00  0.00    +0.000 C 
BRANCH  23  25
ATOM     25  N   UNL     1      -1.215  11.277  21.770  0.00  0.00    +0.000 NA
ATOM     26  H   UNL     1      -1.784  10.443  21.924  0.00  0.00    +0.000 HD
ATOM     27  H   UNL     1      -1.812  12.068  22.010  0.00  0.00    +0.000 HD
ENDBRANCH  23  25
ENDBRANCH   8  20
TORSDOF 4
ENDMDL
MODEL 8
REMARK VINA RESULT:      -6.9      3.155      8.127
REMARK  Name = 
REMARK  5 active torsions:
REMARK  status: ('A' for Active; 'I' for Inactive)
REMARK    1  A    between atoms: C_1  and  O_2
REMARK    2  A    between atoms: O_2  and  C_3
REMARK    3  A    between atoms: C_6  and  N_7
REMARK    4  A    between atoms: N_14  and  C_15
REMARK    5  A    between atoms: C_18  and  N_19
REMARK                            x       y       z     vdW  Elec       q    Type
REMARK                         _______ _______ _______ _____ _____    ______ ____
ROOT
ATOM      1  N   UNL     1       2.801   5.794  18.975  0.00  0.00    +0.000 N 
ATOM      2  N   UNL     1       2.483   4.939  19.993  0.00  0.00    +0.000 NA
ATOM      3  N   UNL     1       3.029   3.755  19.743  0.00  0.00    +0.000 NA
ATOM      4  C   UNL     1       3.727   3.858  18.580  0.00  0.00    +0.000 A 
ATOM      5  C   UNL     1       4.504   2.969  17.857  0.00  0.00    +0.000 A 
ATOM      6  N   UNL     1       5.109   3.392  16.719  0.00  0.00    +0.000 NA
ATOM      7  C   UNL     1       4.930   4.663  16.303  0.00  0.00    +0.000 A 
ATOM      8  N   UNL     1       5.518   5.092  15.124  0.00  0.00    +0.000 N 
ATOM      9  N   UNL     1       4.179   5.582  16.926  0.00  0.00    +0.000 NA
ATOM     10  C   UNL     1       3.607   5.132  18.059  0.00  0.00    +0.000 A 
ATOM     11  H   UNL     1       5.017   5.919  14.822  0.00  0.00    +0.000 HD
ENDROOT
BRANCH   1  15
ATOM     12  C   UNL     1       1.411   9.795  18.975  0.00  0.00    +0.000 A 
ATOM     13  C   UNL     1       1.316   9.009  20.125  0.00  0.00    +0.000 A 
ATOM     14  C   UNL     1       1.770   7.686  20.126  0.00  0.00    +0.000 A 
ATOM     15  C   UNL     1       2.328   7.134  18.963  0.00  0.00    +0.000 A 
ATOM     16  C   UNL     1       2.400   7.917  17.806  0.00  0.00    +0.000 A 
ATOM     17  C   UNL     1       1.939   9.239  17.812  0.00  0.00    +0.000 A 
BRANCH  12  19
ATOM     18  C   UNL     1       0.993  11.638  20.393  0.00  0.00    +0.000 C 
ATOM     19  O   UNL     1       0.931  11.070  19.089  0.00  0.00    +0.000 OA
ENDBRANCH  12  19
ENDBRANCH   1  15
BRANCH   8  20
ATOM     20  C   UNL     1       5.760   4.073  14.123  0.00  0.00    +0.000 C 
ATOM     21  C   UNL     1       4.619   3.945  13.117  0.00  0.00    +0.000 C 
ATOM     22  C   UNL     1       5.257   3.230  11.935  0.00  0.00    +0.000 C 
ATOM     23  C   UNL     1       6.731   3.654  11.939  0.00  0.00    +0.000 C 
ATOM     24  C   UNL     1       6.936   4.461  13.226  0.00  0.00    +0.000 C 
BRANCH  23  25
ATOM     25  N   UNL     1       7.597   2.480  11.867  0.00  0.00    +0.000 NA
ATOM     26  H   UNL     1       7.618   2.108  10.917  0.00  0.00    +0.000 HD
ATOM     27  H   UNL     1       7.216   1.734  12.449  0.00  0.00    +0.000 HD
ENDBRANCH  23  25
ENDBRANCH   8  20
TORSDOF 4
ENDMDL
MODEL 9
REMARK VINA RESULT:      -6.9      3.155      8.063
REMARK  Name = 
REMARK  5 active torsions:
REMARK  status: ('A' for Active; 'I' for Inactive)
REMARK    1  A    between atoms: C_1  and  O_2
REMARK    2  A    between atoms: O_2  and  C_3
REMARK    3  A    between atoms: C_6  and  N_7
REMARK    4  A    between atoms: N_14  and  C_15
REMARK    5  A    between atoms: C_18  and  N_19
REMARK                            x       y       z     vdW  Elec       q    Type
REMARK                         _______ _______ _______ _____ _____    ______ ____
ROOT
ATOM      1  N   UNL     1       2.731   5.729  18.980  0.00  0.00    +0.000 N 
ATOM      2  N   UNL     1       2.358   4.857  19.963  0.00  0.00    +0.000 NA
ATOM      3  N   UNL     1       2.876   3.664  19.696  0.00  0.00    +0.000 NA
ATOM      4  C   UNL     1       3.610   3.777  18.557  0.00  0.00    +0.000 A 
ATOM      5  C   UNL     1       4.380   2.884  17.831  0.00  0.00    +0.000 A 
ATOM      6  N   UNL     1       5.030   3.320  16.723  0.00  0.00    +0.000 NA
ATOM      7  C   UNL     1       4.903   4.606  16.338  0.00  0.00    +0.000 A 
ATOM      8  N   UNL     1       5.537   5.049  15.188  0.00  0.00    +0.000 N 
ATOM      9  N   UNL     1       4.162   5.530  16.965  0.00  0.00    +0.000 NA
ATOM     10  C   UNL     1       3.543   5.068  18.068  0.00  0.00    +0.000 A 
ATOM     11  H   UNL     1       5.070   5.898  14.895  0.00  0.00    +0.000 HD
ENDROOT
BRANCH   1  15
ATOM     12  C   UNL     1       1.419   9.756  18.977  0.00  0.00    +0.000 A 
ATOM     13  C   UNL     1       1.935   9.176  17.817  0.00  0.00    +0.000 A 
ATOM     14  C   UNL     1       2.372   7.847  17.817  0.00  0.00    +0.000 A 
ATOM     15  C   UNL     1       2.299   7.082  18.991  0.00  0.00    +0.000 A 
ATOM     16  C   UNL     1       1.803   7.675  20.157  0.00  0.00    +0.000 A 
ATOM     17  C   UNL     1       1.371   9.006  20.150  0.00  0.00    +0.000 A 
BRANCH  12  19
ATOM     18  C   UNL     1      -0.379  11.282  18.840  0.00  0.00    +0.000 C 
ATOM     19  O   UNL     1       1.028  11.061  18.862  0.00  0.00    +0.000 OA
ENDBRANCH  12  19
ENDBRANCH   1  15
BRANCH   8  20
ATOM     20  C   UNL     1       5.777   4.050  14.166  0.00  0.00    +0.000 C 
ATOM     21  C   UNL     1       4.631   3.937  13.165  0.00  0.00    +0.000 C 
ATOM     22  C   UNL     1       5.265   3.247  11.965  0.00  0.00    +0.000 C 
ATOM     23  C   UNL     1       6.737   3.678  11.969  0.00  0.00    +0.000 C 
ATOM     24  C   UNL     1       6.947   4.461  13.271  0.00  0.00    +0.000 C 
BRANCH  23  25
ATOM     25  N   UNL     1       7.608   2.509  11.870  0.00  0.00    +0.000 NA
ATOM     26  H   UNL     1       7.275   1.763  12.482  0.00  0.00    +0.000 HD
ATOM     27  H   UNL     1       8.542   2.746  12.204  0.00  0.00    +0.000 HD
ENDBRANCH  23  25
ENDBRANCH   8  20
TORSDOF 4
ENDMDL
