MODEL 1
REMARK VINA RESULT:      -7.2      0.000      0.000
REMARK  Name = 
REMARK  10 active torsions:
REMARK  status: ('A' for Active; 'I' for Inactive)
REMARK    1  A    between atoms: C_1  and  C_2
REMARK    2  A    between atoms: C_2  and  C_3
REMARK    3  A    between atoms: C_3  and  C_4
REMARK    4  A    between atoms: C_3  and  N_5
REMARK    5  A    between atoms: N_5  and  C_6
REMARK    6  A    between atoms: N_5  and  C_7
REMARK    7  A    between atoms: C_7  and  C_8
REMARK    8  A    between atoms: C_8  and  N_9
REMARK    9  A    between atoms: N_9  and  C_10
REMARK   10  A    between atoms: C_13  and  C_14
REMARK                            x       y       z     vdW  Elec       q    Type
REMARK                         _______ _______ _______ _____ _____    ______ ____
ROOT
ATOM      1  C   UNL     1       6.848   6.914  17.350  0.00  0.00    +0.000 A 
ATOM      2  N   UNL     1       5.837   7.037  16.462  0.00  0.00    +0.000 NA
ATOM      3  C   UNL     1       4.780   6.191  16.575  0.00  0.00    +0.000 A 
ATOM      4  C   UNL     1       4.652   5.227  17.565  0.00  0.00    +0.000 A 
ATOM      5  C   UNL     1       5.718   5.068  18.444  0.00  0.00    +0.000 A 
ATOM      6  C   UNL     1       6.817   5.920  18.343  0.00  0.00    +0.000 A 
ATOM      7 CL   UNL     1       8.072   5.764  19.523  0.00  0.00    +0.000 Cl
ENDROOT
BRANCH   4   8
ATOM      8  C   UNL     1       3.474   4.337  17.538  0.00  0.00    +0.000 C 
ATOM      9  O   UNL     1       3.442   3.486  16.653  0.00  0.00    +0.000 OA
ATOM     10  N   UNL     1       2.466   4.429  18.489  0.00  0.00    +0.000 N 
ATOM     11  C   UNL     1       2.206   5.501  19.461  0.00  0.00    +0.000 C 
ATOM     12  C   UNL     1       2.184   4.908  20.880  0.00  0.00    +0.000 C 
ATOM     13  O   UNL     1       1.219   3.845  20.978  0.00  0.00    +0.000 OA
ATOM     14  C   UNL     1       1.499   2.796  20.030  0.00  0.00    +0.000 C 
ATOM     15  C   UNL     1       1.498   3.334  18.596  0.00  0.00    +0.000 C 
ENDBRANCH   4   8
BRANCH   1  16
ATOM     16  N   UNL     1       7.950   7.768  17.234  0.00  0.00    +0.000 N 
ATOM     17  H   UNL     1       8.816   7.312  17.493  0.00  0.00    +0.000 HD
BRANCH  16  18
ATOM     18  C   UNL     1       7.811   9.115  17.799  0.00  0.00    +0.000 C 
BRANCH  18  19
ATOM     19  C   UNL     1       8.952   9.569  18.760  0.00  0.00    +0.000 C 
BRANCH  19  20
ATOM     20  N   UNL     1       9.155  11.016  19.067  0.00  0.00    +0.000 NA
ATOM     21  C   UNL     1       9.701  11.770  17.949  0.00  0.00    +0.000 C 
BRANCH  20  22
ATOM     22  C   UNL     1       9.950  11.196  20.315  0.00  0.00    +0.000 C 
ATOM     23  C   UNL     1      11.329  11.860  20.107  0.00  0.00    +0.000 C 
BRANCH  22  25
ATOM     24  C   UNL     1       9.280  13.505  21.283  0.00  0.00    +0.000 C 
ATOM     25  C   UNL     1       9.219  11.992  21.431  0.00  0.00    +0.000 C 
ENDBRANCH  22  25
ENDBRANCH  20  22
ENDBRANCH  19  20
ENDBRANCH  18  19
ENDBRANCH  16  18
ENDBRANCH   1  16
TORSDOF 7
ENDMDL
MODEL 2
REMARK VINA RESULT:      -7.1      1.283      1.865
REMARK  Name = 
REMARK  10 active torsions:
REMARK  status: ('A' for Active; 'I' for Inactive)
REMARK    1  A    between atoms: C_1  and  C_2
REMARK    2  A    between atoms: C_2  and  C_3
REMARK    3  A    between atoms: C_3  and  C_4
REMARK    4  A    between atoms: C_3  and  N_5
REMARK    5  A    between atoms: N_5  and  C_6
REMARK    6  A    between atoms: N_5  and  C_7
REMARK    7  A    between atoms: C_7  and  C_8
REMARK    8  A    between atoms: C_8  and  N_9
REMARK    9  A    between atoms: N_9  and  C_10
REMARK   10  A    between atoms: C_13  and  C_14
REMARK                            x       y       z     vdW  Elec       q    Type
REMARK                         _______ _______ _______ _____ _____    ______ ____
ROOT
ATOM      1  C   UNL     1       6.282   6.521  17.155  0.00  0.00    +0.000 A 
ATOM      2  N   UNL     1       5.047   7.059  17.044  0.00  0.00    +0.000 NA
ATOM      3  C   UNL     1       3.976   6.253  17.264  0.00  0.00    +0.000 A 
ATOM      4  C   UNL     1       4.064   4.916  17.629  0.00  0.00    +0.000 A 
ATOM      5  C   UNL     1       5.335   4.353  17.688  0.00  0.00    +0.000 A 
ATOM      6  C   UNL     1       6.449   5.160  17.460  0.00  0.00    +0.000 A 
ATOM      7 CL   UNL     1       8.014   4.449  17.655  0.00  0.00    +0.000 Cl
ENDROOT
BRANCH   4   8
ATOM      8  C   UNL     1       2.818   4.141  17.783  0.00  0.00    +0.000 C 
ATOM      9  O   UNL     1       2.479   3.439  16.833  0.00  0.00    +0.000 OA
ATOM     10  N   UNL     1       2.078   4.170  18.958  0.00  0.00    +0.000 N 
ATOM     11  C   UNL     1       2.181   5.101  20.093  0.00  0.00    +0.000 C 
ATOM     12  C   UNL     1       2.423   4.304  21.385  0.00  0.00    +0.000 C 
ATOM     13  O   UNL     1       1.391   3.321  21.585  0.00  0.00    +0.000 OA
ATOM     14  C   UNL     1       1.317   2.408  20.472  0.00  0.00    +0.000 C 
ATOM     15  C   UNL     1       1.041   3.156  19.163  0.00  0.00    +0.000 C 
ENDBRANCH   4   8
BRANCH   1  16
ATOM     16  N   UNL     1       7.393   7.337  16.915  0.00  0.00    +0.000 N 
ATOM     17  H   UNL     1       8.105   6.863  16.375  0.00  0.00    +0.000 HD
BRANCH  16  18
ATOM     18  C   UNL     1       7.929   8.084  18.058  0.00  0.00    +0.000 C 
BRANCH  18  19
ATOM     19  C   UNL     1       8.180   9.604  17.818  0.00  0.00    +0.000 C 
BRANCH  19  20
ATOM     20  N   UNL     1       9.335  10.295  18.463  0.00  0.00    +0.000 NA
ATOM     21  C   UNL     1       9.232  10.357  19.913  0.00  0.00    +0.000 C 
BRANCH  20  22
ATOM     22  C   UNL     1       9.573  11.634  17.852  0.00  0.00    +0.000 C 
ATOM     23  C   UNL     1       9.006  12.818  18.665  0.00  0.00    +0.000 C 
BRANCH  22  25
ATOM     24  C   UNL     1      11.312  13.245  16.803  0.00  0.00    +0.000 C 
ATOM     25  C   UNL     1      11.066  11.948  17.560  0.00  0.00    +0.000 C 
ENDBRANCH  22  25
ENDBRANCH  20  22
ENDBRANCH  19  20
ENDBRANCH  18  19
ENDBRANCH  16  18
ENDBRANCH   1  16
TORSDOF 7
ENDMDL
MODEL 3
REMARK VINA RESULT:      -7.0      0.933      1.475
REMARK  Name = 
REMARK  10 active torsions:
REMARK  status: ('A' for Active; 'I' for Inactive)
REMARK    1  A    between atoms: C_1  and  C_2
REMARK    2  A    between atoms: C_2  and  C_3
REMARK    3  A    between atoms: C_3  and  C_4
REMARK    4  A    between atoms: C_3  and  N_5
REMARK    5  A    between atoms: N_5  and  C_6
REMARK    6  A    between atoms: N_5  and  C_7
REMARK    7  A    between atoms: C_7  and  C_8
REMARK    8  A    between atoms: C_8  and  N_9
REMARK    9  A    between atoms: N_9  and  C_10
REMARK   10  A    between atoms: C_13  and  C_14
REMARK                            x       y       z     vdW  Elec       q    Type
REMARK                         _______ _______ _______ _____ _____    ______ ____
ROOT
ATOM      1  C   UNL     1       7.132   7.063  17.841  0.00  0.00    +0.000 A 
ATOM      2  N   UNL     1       6.166   7.344  16.939  0.00  0.00    +0.000 NA
ATOM      3  C   UNL     1       5.084   6.524  16.883  0.00  0.00    +0.000 A 
ATOM      4  C   UNL     1       4.887   5.430  17.715  0.00  0.00    +0.000 A 
ATOM      5  C   UNL     1       5.908   5.113  18.604  0.00  0.00    +0.000 A 
ATOM      6  C   UNL     1       7.031   5.936  18.675  0.00  0.00    +0.000 A 
ATOM      7 CL   UNL     1       8.226   5.572  19.871  0.00  0.00    +0.000 Cl
ENDROOT
BRANCH   4   8
ATOM      8  C   UNL     1       3.691   4.591  17.509  0.00  0.00    +0.000 C 
ATOM      9  O   UNL     1       3.749   3.752  16.614  0.00  0.00    +0.000 OA
ATOM     10  N   UNL     1       2.563   4.714  18.310  0.00  0.00    +0.000 N 
ATOM     11  C   UNL     1       2.212   5.786  19.254  0.00  0.00    +0.000 C 
ATOM     12  C   UNL     1       1.967   5.179  20.646  0.00  0.00    +0.000 C 
ATOM     13  O   UNL     1       0.957   4.156  20.591  0.00  0.00    +0.000 OA
ATOM     14  C   UNL     1       1.326   3.106  19.674  0.00  0.00    +0.000 C 
ATOM     15  C   UNL     1       1.547   3.660  18.263  0.00  0.00    +0.000 C 
ENDBRANCH   4   8
BRANCH   1  16
ATOM     16  N   UNL     1       8.259   7.890  17.897  0.00  0.00    +0.000 N 
ATOM     17  H   UNL     1       8.915   7.594  18.608  0.00  0.00    +0.000 HD
BRANCH  16  18
ATOM     18  C   UNL     1       8.022   9.338  17.891  0.00  0.00    +0.000 C 
BRANCH  18  19
ATOM     19  C   UNL     1       9.251  10.228  18.250  0.00  0.00    +0.000 C 
BRANCH  19  20
ATOM     20  N   UNL     1       9.070  11.668  18.599  0.00  0.00    +0.000 NA
ATOM     21  C   UNL     1       8.390  12.430  17.563  0.00  0.00    +0.000 C 
BRANCH  20  22
ATOM     22  C   UNL     1      10.361  12.291  19.007  0.00  0.00    +0.000 C 
ATOM     23  C   UNL     1      10.796  11.975  20.454  0.00  0.00    +0.000 C 
BRANCH  22  25
ATOM     24  C   UNL     1      12.014  13.080  17.173  0.00  0.00    +0.000 C 
ATOM     25  C   UNL     1      11.559  11.947  18.080  0.00  0.00    +0.000 C 
ENDBRANCH  22  25
ENDBRANCH  20  22
ENDBRANCH  19  20
ENDBRANCH  18  19
ENDBRANCH  16  18
ENDBRANCH   1  16
TORSDOF 7
ENDMDL
MODEL 4
REMARK VINA RESULT:      -6.9      0.884      1.373
REMARK  Name = 
REMARK  10 active torsions:
REMARK  status: ('A' for Active; 'I' for Inactive)
REMARK    1  A    between atoms: C_1  and  C_2
REMARK    2  A    between atoms: C_2  and  C_3
REMARK    3  A    between atoms: C_3  and  C_4
REMARK    4  A    between atoms: C_3  and  N_5
REMARK    5  A    between atoms: N_5  and  C_6
REMARK    6  A    between atoms: N_5  and  C_7
REMARK    7  A    between atoms: C_7  and  C_8
REMARK    8  A    between atoms: C_8  and  N_9
REMARK    9  A    between atoms: N_9  and  C_10
REMARK   10  A    between atoms: C_13  and  C_14
REMARK                            x       y       z     vdW  Elec       q    Type
REMARK                         _______ _______ _______ _____ _____    ______ ____
ROOT
ATOM      1  C   UNL     1       6.818   6.931  17.368  0.00  0.00    +0.000 A 
ATOM      2  N   UNL     1       5.757   7.104  16.548  0.00  0.00    +0.000 NA
ATOM      3  C   UNL     1       4.712   6.244  16.664  0.00  0.00    +0.000 A 
ATOM      4  C   UNL     1       4.644   5.214  17.593  0.00  0.00    +0.000 A 
ATOM      5  C   UNL     1       5.760   5.006  18.397  0.00  0.00    +0.000 A 
ATOM      6  C   UNL     1       6.847   5.872  18.292  0.00  0.00    +0.000 A 
ATOM      7 CL   UNL     1       8.168   5.648  19.387  0.00  0.00    +0.000 Cl
ENDROOT
BRANCH   4   8
ATOM      8  C   UNL     1       3.471   4.319  17.573  0.00  0.00    +0.000 C 
ATOM      9  O   UNL     1       3.429   3.479  16.677  0.00  0.00    +0.000 OA
ATOM     10  N   UNL     1       2.477   4.393  18.540  0.00  0.00    +0.000 N 
ATOM     11  C   UNL     1       2.226   5.451  19.530  0.00  0.00    +0.000 C 
ATOM     12  C   UNL     1       2.230   4.840  20.941  0.00  0.00    +0.000 C 
ATOM     13  O   UNL     1       1.272   3.771  21.040  0.00  0.00    +0.000 OA
ATOM     14  C   UNL     1       1.543   2.736  20.075  0.00  0.00    +0.000 C 
ATOM     15  C   UNL     1       1.516   3.292  18.648  0.00  0.00    +0.000 C 
ENDBRANCH   4   8
BRANCH   1  16
ATOM     16  N   UNL     1       7.907   7.799  17.247  0.00  0.00    +0.000 N 
ATOM     17  H   UNL     1       8.730   7.333  16.887  0.00  0.00    +0.000 HD
BRANCH  16  18
ATOM     18  C   UNL     1       8.189   8.676  18.389  0.00  0.00    +0.000 C 
BRANCH  18  19
ATOM     19  C   UNL     1       8.761  10.084  18.040  0.00  0.00    +0.000 C 
BRANCH  19  20
ATOM     20  N   UNL     1       9.748  10.748  18.940  0.00  0.00    +0.000 NA
ATOM     21  C   UNL     1       9.342  10.752  20.337  0.00  0.00    +0.000 C 
BRANCH  20  22
ATOM     22  C   UNL     1      10.098  12.111  18.446  0.00  0.00    +0.000 C 
ATOM     23  C   UNL     1      11.416  12.184  17.646  0.00  0.00    +0.000 C 
BRANCH  22  25
ATOM     24  C   UNL     1       8.193  13.861  18.289  0.00  0.00    +0.000 C 
ATOM     25  C   UNL     1       8.996  12.780  17.581  0.00  0.00    +0.000 C 
ENDBRANCH  22  25
ENDBRANCH  20  22
ENDBRANCH  19  20
ENDBRANCH  18  19
ENDBRANCH  16  18
ENDBRANCH   1  16
TORSDOF 7
ENDMDL
MODEL 5
REMARK VINA RESULT:      -6.9      5.392      8.227
REMARK  Name = 
REMARK  10 active torsions:
REMARK  status: ('A' for Active; 'I' for Inactive)
REMARK    1  A    between atoms: C_1  and  C_2
REMARK    2  A    between atoms: C_2  and  C_3
REMARK    3  A    between atoms: C_3  and  C_4
REMARK    4  A    between atoms: C_3  and  N_5
REMARK    5  A    between atoms: N_5  and  C_6
REMARK    6  A    between atoms: N_5  and  C_7
REMARK    7  A    between atoms: C_7  and  C_8
REMARK    8  A    between atoms: C_8  and  N_9
REMARK    9  A    between atoms: N_9  and  C_10
REMARK   10  A    between atoms: C_13  and  C_14
REMARK                            x       y       z     vdW  Elec       q    Type
REMARK                         _______ _______ _______ _____ _____    ______ ____
ROOT
ATOM      1  C   UNL     1       1.557   9.280  19.023  0.00  0.00    +0.000 A 
ATOM      2  N   UNL     1       2.031   9.157  17.763  0.00  0.00    +0.000 NA
ATOM      3  C   UNL     1       2.662   8.002  17.427  0.00  0.00    +0.000 A 
ATOM      4  C   UNL     1       2.825   6.921  18.283  0.00  0.00    +0.000 A 
ATOM      5  C   UNL     1       2.384   7.072  19.593  0.00  0.00    +0.000 A 
ATOM      6  C   UNL     1       1.739   8.252  19.963  0.00  0.00    +0.000 A 
ATOM      7 CL   UNL     1       1.106   8.357  21.570  0.00  0.00    +0.000 Cl
ENDROOT
BRANCH   4   8
ATOM      8  C   UNL     1       3.579   5.746  17.804  0.00  0.00    +0.000 C 
ATOM      9  O   UNL     1       4.773   5.911  17.568  0.00  0.00    +0.000 OA
ATOM     10  N   UNL     1       2.981   4.501  17.660  0.00  0.00    +0.000 N 
ATOM     11  C   UNL     1       1.551   4.155  17.663  0.00  0.00    +0.000 C 
ATOM     12  C   UNL     1       1.283   3.102  18.751  0.00  0.00    +0.000 C 
ATOM     13  O   UNL     1       2.117   1.944  18.562  0.00  0.00    +0.000 OA
ATOM     14  C   UNL     1       3.514   2.299  18.579  0.00  0.00    +0.000 C 
ATOM     15  C   UNL     1       3.836   3.324  17.487  0.00  0.00    +0.000 C 
ENDBRANCH   4   8
BRANCH   1  16
ATOM     16  N   UNL     1       0.921  10.472  19.386  0.00  0.00    +0.000 N 
ATOM     17  H   UNL     1       1.304  10.865  20.236  0.00  0.00    +0.000 HD
BRANCH  16  18
ATOM     18  C   UNL     1      -0.546  10.481  19.351  0.00  0.00    +0.000 C 
BRANCH  18  19
ATOM     19  C   UNL     1      -1.189  10.920  18.000  0.00  0.00    +0.000 C 
BRANCH  19  20
ATOM     20  N   UNL     1      -2.497  11.639  17.981  0.00  0.00    +0.000 NA
ATOM     21  C   UNL     1      -2.906  12.127  19.289  0.00  0.00    +0.000 C 
BRANCH  20  22
ATOM     22  C   UNL     1      -3.555  10.818  17.325  0.00  0.00    +0.000 C 
ATOM     23  C   UNL     1      -4.704  11.636  16.698  0.00  0.00    +0.000 C 
BRANCH  22  25
ATOM     24  C   UNL     1      -3.370  10.251  14.802  0.00  0.00    +0.000 C 
ATOM     25  C   UNL     1      -3.027   9.851  16.230  0.00  0.00    +0.000 C 
ENDBRANCH  22  25
ENDBRANCH  20  22
ENDBRANCH  19  20
ENDBRANCH  18  19
ENDBRANCH  16  18
ENDBRANCH   1  16
TORSDOF 7
ENDMDL
MODEL 6
REMARK VINA RESULT:      -6.7      1.415      2.054
REMARK  Name = 
REMARK  10 active torsions:
REMARK  status: ('A' for Active; 'I' for Inactive)
REMARK    1  A    between atoms: C_1  and  C_2
REMARK    2  A    between atoms: C_2  and  C_3
REMARK    3  A    between atoms: C_3  and  C_4
REMARK    4  A    between atoms: C_3  and  N_5
REMARK    5  A    between atoms: N_5  and  C_6
REMARK    6  A    between atoms: N_5  and  C_7
REMARK    7  A    between atoms: C_7  and  C_8
REMARK    8  A    between atoms: C_8  and  N_9
REMARK    9  A    between atoms: N_9  and  C_10
REMARK   10  A    between atoms: C_13  and  C_14
REMARK                            x       y       z     vdW  Elec       q    Type
REMARK                         _______ _______ _______ _____ _____    ______ ____
ROOT
ATOM      1  C   UNL     1       7.611   7.182  18.212  0.00  0.00    +0.000 A 
ATOM      2  N   UNL     1       6.802   7.517  17.183  0.00  0.00    +0.000 NA
ATOM      3  C   UNL     1       5.835   6.636  16.816  0.00  0.00    +0.000 A 
ATOM      4  C   UNL     1       5.599   5.423  17.450  0.00  0.00    +0.000 A 
ATOM      5  C   UNL     1       6.468   5.058  18.473  0.00  0.00    +0.000 A 
ATOM      6  C   UNL     1       7.472   5.944  18.863  0.00  0.00    +0.000 A 
ATOM      7 CL   UNL     1       8.460   5.502  20.212  0.00  0.00    +0.000 Cl
ENDROOT
BRANCH   4   8
ATOM      8  C   UNL     1       4.549   4.536  16.913  0.00  0.00    +0.000 C 
ATOM      9  O   UNL     1       4.843   3.861  15.929  0.00  0.00    +0.000 OA
ATOM     10  N   UNL     1       3.299   4.436  17.510  0.00  0.00    +0.000 N 
ATOM     11  C   UNL     1       2.686   5.307  18.523  0.00  0.00    +0.000 C 
ATOM     12  C   UNL     1       2.283   4.464  19.745  0.00  0.00    +0.000 C 
ATOM     13  O   UNL     1       1.411   3.386  19.360  0.00  0.00    +0.000 OA
ATOM     14  C   UNL     1       2.034   2.533  18.380  0.00  0.00    +0.000 C 
ATOM     15  C   UNL     1       2.423   3.326  17.127  0.00  0.00    +0.000 C 
ENDBRANCH   4   8
BRANCH   1  16
ATOM     16  N   UNL     1       8.621   8.073  18.589  0.00  0.00    +0.000 N 
ATOM     17  H   UNL     1       8.887   7.962  19.559  0.00  0.00    +0.000 HD
BRANCH  16  18
ATOM     18  C   UNL     1       8.455   9.475  18.188  0.00  0.00    +0.000 C 
BRANCH  18  19
ATOM     19  C   UNL     1       9.281  10.516  19.003  0.00  0.00    +0.000 C 
BRANCH  19  20
ATOM     20  N   UNL     1      10.422  11.243  18.372  0.00  0.00    +0.000 NA
ATOM     21  C   UNL     1      11.494  11.552  19.306  0.00  0.00    +0.000 C 
BRANCH  20  22
ATOM     22  C   UNL     1       9.950  12.447  17.630  0.00  0.00    +0.000 C 
ATOM     23  C   UNL     1       9.093  13.421  18.467  0.00  0.00    +0.000 C 
BRANCH  22  25
ATOM     24  C   UNL     1      10.997  14.780  17.207  0.00  0.00    +0.000 C 
ATOM     25  C   UNL     1      11.086  13.279  16.974  0.00  0.00    +0.000 C 
ENDBRANCH  22  25
ENDBRANCH  20  22
ENDBRANCH  19  20
ENDBRANCH  18  19
ENDBRANCH  16  18
ENDBRANCH   1  16
TORSDOF 7
ENDMDL
MODEL 7
REMARK VINA RESULT:      -6.6      4.604      7.308
REMARK  Name = 
REMARK  10 active torsions:
REMARK  status: ('A' for Active; 'I' for Inactive)
REMARK    1  A    between atoms: C_1  and  C_2
REMARK    2  A    between atoms: C_2  and  C_3
REMARK    3  A    between atoms: C_3  and  C_4
REMARK    4  A    between atoms: C_3  and  N_5
REMARK    5  A    between atoms: N_5  and  C_6
REMARK    6  A    between atoms: N_5  and  C_7
REMARK    7  A    between atoms: C_7  and  C_8
REMARK    8  A    between atoms: C_8  and  N_9
REMARK    9  A    between atoms: N_9  and  C_10
REMARK   10  A    between atoms: C_13  and  C_14
REMARK                            x       y       z     vdW  Elec       q    Type
REMARK                         _______ _______ _______ _____ _____    ______ ____
ROOT
ATOM      1  C   UNL     1       2.204   6.010  20.111  0.00  0.00    +0.000 A 
ATOM      2  N   UNL     1       2.493   6.623  18.941  0.00  0.00    +0.000 NA
ATOM      3  C   UNL     1       3.125   5.901  17.980  0.00  0.00    +0.000 A 
ATOM      4  C   UNL     1       3.465   4.560  18.104  0.00  0.00    +0.000 A 
ATOM      5  C   UNL     1       3.214   3.949  19.328  0.00  0.00    +0.000 A 
ATOM      6  C   UNL     1       2.573   4.673  20.332  0.00  0.00    +0.000 A 
ATOM      7 CL   UNL     1       2.178   3.844  21.799  0.00  0.00    +0.000 Cl
ENDROOT
BRANCH   4   8
ATOM      8  C   UNL     1       4.198   3.911  17.000  0.00  0.00    +0.000 C 
ATOM      9  O   UNL     1       3.563   3.129  16.296  0.00  0.00    +0.000 OA
ATOM     10  N   UNL     1       5.532   4.195  16.740  0.00  0.00    +0.000 N 
ATOM     11  C   UNL     1       6.509   4.901  17.584  0.00  0.00    +0.000 C 
ATOM     12  C   UNL     1       7.090   6.092  16.803  0.00  0.00    +0.000 C 
ATOM     13  O   UNL     1       7.667   5.658  15.558  0.00  0.00    +0.000 OA
ATOM     14  C   UNL     1       6.692   4.984  14.738  0.00  0.00    +0.000 C 
ATOM     15  C   UNL     1       6.108   3.767  15.463  0.00  0.00    +0.000 C 
ENDBRANCH   4   8
BRANCH   1  16
ATOM     16  N   UNL     1       1.569   6.748  21.115  0.00  0.00    +0.000 N 
ATOM     17  H   UNL     1       0.667   6.362  21.362  0.00  0.00    +0.000 HD
BRANCH  16  18
ATOM     18  C   UNL     1       1.554   8.207  20.961  0.00  0.00    +0.000 C 
BRANCH  18  19
ATOM     19  C   UNL     1       0.246   8.924  21.413  0.00  0.00    +0.000 C 
BRANCH  19  20
ATOM     20  N   UNL     1      -0.394   9.957  20.546  0.00  0.00    +0.000 NA
ATOM     21  C   UNL     1       0.328  10.194  19.305  0.00  0.00    +0.000 C 
BRANCH  20  22
ATOM     22  C   UNL     1      -0.649  11.215  21.303  0.00  0.00    +0.000 C 
ATOM     23  C   UNL     1      -1.673  12.164  20.643  0.00  0.00    +0.000 C 
BRANCH  22  25
ATOM     24  C   UNL     1      -2.253  11.884  23.227  0.00  0.00    +0.000 C 
ATOM     25  C   UNL     1      -1.103  10.997  22.772  0.00  0.00    +0.000 C 
ENDBRANCH  22  25
ENDBRANCH  20  22
ENDBRANCH  19  20
ENDBRANCH  18  19
ENDBRANCH  16  18
ENDBRANCH   1  16
TORSDOF 7
ENDMDL
MODEL 8
REMARK VINA RESULT:      -6.6      1.340      1.608
REMARK  Name = 
REMARK  10 active torsions:
REMARK  status: ('A' for Active; 'I' for Inactive)
REMARK    1  A    between atoms: C_1  and  C_2
REMARK    2  A    between atoms: C_2  and  C_3
REMARK    3  A    between atoms: C_3  and  C_4
REMARK    4  A    between atoms: C_3  and  N_5
REMARK    5  A    between atoms: N_5  and  C_6
REMARK    6  A    between atoms: N_5  and  C_7
REMARK    7  A    between atoms: C_7  and  C_8
REMARK    8  A    between atoms: C_8  and  N_9
REMARK    9  A    between atoms: N_9  and  C_10
REMARK   10  A    between atoms: C_13  and  C_14
REMARK                            x       y       z     vdW  Elec       q    Type
REMARK                         _______ _______ _______ _____ _____    ______ ____
ROOT
ATOM      1  C   UNL     1       7.695   7.136  18.271  0.00  0.00    +0.000 A 
ATOM      2  N   UNL     1       6.914   7.506  17.232  0.00  0.00    +0.000 NA
ATOM      3  C   UNL     1       5.915   6.668  16.852  0.00  0.00    +0.000 A 
ATOM      4  C   UNL     1       5.618   5.467  17.482  0.00  0.00    +0.000 A 
ATOM      5  C   UNL     1       6.457   5.064  18.515  0.00  0.00    +0.000 A 
ATOM      6  C   UNL     1       7.494   5.905  18.918  0.00  0.00    +0.000 A 
ATOM      7 CL   UNL     1       8.445   5.420  20.280  0.00  0.00    +0.000 Cl
ENDROOT
BRANCH   4   8
ATOM      8  C   UNL     1       4.537   4.627  16.930  0.00  0.00    +0.000 C 
ATOM      9  O   UNL     1       4.743   4.104  15.838  0.00  0.00    +0.000 OA
ATOM     10  N   UNL     1       3.356   4.403  17.626  0.00  0.00    +0.000 N 
ATOM     11  C   UNL     1       2.831   5.106  18.807  0.00  0.00    +0.000 C 
ATOM     12  C   UNL     1       2.571   4.089  19.931  0.00  0.00    +0.000 C 
ATOM     13  O   UNL     1       1.686   3.046  19.487  0.00  0.00    +0.000 OA
ATOM     14  C   UNL     1       2.225   2.357  18.340  0.00  0.00    +0.000 C 
ATOM     15  C   UNL     1       2.468   3.327  17.179  0.00  0.00    +0.000 C 
ENDBRANCH   4   8
BRANCH   1  16
ATOM     16  N   UNL     1       8.738   7.982  18.661  0.00  0.00    +0.000 N 
ATOM     17  H   UNL     1       9.068   7.777  19.596  0.00  0.00    +0.000 HD
BRANCH  16  18
ATOM     18  C   UNL     1       8.562   9.416  18.408  0.00  0.00    +0.000 C 
BRANCH  18  19
ATOM     19  C   UNL     1       9.147  10.373  19.491  0.00  0.00    +0.000 C 
BRANCH  19  20
ATOM     20  N   UNL     1       9.494  11.784  19.150  0.00  0.00    +0.000 NA
ATOM     21  C   UNL     1       8.955  12.216  17.869  0.00  0.00    +0.000 C 
BRANCH  20  22
ATOM     22  C   UNL     1      10.963  12.020  19.256  0.00  0.00    +0.000 C 
ATOM     23  C   UNL     1      11.724  11.935  17.915  0.00  0.00    +0.000 C 
BRANCH  22  25
ATOM     24  C   UNL     1      11.797  14.455  18.953  0.00  0.00    +0.000 C 
ATOM     25  C   UNL     1      11.348  13.369  19.920  0.00  0.00    +0.000 C 
ENDBRANCH  22  25
ENDBRANCH  20  22
ENDBRANCH  19  20
ENDBRANCH  18  19
ENDBRANCH  16  18
ENDBRANCH   1  16
TORSDOF 7
ENDMDL
MODEL 9
REMARK VINA RESULT:      -6.5      1.291      1.649
REMARK  Name = 
REMARK  10 active torsions:
REMARK  status: ('A' for Active; 'I' for Inactive)
REMARK    1  A    between atoms: C_1  and  C_2
REMARK    2  A    between atoms: C_2  and  C_3
REMARK    3  A    between atoms: C_3  and  C_4
REMARK    4  A    between atoms: C_3  and  N_5
REMARK    5  A    between atoms: N_5  and  C_6
REMARK    6  A    between atoms: N_5  and  C_7
REMARK    7  A    between atoms: C_7  and  C_8
REMARK    8  A    between atoms: C_8  and  N_9
REMARK    9  A    between atoms: N_9  and  C_10
REMARK   10  A    between atoms: C_13  and  C_14
REMARK                            x       y       z     vdW  Elec       q    Type
REMARK                         _______ _______ _______ _____ _____    ______ ____
ROOT
ATOM      1  C   UNL     1       7.611   7.154  18.225  0.00  0.00    +0.000 A 
ATOM      2  N   UNL     1       6.806   7.496  17.195  0.00  0.00    +0.000 NA
ATOM      3  C   UNL     1       5.834   6.622  16.826  0.00  0.00    +0.000 A 
ATOM      4  C   UNL     1       5.588   5.411  17.459  0.00  0.00    +0.000 A 
ATOM      5  C   UNL     1       6.452   5.039  18.483  0.00  0.00    +0.000 A 
ATOM      6  C   UNL     1       7.462   5.916  18.875  0.00  0.00    +0.000 A 
ATOM      7 CL   UNL     1       8.445   5.466  20.226  0.00  0.00    +0.000 Cl
ENDROOT
BRANCH   4   8
ATOM      8  C   UNL     1       4.532   4.532  16.919  0.00  0.00    +0.000 C 
ATOM      9  O   UNL     1       4.773   3.962  15.858  0.00  0.00    +0.000 OA
ATOM     10  N   UNL     1       3.335   4.326  17.593  0.00  0.00    +0.000 N 
ATOM     11  C   UNL     1       2.770   5.076  18.724  0.00  0.00    +0.000 C 
ATOM     12  C   UNL     1       2.492   4.110  19.888  0.00  0.00    +0.000 C 
ATOM     13  O   UNL     1       1.631   3.036  19.470  0.00  0.00    +0.000 OA
ATOM     14  C   UNL     1       2.208   2.302  18.372  0.00  0.00    +0.000 C 
ATOM     15  C   UNL     1       2.472   3.219  17.173  0.00  0.00    +0.000 C 
ENDBRANCH   4   8
BRANCH   1  16
ATOM     16  N   UNL     1       8.627   8.037  18.604  0.00  0.00    +0.000 N 
ATOM     17  H   UNL     1       8.907   7.907  19.568  0.00  0.00    +0.000 HD
BRANCH  16  18
ATOM     18  C   UNL     1       8.457   9.446  18.233  0.00  0.00    +0.000 C 
BRANCH  18  19
ATOM     19  C   UNL     1       9.385  10.460  18.970  0.00  0.00    +0.000 C 
BRANCH  19  20
ATOM     20  N   UNL     1      10.091  11.534  18.212  0.00  0.00    +0.000 NA
ATOM     21  C   UNL     1      11.518  11.593  18.492  0.00  0.00    +0.000 C 
BRANCH  20  22
ATOM     22  C   UNL     1       9.421  12.853  18.393  0.00  0.00    +0.000 C 
ATOM     23  C   UNL     1       8.160  13.055  17.526  0.00  0.00    +0.000 C 
BRANCH  22  25
ATOM     24  C   UNL     1       9.864  14.258  20.526  0.00  0.00    +0.000 C 
ATOM     25  C   UNL     1       9.028  13.175  19.861  0.00  0.00    +0.000 C 
ENDBRANCH  22  25
ENDBRANCH  20  22
ENDBRANCH  19  20
ENDBRANCH  18  19
ENDBRANCH  16  18
ENDBRANCH   1  16
TORSDOF 7
ENDMDL
