MODEL 1
REMARK VINA RESULT:      -7.5      0.000      0.000
REMARK  Name = 
REMARK  6 active torsions:
REMARK  status: ('A' for Active; 'I' for Inactive)
REMARK    1  A    between atoms: N_1  and  S_2
REMARK    2  A    between atoms: S_2  and  C_5
REMARK    3  A    between atoms: C_8  and  C_9
REMARK    4  A    between atoms: C_10  and  C_11
REMARK    5  A    between atoms: C_14  and  O_15
REMARK    6  A    between atoms: C_16  and  O_17
REMARK                            x       y       z     vdW  Elec       q    Type
REMARK                         _______ _______ _______ _____ _____    ______ ____
ROOT
ATOM      1  C   UNL     1      10.237  13.469  18.116  0.00  0.00    +0.000 A 
ATOM      2  C   UNL     1       8.965  13.115  17.668  0.00  0.00    +0.000 A 
ATOM      3  C   UNL     1       8.515  11.803  17.847  0.00  0.00    +0.000 A 
ATOM      4  C   UNL     1       9.333  10.837  18.456  0.00  0.00    +0.000 A 
ATOM      5  C   UNL     1      10.594  11.222  18.926  0.00  0.00    +0.000 A 
ATOM      6  C   UNL     1      11.050  12.532  18.757  0.00  0.00    +0.000 A 
ENDROOT
BRANCH   1   7
ATOM      7  S   UNL     1      10.826  15.121  17.878  0.00  0.00    +0.000 S 
ATOM      8  O   UNL     1      11.793  15.414  18.912  0.00  0.00    +0.000 OA
ATOM      9  O   UNL     1       9.718  15.987  17.577  0.00  0.00    +0.000 OA
BRANCH   7  10
ATOM     10  N   UNL     1      11.683  14.978  16.436  0.00  0.00    +0.000 NA
ATOM     11  H   UNL     1      12.675  15.136  16.625  0.00  0.00    +0.000 HD
ATOM     12  H   UNL     1      11.302  15.606  15.728  0.00  0.00    +0.000 HD
ENDBRANCH   7  10
ENDBRANCH   1   7
BRANCH   4  13
ATOM     13  C   UNL     1       8.819   9.462  18.575  0.00  0.00    +0.000 C 
ATOM     14  C   UNL     1       8.080   8.825  17.649  0.00  0.00    +0.000 C 
BRANCH  14  15
ATOM     15  C   UNL     1       7.480   7.502  17.878  0.00  0.00    +0.000 A 
ATOM     16  C   UNL     1       8.099   6.614  18.773  0.00  0.00    +0.000 A 
ATOM     17  C   UNL     1       7.582   5.329  18.981  0.00  0.00    +0.000 A 
ATOM     18  C   UNL     1       6.448   4.935  18.282  0.00  0.00    +0.000 A 
ATOM     19  C   UNL     1       5.846   5.801  17.374  0.00  0.00    +0.000 A 
ATOM     20  C   UNL     1       6.354   7.074  17.162  0.00  0.00    +0.000 A 
BRANCH  18  21
ATOM     21  O   UNL     1       5.884   3.702  18.451  0.00  0.00    +0.000 OA
ATOM     22  H   UNL     1       5.977   3.457  19.388  0.00  0.00    +0.000 HD
ENDBRANCH  18  21
BRANCH  19  23
ATOM     23  O   UNL     1       4.747   5.402  16.670  0.00  0.00    +0.000 OA
ATOM     24  H   UNL     1       4.106   6.133  16.779  0.00  0.00    +0.000 HD
ENDBRANCH  19  23
ENDBRANCH  14  15
ENDBRANCH   4  13
TORSDOF 6
ENDMDL
MODEL 2
REMARK VINA RESULT:      -7.4      4.327      8.748
REMARK  Name = 
REMARK  6 active torsions:
REMARK  status: ('A' for Active; 'I' for Inactive)
REMARK    1  A    between atoms: N_1  and  S_2
REMARK    2  A    between atoms: S_2  and  C_5
REMARK    3  A    between atoms: C_8  and  C_9
REMARK    4  A    between atoms: C_10  and  C_11
REMARK    5  A    between atoms: C_14  and  O_15
REMARK    6  A    between atoms: C_16  and  O_17
REMARK                            x       y       z     vdW  Elec       q    Type
REMARK                         _______ _______ _______ _____ _____    ______ ____
ROOT
ATOM      1  C   UNL     1       5.900   5.549  17.964  0.00  0.00    +0.000 A 
ATOM      2  C   UNL     1       5.682   6.665  17.157  0.00  0.00    +0.000 A 
ATOM      3  C   UNL     1       6.602   7.718  17.178  0.00  0.00    +0.000 A 
ATOM      4  C   UNL     1       7.729   7.673  18.014  0.00  0.00    +0.000 A 
ATOM      5  C   UNL     1       7.945   6.530  18.795  0.00  0.00    +0.000 A 
ATOM      6  C   UNL     1       7.035   5.470  18.775  0.00  0.00    +0.000 A 
ENDROOT
BRANCH   1   7
ATOM      7  S   UNL     1       4.733   4.218  17.960  0.00  0.00    +0.000 S 
ATOM      8  O   UNL     1       4.802   3.556  16.677  0.00  0.00    +0.000 OA
ATOM      9  O   UNL     1       3.497   4.661  18.546  0.00  0.00    +0.000 OA
BRANCH   7  10
ATOM     10  N   UNL     1       5.407   3.166  19.089  0.00  0.00    +0.000 NA
ATOM     11  H   UNL     1       5.545   2.254  18.648  0.00  0.00    +0.000 HD
ATOM     12  H   UNL     1       4.830   3.124  19.930  0.00  0.00    +0.000 HD
ENDBRANCH   7  10
ENDBRANCH   1   7
BRANCH   4  13
ATOM     13  C   UNL     1       8.637   8.833  18.027  0.00  0.00    +0.000 C 
ATOM     14  C   UNL     1       8.969   9.549  19.116  0.00  0.00    +0.000 C 
BRANCH  14  15
ATOM     15  C   UNL     1       9.772  10.779  19.049  0.00  0.00    +0.000 A 
ATOM     16  C   UNL     1       9.992  11.520  20.222  0.00  0.00    +0.000 A 
ATOM     17  C   UNL     1      10.712  12.720  20.188  0.00  0.00    +0.000 A 
ATOM     18  C   UNL     1      11.204  13.180  18.973  0.00  0.00    +0.000 A 
ATOM     19  C   UNL     1      10.967  12.465  17.803  0.00  0.00    +0.000 A 
ATOM     20  C   UNL     1      10.252  11.276  17.830  0.00  0.00    +0.000 A 
BRANCH  18  21
ATOM     21  O   UNL     1      11.928  14.334  18.874  0.00  0.00    +0.000 OA
ATOM     22  H   UNL     1      12.788  14.186  19.304  0.00  0.00    +0.000 HD
ENDBRANCH  18  21
BRANCH  19  23
ATOM     23  O   UNL     1      11.430  12.931  16.607  0.00  0.00    +0.000 OA
ATOM     24  H   UNL     1      10.845  13.684  16.393  0.00  0.00    +0.000 HD
ENDBRANCH  19  23
ENDBRANCH  14  15
ENDBRANCH   4  13
TORSDOF 6
ENDMDL
MODEL 3
REMARK VINA RESULT:      -7.3      4.276      8.791
REMARK  Name = 
REMARK  6 active torsions:
REMARK  status: ('A' for Active; 'I' for Inactive)
REMARK    1  A    between atoms: N_1  and  S_2
REMARK    2  A    between atoms: S_2  and  C_5
REMARK    3  A    between atoms: C_8  and  C_9
REMARK    4  A    between atoms: C_10  and  C_11
REMARK    5  A    between atoms: C_14  and  O_15
REMARK    6  A    between atoms: C_16  and  O_17
REMARK                            x       y       z     vdW  Elec       q    Type
REMARK                         _______ _______ _______ _____ _____    ______ ____
ROOT
ATOM      1  C   UNL     1       5.760   5.294  18.194  0.00  0.00    +0.000 A 
ATOM      2  C   UNL     1       5.326   6.337  17.378  0.00  0.00    +0.000 A 
ATOM      3  C   UNL     1       6.162   7.438  17.167  0.00  0.00    +0.000 A 
ATOM      4  C   UNL     1       7.423   7.513  17.781  0.00  0.00    +0.000 A 
ATOM      5  C   UNL     1       7.851   6.441  18.574  0.00  0.00    +0.000 A 
ATOM      6  C   UNL     1       7.025   5.333  18.784  0.00  0.00    +0.000 A 
ENDROOT
BRANCH   1   7
ATOM      7  S   UNL     1       4.703   3.904  18.484  0.00  0.00    +0.000 S 
ATOM      8  O   UNL     1       5.205   3.181  19.630  0.00  0.00    +0.000 OA
ATOM      9  O   UNL     1       4.393   3.267  17.232  0.00  0.00    +0.000 OA
BRANCH   7  10
ATOM     10  N   UNL     1       3.274   4.652  18.967  0.00  0.00    +0.000 NA
ATOM     11  H   UNL     1       3.121   5.478  18.384  0.00  0.00    +0.000 HD
ATOM     12  H   UNL     1       3.297   4.861  19.965  0.00  0.00    +0.000 HD
ENDBRANCH   7  10
ENDBRANCH   1   7
BRANCH   4  13
ATOM     13  C   UNL     1       8.239   8.718  17.557  0.00  0.00    +0.000 C 
ATOM     14  C   UNL     1       8.616   9.590  18.510  0.00  0.00    +0.000 C 
BRANCH  14  15
ATOM     15  C   UNL     1       9.315  10.848  18.210  0.00  0.00    +0.000 A 
ATOM     16  C   UNL     1      10.713  10.901  18.329  0.00  0.00    +0.000 A 
ATOM     17  C   UNL     1      11.408  12.095  18.096  0.00  0.00    +0.000 A 
ATOM     18  C   UNL     1      10.696  13.236  17.750  0.00  0.00    +0.000 A 
ATOM     19  C   UNL     1       9.308  13.197  17.657  0.00  0.00    +0.000 A 
ATOM     20  C   UNL     1       8.614  12.018  17.889  0.00  0.00    +0.000 A 
BRANCH  18  21
ATOM     21  O   UNL     1      11.315  14.427  17.494  0.00  0.00    +0.000 OA
ATOM     22  H   UNL     1      10.718  14.961  16.943  0.00  0.00    +0.000 HD
ENDBRANCH  18  21
BRANCH  19  23
ATOM     23  O   UNL     1       8.608  14.325  17.342  0.00  0.00    +0.000 OA
ATOM     24  H   UNL     1       9.250  15.054  17.457  0.00  0.00    +0.000 HD
ENDBRANCH  19  23
ENDBRANCH  14  15
ENDBRANCH   4  13
TORSDOF 6
ENDMDL
MODEL 4
REMARK VINA RESULT:      -7.3      4.175      8.731
REMARK  Name = 
REMARK  6 active torsions:
REMARK  status: ('A' for Active; 'I' for Inactive)
REMARK    1  A    between atoms: N_1  and  S_2
REMARK    2  A    between atoms: S_2  and  C_5
REMARK    3  A    between atoms: C_8  and  C_9
REMARK    4  A    between atoms: C_10  and  C_11
REMARK    5  A    between atoms: C_14  and  O_15
REMARK    6  A    between atoms: C_16  and  O_17
REMARK                            x       y       z     vdW  Elec       q    Type
REMARK                         _______ _______ _______ _____ _____    ______ ____
ROOT
ATOM      1  C   UNL     1       5.948   5.542  17.912  0.00  0.00    +0.000 A 
ATOM      2  C   UNL     1       5.591   6.662  17.163  0.00  0.00    +0.000 A 
ATOM      3  C   UNL     1       6.430   7.782  17.160  0.00  0.00    +0.000 A 
ATOM      4  C   UNL     1       7.614   7.797  17.914  0.00  0.00    +0.000 A 
ATOM      5  C   UNL     1       7.968   6.650  18.636  0.00  0.00    +0.000 A 
ATOM      6  C   UNL     1       7.140   5.525  18.640  0.00  0.00    +0.000 A 
ENDROOT
BRANCH   1   7
ATOM      7  S   UNL     1       4.886   4.126  17.940  0.00  0.00    +0.000 S 
ATOM      8  O   UNL     1       3.546   4.555  17.609  0.00  0.00    +0.000 OA
ATOM      9  O   UNL     1       5.187   3.323  19.094  0.00  0.00    +0.000 OA
BRANCH   7  10
ATOM     10  N   UNL     1       5.454   3.243  16.624  0.00  0.00    +0.000 NA
ATOM     11  H   UNL     1       6.455   3.076  16.747  0.00  0.00    +0.000 HD
ATOM     12  H   UNL     1       5.228   3.717  15.749  0.00  0.00    +0.000 HD
ENDBRANCH   7  10
ENDBRANCH   1   7
BRANCH   4  13
ATOM     13  C   UNL     1       8.432   9.022  17.906  0.00  0.00    +0.000 C 
ATOM     14  C   UNL     1       8.972   9.603  18.993  0.00  0.00    +0.000 C 
BRANCH  14  15
ATOM     15  C   UNL     1       9.665  10.899  18.943  0.00  0.00    +0.000 A 
ATOM     16  C   UNL     1      10.622  11.203  19.926  0.00  0.00    +0.000 A 
ATOM     17  C   UNL     1      11.269  12.445  19.937  0.00  0.00    +0.000 A 
ATOM     18  C   UNL     1      10.948  13.384  18.966  0.00  0.00    +0.000 A 
ATOM     19  C   UNL     1       9.981  13.099  18.006  0.00  0.00    +0.000 A 
ATOM     20  C   UNL     1       9.336  11.871  17.990  0.00  0.00    +0.000 A 
BRANCH  18  21
ATOM     21  O   UNL     1      11.553  14.607  18.911  0.00  0.00    +0.000 OA
ATOM     22  H   UNL     1      12.044  14.735  19.742  0.00  0.00    +0.000 HD
ENDBRANCH  18  21
BRANCH  19  23
ATOM     23  O   UNL     1       9.649  14.032  17.067  0.00  0.00    +0.000 OA
ATOM     24  H   UNL     1       8.868  13.659  16.613  0.00  0.00    +0.000 HD
ENDBRANCH  19  23
ENDBRANCH  14  15
ENDBRANCH   4  13
TORSDOF 6
ENDMDL
MODEL 5
REMARK VINA RESULT:      -7.2      4.270      8.790
REMARK  Name = 
REMARK  6 active torsions:
REMARK  status: ('A' for Active; 'I' for Inactive)
REMARK    1  A    between atoms: N_1  and  S_2
REMARK    2  A    between atoms: S_2  and  C_5
REMARK    3  A    between atoms: C_8  and  C_9
REMARK    4  A    between atoms: C_10  and  C_11
REMARK    5  A    between atoms: C_14  and  O_15
REMARK    6  A    between atoms: C_16  and  O_17
REMARK                            x       y       z     vdW  Elec       q    Type
REMARK                         _______ _______ _______ _____ _____    ______ ____
ROOT
ATOM      1  C   UNL     1       5.932   5.613  17.788  0.00  0.00    +0.000 A 
ATOM      2  C   UNL     1       7.131   5.592  18.499  0.00  0.00    +0.000 A 
ATOM      3  C   UNL     1       7.928   6.740  18.534  0.00  0.00    +0.000 A 
ATOM      4  C   UNL     1       7.546   7.905  17.848  0.00  0.00    +0.000 A 
ATOM      5  C   UNL     1       6.324   7.914  17.165  0.00  0.00    +0.000 A 
ATOM      6  C   UNL     1       5.517   6.774  17.130  0.00  0.00    +0.000 A 
ENDROOT
BRANCH   1   7
ATOM      7  S   UNL     1       4.922   4.161  17.720  0.00  0.00    +0.000 S 
ATOM      8  O   UNL     1       5.261   3.426  16.523  0.00  0.00    +0.000 OA
ATOM      9  O   UNL     1       3.569   4.500  18.073  0.00  0.00    +0.000 OA
BRANCH   7  10
ATOM     10  N   UNL     1       5.510   3.271  19.023  0.00  0.00    +0.000 NA
ATOM     11  H   UNL     1       6.246   2.645  18.689  0.00  0.00    +0.000 HD
ATOM     12  H   UNL     1       4.749   2.783  19.497  0.00  0.00    +0.000 HD
ENDBRANCH   7  10
ENDBRANCH   1   7
BRANCH   4  13
ATOM     13  C   UNL     1       8.451   9.067  17.885  0.00  0.00    +0.000 C 
ATOM     14  C   UNL     1       8.959   9.621  19.001  0.00  0.00    +0.000 C 
BRANCH  14  15
ATOM     15  C   UNL     1       9.747  10.862  18.987  0.00  0.00    +0.000 A 
ATOM     16  C   UNL     1      10.281  11.349  20.192  0.00  0.00    +0.000 A 
ATOM     17  C   UNL     1      10.999  12.551  20.225  0.00  0.00    +0.000 A 
ATOM     18  C   UNL     1      11.172  13.268  19.048  0.00  0.00    +0.000 A 
ATOM     19  C   UNL     1      10.622  12.805  17.856  0.00  0.00    +0.000 A 
ATOM     20  C   UNL     1       9.909  11.616  17.817  0.00  0.00    +0.000 A 
BRANCH  18  21
ATOM     21  O   UNL     1      11.874  14.439  19.009  0.00  0.00    +0.000 OA
ATOM     22  H   UNL     1      11.243  15.170  19.117  0.00  0.00    +0.000 HD
ENDBRANCH  18  21
BRANCH  19  23
ATOM     23  O   UNL     1      10.772  13.524  16.706  0.00  0.00    +0.000 OA
ATOM     24  H   UNL     1      10.042  13.221  16.129  0.00  0.00    +0.000 HD
ENDBRANCH  19  23
ENDBRANCH  14  15
ENDBRANCH   4  13
TORSDOF 6
ENDMDL
MODEL 6
REMARK VINA RESULT:      -7.1      0.702      1.237
REMARK  Name = 
REMARK  6 active torsions:
REMARK  status: ('A' for Active; 'I' for Inactive)
REMARK    1  A    between atoms: N_1  and  S_2
REMARK    2  A    between atoms: S_2  and  C_5
REMARK    3  A    between atoms: C_8  and  C_9
REMARK    4  A    between atoms: C_10  and  C_11
REMARK    5  A    between atoms: C_14  and  O_15
REMARK    6  A    between atoms: C_16  and  O_17
REMARK                            x       y       z     vdW  Elec       q    Type
REMARK                         _______ _______ _______ _____ _____    ______ ____
ROOT
ATOM      1  C   UNL     1      10.420  13.489  18.856  0.00  0.00    +0.000 A 
ATOM      2  C   UNL     1      10.850  12.553  19.796  0.00  0.00    +0.000 A 
ATOM      3  C   UNL     1      10.369  11.241  19.728  0.00  0.00    +0.000 A 
ATOM      4  C   UNL     1       9.448  10.862  18.738  0.00  0.00    +0.000 A 
ATOM      5  C   UNL     1       9.052  11.810  17.786  0.00  0.00    +0.000 A 
ATOM      6  C   UNL     1       9.533  13.121  17.842  0.00  0.00    +0.000 A 
ENDROOT
BRANCH   1   7
ATOM      7  S   UNL     1      11.006  15.157  18.943  0.00  0.00    +0.000 S 
ATOM      8  O   UNL     1      12.262  15.162  19.658  0.00  0.00    +0.000 OA
ATOM      9  O   UNL     1       9.915  16.033  19.275  0.00  0.00    +0.000 OA
BRANCH   7  10
ATOM     10  N   UNL     1      11.362  15.482  17.330  0.00  0.00    +0.000 NA
ATOM     11  H   UNL     1      11.399  14.599  16.816  0.00  0.00    +0.000 HD
ATOM     12  H   UNL     1      12.221  16.029  17.255  0.00  0.00    +0.000 HD
ENDBRANCH   7  10
ENDBRANCH   1   7
BRANCH   4  13
ATOM     13  C   UNL     1       8.944   9.478  18.746  0.00  0.00    +0.000 C 
ATOM     14  C   UNL     1       8.163   8.929  17.798  0.00  0.00    +0.000 C 
BRANCH  14  15
ATOM     15  C   UNL     1       7.577   7.587  17.924  0.00  0.00    +0.000 A 
ATOM     16  C   UNL     1       8.100   6.697  18.877  0.00  0.00    +0.000 A 
ATOM     17  C   UNL     1       7.598   5.395  18.995  0.00  0.00    +0.000 A 
ATOM     18  C   UNL     1       6.577   4.985  18.148  0.00  0.00    +0.000 A 
ATOM     19  C   UNL     1       6.073   5.852  17.182  0.00  0.00    +0.000 A 
ATOM     20  C   UNL     1       6.567   7.143  17.060  0.00  0.00    +0.000 A 
BRANCH  18  21
ATOM     21  O   UNL     1       6.032   3.735  18.221  0.00  0.00    +0.000 OA
ATOM     22  H   UNL     1       6.383   3.212  17.480  0.00  0.00    +0.000 HD
ENDBRANCH  18  21
BRANCH  19  23
ATOM     23  O   UNL     1       5.087   5.439  16.334  0.00  0.00    +0.000 OA
ATOM     24  H   UNL     1       4.418   5.027  16.916  0.00  0.00    +0.000 HD
ENDBRANCH  19  23
ENDBRANCH  14  15
ENDBRANCH   4  13
TORSDOF 6
ENDMDL
MODEL 7
REMARK VINA RESULT:      -7.1      0.853      1.098
REMARK  Name = 
REMARK  6 active torsions:
REMARK  status: ('A' for Active; 'I' for Inactive)
REMARK    1  A    between atoms: N_1  and  S_2
REMARK    2  A    between atoms: S_2  and  C_5
REMARK    3  A    between atoms: C_8  and  C_9
REMARK    4  A    between atoms: C_10  and  C_11
REMARK    5  A    between atoms: C_14  and  O_15
REMARK    6  A    between atoms: C_16  and  O_17
REMARK                            x       y       z     vdW  Elec       q    Type
REMARK                         _______ _______ _______ _____ _____    ______ ____
ROOT
ATOM      1  C   UNL     1      10.246  13.658  17.914  0.00  0.00    +0.000 A 
ATOM      2  C   UNL     1       8.881  13.379  17.947  0.00  0.00    +0.000 A 
ATOM      3  C   UNL     1       8.454  12.062  18.149  0.00  0.00    +0.000 A 
ATOM      4  C   UNL     1       9.382  11.019  18.301  0.00  0.00    +0.000 A 
ATOM      5  C   UNL     1      10.748  11.326  18.295  0.00  0.00    +0.000 A 
ATOM      6  C   UNL     1      11.184  12.640  18.100  0.00  0.00    +0.000 A 
ENDROOT
BRANCH   1   7
ATOM      7  S   UNL     1      10.799  15.317  17.640  0.00  0.00    +0.000 S 
ATOM      8  O   UNL     1       9.655  16.127  17.291  0.00  0.00    +0.000 OA
ATOM      9  O   UNL     1      12.009  15.297  16.864  0.00  0.00    +0.000 OA
BRANCH   7  10
ATOM     10  N   UNL     1      11.273  15.783  19.187  0.00  0.00    +0.000 NA
ATOM     11  H   UNL     1      10.443  15.847  19.781  0.00  0.00    +0.000 HD
ATOM     12  H   UNL     1      11.812  16.649  19.153  0.00  0.00    +0.000 HD
ENDBRANCH   7  10
ENDBRANCH   1   7
BRANCH   4  13
ATOM     13  C   UNL     1       8.871   9.647  18.465  0.00  0.00    +0.000 C 
ATOM     14  C   UNL     1       8.159   8.968  17.548  0.00  0.00    +0.000 C 
BRANCH  14  15
ATOM     15  C   UNL     1       7.559   7.653  17.817  0.00  0.00    +0.000 A 
ATOM     16  C   UNL     1       8.162   6.803  18.759  0.00  0.00    +0.000 A 
ATOM     17  C   UNL     1       7.644   5.526  19.007  0.00  0.00    +0.000 A 
ATOM     18  C   UNL     1       6.526   5.100  18.303  0.00  0.00    +0.000 A 
ATOM     19  C   UNL     1       5.940   5.927  17.348  0.00  0.00    +0.000 A 
ATOM     20  C   UNL     1       6.449   7.192  17.096  0.00  0.00    +0.000 A 
BRANCH  18  21
ATOM     21  O   UNL     1       5.963   3.873  18.509  0.00  0.00    +0.000 OA
ATOM     22  H   UNL     1       6.277   3.278  17.806  0.00  0.00    +0.000 HD
ENDBRANCH  18  21
BRANCH  19  23
ATOM     23  O   UNL     1       4.857   5.497  16.639  0.00  0.00    +0.000 OA
ATOM     24  H   UNL     1       5.078   5.693  15.707  0.00  0.00    +0.000 HD
ENDBRANCH  19  23
ENDBRANCH  14  15
ENDBRANCH   4  13
TORSDOF 6
ENDMDL
MODEL 8
REMARK VINA RESULT:      -7.1      4.245      8.803
REMARK  Name = 
REMARK  6 active torsions:
REMARK  status: ('A' for Active; 'I' for Inactive)
REMARK    1  A    between atoms: N_1  and  S_2
REMARK    2  A    between atoms: S_2  and  C_5
REMARK    3  A    between atoms: C_8  and  C_9
REMARK    4  A    between atoms: C_10  and  C_11
REMARK    5  A    between atoms: C_14  and  O_15
REMARK    6  A    between atoms: C_16  and  O_17
REMARK                            x       y       z     vdW  Elec       q    Type
REMARK                         _______ _______ _______ _____ _____    ______ ____
ROOT
ATOM      1  C   UNL     1       5.981   5.579  17.972  0.00  0.00    +0.000 A 
ATOM      2  C   UNL     1       7.162   5.604  18.712  0.00  0.00    +0.000 A 
ATOM      3  C   UNL     1       7.956   6.755  18.699  0.00  0.00    +0.000 A 
ATOM      4  C   UNL     1       7.588   7.876  17.936  0.00  0.00    +0.000 A 
ATOM      5  C   UNL     1       6.383   7.840  17.224  0.00  0.00    +0.000 A 
ATOM      6  C   UNL     1       5.579   6.697  17.237  0.00  0.00    +0.000 A 
ENDROOT
BRANCH   1   7
ATOM      7  S   UNL     1       4.977   4.121  17.965  0.00  0.00    +0.000 S 
ATOM      8  O   UNL     1       5.176   3.425  19.216  0.00  0.00    +0.000 OA
ATOM      9  O   UNL     1       5.080   3.473  16.685  0.00  0.00    +0.000 OA
BRANCH   7  10
ATOM     10  N   UNL     1       3.424   4.771  18.010  0.00  0.00    +0.000 NA
ATOM     11  H   UNL     1       2.750   4.026  17.821  0.00  0.00    +0.000 HD
ATOM     12  H   UNL     1       3.346   5.559  17.366  0.00  0.00    +0.000 HD
ENDBRANCH   7  10
ENDBRANCH   1   7
BRANCH   4  13
ATOM     13  C   UNL     1       8.488   9.042  17.927  0.00  0.00    +0.000 C 
ATOM     14  C   UNL     1       9.077   9.578  19.010  0.00  0.00    +0.000 C 
BRANCH  14  15
ATOM     15  C   UNL     1       9.858  10.823  18.961  0.00  0.00    +0.000 A 
ATOM     16  C   UNL     1       9.969  11.609  20.119  0.00  0.00    +0.000 A 
ATOM     17  C   UNL     1      10.666  12.824  20.098  0.00  0.00    +0.000 A 
ATOM     18  C   UNL     1      11.245  13.251  18.910  0.00  0.00    +0.000 A 
ATOM     19  C   UNL     1      11.115  12.489  17.752  0.00  0.00    +0.000 A 
ATOM     20  C   UNL     1      10.425  11.286  17.766  0.00  0.00    +0.000 A 
BRANCH  18  21
ATOM     21  O   UNL     1      11.951  14.417  18.825  0.00  0.00    +0.000 OA
ATOM     22  H   UNL     1      12.004  14.667  17.887  0.00  0.00    +0.000 HD
ENDBRANCH  18  21
BRANCH  19  23
ATOM     23  O   UNL     1      11.663  12.923  16.580  0.00  0.00    +0.000 OA
ATOM     24  H   UNL     1      11.729  12.119  16.026  0.00  0.00    +0.000 HD
ENDBRANCH  19  23
ENDBRANCH  14  15
ENDBRANCH   4  13
TORSDOF 6
ENDMDL
MODEL 9
REMARK VINA RESULT:      -7.0      7.494      9.938
REMARK  Name = 
REMARK  6 active torsions:
REMARK  status: ('A' for Active; 'I' for Inactive)
REMARK    1  A    between atoms: N_1  and  S_2
REMARK    2  A    between atoms: S_2  and  C_5
REMARK    3  A    between atoms: C_8  and  C_9
REMARK    4  A    between atoms: C_10  and  C_11
REMARK    5  A    between atoms: C_14  and  O_15
REMARK    6  A    between atoms: C_16  and  O_17
REMARK                            x       y       z     vdW  Elec       q    Type
REMARK                         _______ _______ _______ _____ _____    ______ ____
ROOT
ATOM      1  C   UNL     1       4.789   5.839  18.480  0.00  0.00    +0.000 A 
ATOM      2  C   UNL     1       4.744   6.798  17.470  0.00  0.00    +0.000 A 
ATOM      3  C   UNL     1       3.597   7.584  17.320  0.00  0.00    +0.000 A 
ATOM      4  C   UNL     1       2.486   7.407  18.161  0.00  0.00    +0.000 A 
ATOM      5  C   UNL     1       2.564   6.458  19.188  0.00  0.00    +0.000 A 
ATOM      6  C   UNL     1       3.709   5.673  19.350  0.00  0.00    +0.000 A 
ENDROOT
BRANCH   1   7
ATOM      7  S   UNL     1       6.227   4.825  18.668  0.00  0.00    +0.000 S 
ATOM      8  O   UNL     1       6.969   5.294  19.816  0.00  0.00    +0.000 OA
ATOM      9  O   UNL     1       6.833   4.607  17.382  0.00  0.00    +0.000 OA
BRANCH   7  10
ATOM     10  N   UNL     1       5.552   3.343  19.097  0.00  0.00    +0.000 NA
ATOM     11  H   UNL     1       4.537   3.450  19.160  0.00  0.00    +0.000 HD
ATOM     12  H   UNL     1       5.975   2.990  19.956  0.00  0.00    +0.000 HD
ENDBRANCH   7  10
ENDBRANCH   1   7
BRANCH   4  13
ATOM     13  C   UNL     1       1.290   8.233  17.924  0.00  0.00    +0.000 C 
ATOM     14  C   UNL     1       1.089   9.468  18.418  0.00  0.00    +0.000 C 
BRANCH  14  15
ATOM     15  C   UNL     1      -0.180  10.193  18.261  0.00  0.00    +0.000 A 
ATOM     16  C   UNL     1      -1.170   9.669  17.414  0.00  0.00    +0.000 A 
ATOM     17  C   UNL     1      -2.373  10.355  17.205  0.00  0.00    +0.000 A 
ATOM     18  C   UNL     1      -2.577  11.572  17.841  0.00  0.00    +0.000 A 
ATOM     19  C   UNL     1      -1.589  12.111  18.661  0.00  0.00    +0.000 A 
ATOM     20  C   UNL     1      -0.395  11.437  18.871  0.00  0.00    +0.000 A 
BRANCH  18  21
ATOM     21  O   UNL     1      -3.733  12.283  17.693  0.00  0.00    +0.000 OA
ATOM     22  H   UNL     1      -3.525  13.224  17.827  0.00  0.00    +0.000 HD
ENDBRANCH  18  21
BRANCH  19  23
ATOM     23  O   UNL     1      -1.781  13.319  19.266  0.00  0.00    +0.000 OA
ATOM     24  H   UNL     1      -0.979  13.833  19.049  0.00  0.00    +0.000 HD
ENDBRANCH  19  23
ENDBRANCH  14  15
ENDBRANCH   4  13
TORSDOF 6
ENDMDL
