MODEL 1
REMARK VINA RESULT:      -8.0      0.000      0.000
REMARK  Name = 
REMARK  2 active torsions:
REMARK  status: ('A' for Active; 'I' for Inactive)
REMARK    1  A    between atoms: C_7  and  C_8
REMARK    2  A    between atoms: C_11  and  C_12
REMARK                            x       y       z     vdW  Elec       q    Type
REMARK                         _______ _______ _______ _____ _____    ______ ____
ROOT
ATOM      1  C   UNL     1       2.277   7.597  19.366  0.00  0.00    +0.000 A 
ATOM      2  C   UNL     1       2.624   6.336  19.870  0.00  0.00    +0.000 A 
ATOM      3  C   UNL     1       3.504   5.504  19.177  0.00  0.00    +0.000 A 
ATOM      4  C   UNL     1       4.046   5.903  17.949  0.00  0.00    +0.000 A 
ATOM      5  C   UNL     1       3.696   7.160  17.439  0.00  0.00    +0.000 A 
ATOM      6  C   UNL     1       2.822   7.997  18.139  0.00  0.00    +0.000 A 
ENDROOT
BRANCH   1  13
ATOM      7 CL   UNL     1      -2.337  12.970  22.165  0.00  0.00    +0.000 Cl
ATOM      8  C   UNL     1      -1.332  11.579  22.008  0.00  0.00    +0.000 A 
ATOM      9  C   UNL     1      -1.107  10.769  23.124  0.00  0.00    +0.000 A 
ATOM     10  C   UNL     1      -0.299   9.628  23.026  0.00  0.00    +0.000 A 
ATOM     11  C   UNL     1       0.278   9.323  21.786  0.00  0.00    +0.000 A 
ATOM     12  N   UNL     1       1.095   8.283  21.436  0.00  0.00    +0.000 NA
ATOM     13  C   UNL     1       1.389   8.453  20.158  0.00  0.00    +0.000 A 
ATOM     14  N   UNL     1       0.749   9.575  19.676  0.00  0.00    +0.000 N 
ATOM     15  C   UNL     1       0.040  10.151  20.698  0.00  0.00    +0.000 A 
ATOM     16  C   UNL     1      -0.762  11.293  20.762  0.00  0.00    +0.000 A 
ATOM     17  H   UNL     1       0.806   9.925  18.734  0.00  0.00    +0.000 HD
ENDBRANCH   1  13
BRANCH   4  18
ATOM     18  C   UNL     1       5.002   5.008  17.192  0.00  0.00    +0.000 C 
ATOM     19  C   UNL     1       6.464   5.161  17.691  0.00  0.00    +0.000 C 
ATOM     20  N   UNL     1       7.421   4.354  16.902  0.00  0.00    +0.000 NA
ATOM     21  C   UNL     1       7.243   4.697  15.478  0.00  0.00    +0.000 C 
ATOM     22  C   UNL     1       5.787   4.526  15.017  0.00  0.00    +0.000 C 
ATOM     23  O   UNL     1       4.897   5.333  15.795  0.00  0.00    +0.000 OA
ATOM     24  H   UNL     1       7.194   3.369  17.031  0.00  0.00    +0.000 HD
ENDBRANCH   4  18
TORSDOF 2
ENDMDL
MODEL 2
REMARK VINA RESULT:      -7.9      0.358      1.086
REMARK  Name = 
REMARK  2 active torsions:
REMARK  status: ('A' for Active; 'I' for Inactive)
REMARK    1  A    between atoms: C_7  and  C_8
REMARK    2  A    between atoms: C_11  and  C_12
REMARK                            x       y       z     vdW  Elec       q    Type
REMARK                         _______ _______ _______ _____ _____    ______ ____
ROOT
ATOM      1  C   UNL     1       2.123   7.741  19.473  0.00  0.00    +0.000 A 
ATOM      2  C   UNL     1       2.641   8.208  18.257  0.00  0.00    +0.000 A 
ATOM      3  C   UNL     1       3.455   7.397  17.465  0.00  0.00    +0.000 A 
ATOM      4  C   UNL     1       3.790   6.101  17.878  0.00  0.00    +0.000 A 
ATOM      5  C   UNL     1       3.279   5.634  19.097  0.00  0.00    +0.000 A 
ATOM      6  C   UNL     1       2.456   6.444  19.885  0.00  0.00    +0.000 A 
ENDROOT
BRANCH   1  13
ATOM      7 CL   UNL     1      -2.482  13.183  22.150  0.00  0.00    +0.000 Cl
ATOM      8  C   UNL     1      -1.485  11.784  22.022  0.00  0.00    +0.000 A 
ATOM      9  C   UNL     1      -1.279  10.987  23.151  0.00  0.00    +0.000 A 
ATOM     10  C   UNL     1      -0.477   9.839  23.077  0.00  0.00    +0.000 A 
ATOM     11  C   UNL     1       0.110   9.513  21.847  0.00  0.00    +0.000 A 
ATOM     12  N   UNL     1       0.924   8.464  21.520  0.00  0.00    +0.000 NA
ATOM     13  C   UNL     1       1.232   8.615  20.243  0.00  0.00    +0.000 A 
ATOM     14  N   UNL     1       0.605   9.735  19.740  0.00  0.00    +0.000 N 
ATOM     15  C   UNL     1      -0.110  10.328  20.746  0.00  0.00    +0.000 A 
ATOM     16  C   UNL     1      -0.904  11.477  20.787  0.00  0.00    +0.000 A 
ATOM     17  H   UNL     1       0.676  10.071  18.794  0.00  0.00    +0.000 HD
ENDBRANCH   1  13
BRANCH   4  18
ATOM     18  C   UNL     1       4.669   5.214  17.026  0.00  0.00    +0.000 C 
ATOM     19  C   UNL     1       5.983   4.823  17.753  0.00  0.00    +0.000 C 
ATOM     20  N   UNL     1       6.890   4.025  16.899  0.00  0.00    +0.000 NA
ATOM     21  C   UNL     1       7.108   4.768  15.643  0.00  0.00    +0.000 C 
ATOM     22  C   UNL     1       5.787   5.131  14.946  0.00  0.00    +0.000 C 
ATOM     23  O   UNL     1       4.946   5.914  15.801  0.00  0.00    +0.000 OA
ATOM     24  H   UNL     1       6.431   3.142  16.679  0.00  0.00    +0.000 HD
ENDBRANCH   4  18
TORSDOF 2
ENDMDL
MODEL 3
REMARK VINA RESULT:      -7.7      0.977      1.635
REMARK  Name = 
REMARK  2 active torsions:
REMARK  status: ('A' for Active; 'I' for Inactive)
REMARK    1  A    between atoms: C_7  and  C_8
REMARK    2  A    between atoms: C_11  and  C_12
REMARK                            x       y       z     vdW  Elec       q    Type
REMARK                         _______ _______ _______ _____ _____    ______ ____
ROOT
ATOM      1  C   UNL     1       1.841   8.194  19.328  0.00  0.00    +0.000 A 
ATOM      2  C   UNL     1       2.098   7.035  20.072  0.00  0.00    +0.000 A 
ATOM      3  C   UNL     1       2.994   6.070  19.611  0.00  0.00    +0.000 A 
ATOM      4  C   UNL     1       3.642   6.228  18.380  0.00  0.00    +0.000 A 
ATOM      5  C   UNL     1       3.382   7.382  17.629  0.00  0.00    +0.000 A 
ATOM      6  C   UNL     1       2.492   8.354  18.097  0.00  0.00    +0.000 A 
ENDROOT
BRANCH   1  13
ATOM      7 CL   UNL     1      -2.570  12.704  23.594  0.00  0.00    +0.000 Cl
ATOM      8  C   UNL     1      -1.784  11.956  22.255  0.00  0.00    +0.000 A 
ATOM      9  C   UNL     1      -2.095  12.376  20.960  0.00  0.00    +0.000 A 
ATOM     10  C   UNL     1      -1.468  11.791  19.851  0.00  0.00    +0.000 A 
ATOM     11  C   UNL     1      -0.528  10.776  20.074  0.00  0.00    +0.000 A 
ATOM     12  N   UNL     1       0.209  10.055  19.174  0.00  0.00    +0.000 NA
ATOM     13  C   UNL     1       0.930   9.202  19.881  0.00  0.00    +0.000 A 
ATOM     14  N   UNL     1       0.686   9.384  21.225  0.00  0.00    +0.000 N 
ATOM     15  C   UNL     1      -0.246  10.378  21.373  0.00  0.00    +0.000 A 
ATOM     16  C   UNL     1      -0.851  10.942  22.498  0.00  0.00    +0.000 A 
ATOM     17  H   UNL     1       1.108   8.862  21.974  0.00  0.00    +0.000 HD
ENDBRANCH   1  13
BRANCH   4  18
ATOM     18  C   UNL     1       4.616   5.188  17.873  0.00  0.00    +0.000 C 
ATOM     19  C   UNL     1       5.912   5.138  18.725  0.00  0.00    +0.000 C 
ATOM     20  N   UNL     1       6.908   4.183  18.189  0.00  0.00    +0.000 NA
ATOM     21  C   UNL     1       7.144   4.517  16.771  0.00  0.00    +0.000 C 
ATOM     22  C   UNL     1       5.841   4.550  15.957  0.00  0.00    +0.000 C 
ATOM     23  O   UNL     1       4.912   5.495  16.500  0.00  0.00    +0.000 OA
ATOM     24  H   UNL     1       6.514   3.244  18.241  0.00  0.00    +0.000 HD
ENDBRANCH   4  18
TORSDOF 2
ENDMDL
MODEL 4
REMARK VINA RESULT:      -7.6      1.158      2.114
REMARK  Name = 
REMARK  2 active torsions:
REMARK  status: ('A' for Active; 'I' for Inactive)
REMARK    1  A    between atoms: C_7  and  C_8
REMARK    2  A    between atoms: C_11  and  C_12
REMARK                            x       y       z     vdW  Elec       q    Type
REMARK                         _______ _______ _______ _____ _____    ______ ____
ROOT
ATOM      1  C   UNL     1       1.592   8.466  19.550  0.00  0.00    +0.000 A 
ATOM      2  C   UNL     1       2.145   8.643  18.275  0.00  0.00    +0.000 A 
ATOM      3  C   UNL     1       2.983   7.678  17.715  0.00  0.00    +0.000 A 
ATOM      4  C   UNL     1       3.310   6.517  18.427  0.00  0.00    +0.000 A 
ATOM      5  C   UNL     1       2.765   6.340  19.706  0.00  0.00    +0.000 A 
ATOM      6  C   UNL     1       1.917   7.303  20.261  0.00  0.00    +0.000 A 
ENDROOT
BRANCH   1  13
ATOM      7 CL   UNL     1      -2.812  13.108  23.680  0.00  0.00    +0.000 Cl
ATOM      8  C   UNL     1      -2.038  12.309  22.363  0.00  0.00    +0.000 A 
ATOM      9  C   UNL     1      -2.378  12.663  21.055  0.00  0.00    +0.000 A 
ATOM     10  C   UNL     1      -1.762  12.034  19.964  0.00  0.00    +0.000 A 
ATOM     11  C   UNL     1      -0.802  11.045  20.217  0.00  0.00    +0.000 A 
ATOM     12  N   UNL     1      -0.071  10.293  19.339  0.00  0.00    +0.000 NA
ATOM     13  C   UNL     1       0.676   9.485  20.072  0.00  0.00    +0.000 A 
ATOM     14  N   UNL     1       0.453   9.727  21.410  0.00  0.00    +0.000 N 
ATOM     15  C   UNL     1      -0.491  10.713  21.528  0.00  0.00    +0.000 A 
ATOM     16  C   UNL     1      -1.085  11.322  22.637  0.00  0.00    +0.000 A 
ATOM     17  H   UNL     1       0.897   9.247  22.175  0.00  0.00    +0.000 HD
ENDBRANCH   1  13
BRANCH   4  18
ATOM     18  C   UNL     1       4.217   5.466  17.829  0.00  0.00    +0.000 C 
ATOM     19  C   UNL     1       5.333   5.029  18.815  0.00  0.00    +0.000 C 
ATOM     20  N   UNL     1       6.278   4.062  18.212  0.00  0.00    +0.000 NA
ATOM     21  C   UNL     1       6.791   4.646  16.958  0.00  0.00    +0.000 C 
ATOM     22  C   UNL     1       5.660   5.059  16.003  0.00  0.00    +0.000 C 
ATOM     23  O   UNL     1       4.778   6.004  16.620  0.00  0.00    +0.000 OA
ATOM     24  H   UNL     1       5.767   3.209  17.989  0.00  0.00    +0.000 HD
ENDBRANCH   4  18
TORSDOF 2
ENDMDL
MODEL 5
REMARK VINA RESULT:      -7.6      1.114      1.275
REMARK  Name = 
REMARK  2 active torsions:
REMARK  status: ('A' for Active; 'I' for Inactive)
REMARK    1  A    between atoms: C_7  and  C_8
REMARK    2  A    between atoms: C_11  and  C_12
REMARK                            x       y       z     vdW  Elec       q    Type
REMARK                         _______ _______ _______ _____ _____    ______ ____
ROOT
ATOM      1  C   UNL     1       1.623   8.396  19.512  0.00  0.00    +0.000 A 
ATOM      2  C   UNL     1       2.038   7.192  20.096  0.00  0.00    +0.000 A 
ATOM      3  C   UNL     1       2.938   6.350  19.443  0.00  0.00    +0.000 A 
ATOM      4  C   UNL     1       3.432   6.679  18.175  0.00  0.00    +0.000 A 
ATOM      5  C   UNL     1       3.014   7.879  17.584  0.00  0.00    +0.000 A 
ATOM      6  C   UNL     1       2.120   8.727  18.244  0.00  0.00    +0.000 A 
ENDROOT
BRANCH   1  13
ATOM      7 CL   UNL     1      -3.149  13.767  22.038  0.00  0.00    +0.000 Cl
ATOM      8  C   UNL     1      -2.092  12.409  21.954  0.00  0.00    +0.000 A 
ATOM      9  C   UNL     1      -1.813  11.687  23.117  0.00  0.00    +0.000 A 
ATOM     10  C   UNL     1      -0.961  10.574  23.080  0.00  0.00    +0.000 A 
ATOM     11  C   UNL     1      -0.397  10.207  21.851  0.00  0.00    +0.000 A 
ATOM     12  N   UNL     1       0.455   9.178  21.555  0.00  0.00    +0.000 NA
ATOM     13  C   UNL     1       0.716   9.271  20.262  0.00  0.00    +0.000 A 
ATOM     14  N   UNL     1       0.022  10.331  19.719  0.00  0.00    +0.000 N 
ATOM     15  C   UNL     1      -0.689  10.947  20.715  0.00  0.00    +0.000 A 
ATOM     16  C   UNL     1      -1.535  12.059  20.718  0.00  0.00    +0.000 A 
ATOM     17  H   UNL     1       0.047  10.616  18.755  0.00  0.00    +0.000 HD
ENDBRANCH   1  13
BRANCH   4  18
ATOM     18  C   UNL     1       4.409   5.773  17.460  0.00  0.00    +0.000 C 
ATOM     19  C   UNL     1       4.946   4.648  18.384  0.00  0.00    +0.000 C 
ATOM     20  N   UNL     1       5.965   3.805  17.721  0.00  0.00    +0.000 NA
ATOM     21  C   UNL     1       7.020   4.692  17.196  0.00  0.00    +0.000 C 
ATOM     22  C   UNL     1       6.455   5.788  16.279  0.00  0.00    +0.000 C 
ATOM     23  O   UNL     1       5.484   6.588  16.962  0.00  0.00    +0.000 OA
ATOM     24  H   UNL     1       5.525   3.323  16.938  0.00  0.00    +0.000 HD
ENDBRANCH   4  18
TORSDOF 2
ENDMDL
MODEL 6
REMARK VINA RESULT:      -7.5      4.245      8.852
REMARK  Name = 
REMARK  2 active torsions:
REMARK  status: ('A' for Active; 'I' for Inactive)
REMARK    1  A    between atoms: C_7  and  C_8
REMARK    2  A    between atoms: C_11  and  C_12
REMARK                            x       y       z     vdW  Elec       q    Type
REMARK                         _______ _______ _______ _____ _____    ______ ____
ROOT
ATOM      1  C   UNL     1       1.932   8.208  19.215  0.00  0.00    +0.000 A 
ATOM      2  C   UNL     1       1.494   9.343  18.521  0.00  0.00    +0.000 A 
ATOM      3  C   UNL     1       0.783  10.353  19.172  0.00  0.00    +0.000 A 
ATOM      4  C   UNL     1       0.472  10.243  20.533  0.00  0.00    +0.000 A 
ATOM      5  C   UNL     1       0.902   9.105  21.229  0.00  0.00    +0.000 A 
ATOM      6  C   UNL     1       1.623   8.099  20.578  0.00  0.00    +0.000 A 
ENDROOT
BRANCH   1  13
ATOM      7 CL   UNL     1       6.613   4.243  14.702  0.00  0.00    +0.000 Cl
ATOM      8  C   UNL     1       5.411   4.672  15.860  0.00  0.00    +0.000 A 
ATOM      9  C   UNL     1       4.692   3.661  16.504  0.00  0.00    +0.000 A 
ATOM     10  C   UNL     1       3.712   3.979  17.455  0.00  0.00    +0.000 A 
ATOM     11  C   UNL     1       3.470   5.329  17.740  0.00  0.00    +0.000 A 
ATOM     12  N   UNL     1       2.579   5.891  18.612  0.00  0.00    +0.000 NA
ATOM     13  C   UNL     1       2.719   7.200  18.497  0.00  0.00    +0.000 A 
ATOM     14  N   UNL     1       3.709   7.486  17.581  0.00  0.00    +0.000 N 
ATOM     15  C   UNL     1       4.198   6.308  17.080  0.00  0.00    +0.000 A 
ATOM     16  C   UNL     1       5.182   6.026  16.129  0.00  0.00    +0.000 A 
ATOM     17  H   UNL     1       4.011   8.407  17.312  0.00  0.00    +0.000 HD
ENDBRANCH   1  13
BRANCH   4  18
ATOM     18  C   UNL     1      -0.296  11.332  21.247  0.00  0.00    +0.000 C 
ATOM     19  C   UNL     1      -0.657  10.934  22.703  0.00  0.00    +0.000 C 
ATOM     20  N   UNL     1      -1.481  11.956  23.385  0.00  0.00    +0.000 NA
ATOM     21  C   UNL     1      -2.658  12.233  22.539  0.00  0.00    +0.000 C 
ATOM     22  C   UNL     1      -2.264  12.632  21.108  0.00  0.00    +0.000 C 
ATOM     23  O   UNL     1      -1.480  11.611  20.480  0.00  0.00    +0.000 OA
ATOM     24  H   UNL     1      -0.931  12.810  23.468  0.00  0.00    +0.000 HD
ENDBRANCH   4  18
TORSDOF 2
ENDMDL
MODEL 7
REMARK VINA RESULT:      -7.5      4.292      8.818
REMARK  Name = 
REMARK  2 active torsions:
REMARK  status: ('A' for Active; 'I' for Inactive)
REMARK    1  A    between atoms: C_7  and  C_8
REMARK    2  A    between atoms: C_11  and  C_12
REMARK                            x       y       z     vdW  Elec       q    Type
REMARK                         _______ _______ _______ _____ _____    ______ ____
ROOT
ATOM      1  C   UNL     1       1.886   8.280  18.960  0.00  0.00    +0.000 A 
ATOM      2  C   UNL     1       1.576   8.111  20.317  0.00  0.00    +0.000 A 
ATOM      3  C   UNL     1       0.726   8.999  20.975  0.00  0.00    +0.000 A 
ATOM      4  C   UNL     1       0.176  10.095  20.299  0.00  0.00    +0.000 A 
ATOM      5  C   UNL     1       0.489  10.272  18.944  0.00  0.00    +0.000 A 
ATOM      6  C   UNL     1       1.334   9.375  18.283  0.00  0.00    +0.000 A 
ENDROOT
BRANCH   1  13
ATOM      7 CL   UNL     1       6.931   4.412  14.767  0.00  0.00    +0.000 Cl
ATOM      8  C   UNL     1       5.656   4.816  15.853  0.00  0.00    +0.000 A 
ATOM      9  C   UNL     1       4.939   3.791  16.476  0.00  0.00    +0.000 A 
ATOM     10  C   UNL     1       3.900   4.089  17.369  0.00  0.00    +0.000 A 
ATOM     11  C   UNL     1       3.597   5.434  17.618  0.00  0.00    +0.000 A 
ATOM     12  N   UNL     1       2.642   5.978  18.432  0.00  0.00    +0.000 NA
ATOM     13  C   UNL     1       2.744   7.290  18.302  0.00  0.00    +0.000 A 
ATOM     14  N   UNL     1       3.770   7.596  17.434  0.00  0.00    +0.000 N 
ATOM     15  C   UNL     1       4.324   6.428  16.979  0.00  0.00    +0.000 A 
ATOM     16  C   UNL     1       5.367   6.166  16.086  0.00  0.00    +0.000 A 
ATOM     17  H   UNL     1       4.053   8.523  17.164  0.00  0.00    +0.000 HD
ENDBRANCH   1  13
BRANCH   4  18
ATOM     18  C   UNL     1      -0.748  11.062  21.004  0.00  0.00    +0.000 C 
ATOM     19  C   UNL     1      -0.259  12.531  20.882  0.00  0.00    +0.000 C 
ATOM     20  N   UNL     1      -1.109  13.477  21.638  0.00  0.00    +0.000 NA
ATOM     21  C   UNL     1      -1.200  12.998  23.031  0.00  0.00    +0.000 C 
ATOM     22  C   UNL     1      -1.695  11.545  23.114  0.00  0.00    +0.000 C 
ATOM     23  O   UNL     1      -0.838  10.661  22.381  0.00  0.00    +0.000 OA
ATOM     24  H   UNL     1      -2.042  13.470  21.229  0.00  0.00    +0.000 HD
ENDBRANCH   4  18
TORSDOF 2
ENDMDL
MODEL 8
REMARK VINA RESULT:      -7.5      4.286      8.860
REMARK  Name = 
REMARK  2 active torsions:
REMARK  status: ('A' for Active; 'I' for Inactive)
REMARK    1  A    between atoms: C_7  and  C_8
REMARK    2  A    between atoms: C_11  and  C_12
REMARK                            x       y       z     vdW  Elec       q    Type
REMARK                         _______ _______ _______ _____ _____    ______ ____
ROOT
ATOM      1  C   UNL     1       1.863   8.177  19.023  0.00  0.00    +0.000 A 
ATOM      2  C   UNL     1       1.326   9.252  18.301  0.00  0.00    +0.000 A 
ATOM      3  C   UNL     1       0.514  10.200  18.924  0.00  0.00    +0.000 A 
ATOM      4  C   UNL     1       0.199  10.087  20.284  0.00  0.00    +0.000 A 
ATOM      5  C   UNL     1       0.728   9.010  21.007  0.00  0.00    +0.000 A 
ATOM      6  C   UNL     1       1.549   8.066  20.384  0.00  0.00    +0.000 A 
ENDROOT
BRANCH   1  13
ATOM      7 CL   UNL     1       7.015   4.608  14.698  0.00  0.00    +0.000 Cl
ATOM      8  C   UNL     1       5.734   4.936  15.802  0.00  0.00    +0.000 A 
ATOM      9  C   UNL     1       5.060   3.870  16.403  0.00  0.00    +0.000 A 
ATOM     10  C   UNL     1       4.017   4.106  17.310  0.00  0.00    +0.000 A 
ATOM     11  C   UNL     1       3.668   5.432  17.596  0.00  0.00    +0.000 A 
ATOM     12  N   UNL     1       2.700   5.919  18.430  0.00  0.00    +0.000 NA
ATOM     13  C   UNL     1       2.752   7.237  18.333  0.00  0.00    +0.000 A 
ATOM     14  N   UNL     1       3.759   7.602  17.466  0.00  0.00    +0.000 N 
ATOM     15  C   UNL     1       4.353   6.468  16.978  0.00  0.00    +0.000 A 
ATOM     16  C   UNL     1       5.397   6.267  16.072  0.00  0.00    +0.000 A 
ATOM     17  H   UNL     1       4.006   8.546  17.219  0.00  0.00    +0.000 HD
ENDBRANCH   1  13
BRANCH   4  18
ATOM     18  C   UNL     1      -0.679  11.111  20.967  0.00  0.00    +0.000 C 
ATOM     19  C   UNL     1      -0.071  12.538  20.904  0.00  0.00    +0.000 C 
ATOM     20  N   UNL     1      -0.879  13.533  21.642  0.00  0.00    +0.000 NA
ATOM     21  C   UNL     1      -1.075  13.035  23.016  0.00  0.00    +0.000 C 
ATOM     22  C   UNL     1      -1.687  11.625  23.041  0.00  0.00    +0.000 C 
ATOM     23  O   UNL     1      -0.868  10.691  22.329  0.00  0.00    +0.000 OA
ATOM     24  H   UNL     1      -1.789  13.609  21.190  0.00  0.00    +0.000 HD
ENDBRANCH   4  18
TORSDOF 2
ENDMDL
MODEL 9
REMARK VINA RESULT:      -7.3      4.250      8.788
REMARK  Name = 
REMARK  2 active torsions:
REMARK  status: ('A' for Active; 'I' for Inactive)
REMARK    1  A    between atoms: C_7  and  C_8
REMARK    2  A    between atoms: C_11  and  C_12
REMARK                            x       y       z     vdW  Elec       q    Type
REMARK                         _______ _______ _______ _____ _____    ______ ____
ROOT
ATOM      1  C   UNL     1       1.905   8.301  19.258  0.00  0.00    +0.000 A 
ATOM      2  C   UNL     1       1.608   8.193  20.623  0.00  0.00    +0.000 A 
ATOM      3  C   UNL     1       0.878   9.184  21.279  0.00  0.00    +0.000 A 
ATOM      4  C   UNL     1       0.442  10.323  20.591  0.00  0.00    +0.000 A 
ATOM      5  C   UNL     1       0.744  10.439  19.228  0.00  0.00    +0.000 A 
ATOM      6  C   UNL     1       1.467   9.440  18.569  0.00  0.00    +0.000 A 
ENDROOT
BRANCH   1  13
ATOM      7 CL   UNL     1       6.296   3.799  14.963  0.00  0.00    +0.000 Cl
ATOM      8  C   UNL     1       5.145   4.368  16.112  0.00  0.00    +0.000 A 
ATOM      9  C   UNL     1       4.403   3.442  16.851  0.00  0.00    +0.000 A 
ATOM     10  C   UNL     1       3.463   3.875  17.797  0.00  0.00    +0.000 A 
ATOM     11  C   UNL     1       3.285   5.253  17.980  0.00  0.00    +0.000 A 
ATOM     12  N   UNL     1       2.441   5.918  18.825  0.00  0.00    +0.000 NA
ATOM     13  C   UNL     1       2.631   7.208  18.603  0.00  0.00    +0.000 A 
ATOM     14  N   UNL     1       3.606   7.378  17.644  0.00  0.00    +0.000 N 
ATOM     15  C   UNL     1       4.033   6.145  17.226  0.00  0.00    +0.000 A 
ATOM     16  C   UNL     1       4.979   5.747  16.278  0.00  0.00    +0.000 A 
ATOM     17  H   UNL     1       3.938   8.262  17.295  0.00  0.00    +0.000 HD
ENDBRANCH   1  13
BRANCH   4  18
ATOM     18  C   UNL     1      -0.351  11.402  21.294  0.00  0.00    +0.000 C 
ATOM     19  C   UNL     1      -0.732  10.996  22.743  0.00  0.00    +0.000 C 
ATOM     20  N   UNL     1      -1.580  12.008  23.412  0.00  0.00    +0.000 NA
ATOM     21  C   UNL     1      -2.744  12.274  22.547  0.00  0.00    +0.000 C 
ATOM     22  C   UNL     1      -2.330  12.681  21.124  0.00  0.00    +0.000 C 
ATOM     23  O   UNL     1      -1.524  11.670  20.508  0.00  0.00    +0.000 OA
ATOM     24  H   UNL     1      -1.041  12.868  23.507  0.00  0.00    +0.000 HD
ENDBRANCH   4  18
TORSDOF 2
ENDMDL
