MODEL 1
REMARK VINA RESULT:      -7.8      0.000      0.000
REMARK  Name = 
REMARK  12 active torsions:
REMARK  status: ('A' for Active; 'I' for Inactive)
REMARK    1  A    between atoms: C_1  and  C_2
REMARK    2  A    between atoms: C_5  and  C_6
REMARK    3  A    between atoms: C_6  and  C_7
REMARK    4  A    between atoms: C_6  and  N_11
REMARK    5  A    between atoms: C_7  and  C_8
REMARK    6  A    between atoms: C_8  and  O_10
REMARK    7  A    between atoms: C_12  and  C_14
REMARK    8  A    between atoms: C_14  and  N_15
REMARK    9  A    between atoms: C_16  and  C_18
REMARK   10  A    between atoms: C_21  and  N_22
REMARK   11  A    between atoms: N_25  and  C_26
REMARK   12  A    between atoms: C_26  and  C_27
REMARK                            x       y       z     vdW  Elec       q    Type
REMARK                         _______ _______ _______ _____ _____    ______ ____
ROOT
ATOM      1  N   UNL     1       8.322   7.277  18.772  0.00  0.00    +0.000 N 
ATOM      2  C   UNL     1       8.131   8.416  18.025  0.00  0.00    +0.000 C 
ATOM      3  O   UNL     1       7.517   8.385  16.958  0.00  0.00    +0.000 OA
ATOM      4  H   UNL     1       8.794   7.370  19.669  0.00  0.00    +0.000 HD
ENDROOT
BRANCH   2   5
ATOM      5  C   UNL     1       8.694   9.625  18.599  0.00  0.00    +0.000 A 
ATOM      6  C   UNL     1       9.181  10.772  18.002  0.00  0.00    +0.000 A 
ATOM      7  C   UNL     1       9.583  11.638  19.050  0.00  0.00    +0.000 A 
ATOM      8  C   UNL     1       9.366  10.958  20.224  0.00  0.00    +0.000 A 
ATOM      9  O   UNL     1       8.811   9.740  19.959  0.00  0.00    +0.000 OA
BRANCH   8  10
ATOM     10  N   UNL     1       9.624  11.335  21.524  0.00  0.00    +0.000 N 
ATOM     11  C   UNL     1       8.639  11.798  22.367  0.00  0.00    +0.000 C 
ATOM     12  O   UNL     1       7.462  11.971  22.082  0.00  0.00    +0.000 OA
ATOM     13  N   UNL     1       9.115  11.986  23.655  0.00  0.00    +0.000 N 
ATOM     14  H   UNL     1      10.513  11.074  21.921  0.00  0.00    +0.000 HD
ATOM     15  H   UNL     1      10.067  12.300  23.746  0.00  0.00    +0.000 HD
BRANCH  13  16
ATOM     16  C   UNL     1       8.188  12.469  24.661  0.00  0.00    +0.000 C 
BRANCH  16  17
ATOM     17  C   UNL     1       8.568  13.816  25.220  0.00  0.00    +0.000 A 
ATOM     18  C   UNL     1       8.806  13.976  26.594  0.00  0.00    +0.000 A 
ATOM     19  C   UNL     1       9.255  15.198  27.100  0.00  0.00    +0.000 A 
ATOM     20  C   UNL     1       9.474  16.273  26.242  0.00  0.00    +0.000 A 
ATOM     21  C   UNL     1       9.241  16.129  24.876  0.00  0.00    +0.000 A 
ATOM     22  C   UNL     1       8.792  14.908  24.367  0.00  0.00    +0.000 A 
ENDBRANCH  16  17
ENDBRANCH  13  16
ENDBRANCH   8  10
ENDBRANCH   2   5
BRANCH   1  23
ATOM     23  C   UNL     1       7.891   5.973  18.317  0.00  0.00    +0.000 C 
BRANCH  23  25
ATOM     24  N   UNL     1       5.444   5.960  18.101  0.00  0.00    +0.000 N 
ATOM     25  C   UNL     1       6.520   5.559  18.866  0.00  0.00    +0.000 C 
ATOM     26  O   UNL     1       6.399   4.915  19.904  0.00  0.00    +0.000 OA
ATOM     27  H   UNL     1       5.622   6.663  17.388  0.00  0.00    +0.000 HD
BRANCH  24  28
ATOM     28  C   UNL     1       4.062   5.583  18.436  0.00  0.00    +0.000 C 
BRANCH  28  33
ATOM     29  C   UNL     1       0.513  10.176  19.266  0.00  0.00    +0.000 C 
ATOM     30  C   UNL     1       1.425   9.008  19.047  0.00  0.00    +0.000 A 
ATOM     31  C   UNL     1       1.571   8.018  20.021  0.00  0.00    +0.000 A 
ATOM     32  C   UNL     1       2.438   6.943  19.814  0.00  0.00    +0.000 A 
ATOM     33  C   UNL     1       3.172   6.809  18.623  0.00  0.00    +0.000 A 
ATOM     34  C   UNL     1       3.010   7.801  17.642  0.00  0.00    +0.000 A 
ATOM     35  C   UNL     1       2.162   8.895  17.862  0.00  0.00    +0.000 A 
ENDBRANCH  28  33
BRANCH  28  36
ATOM     36  C   UNL     1       3.500   4.630  17.362  0.00  0.00    +0.000 C 
BRANCH  36  37
ATOM     37  C   UNL     1       3.532   3.176  17.768  0.00  0.00    +0.000 C 
ATOM     38  O   UNL     1       2.645   2.361  17.567  0.00  0.00    +0.000 OA
BRANCH  37  39
ATOM     39  O   UNL     1       4.645   2.851  18.471  0.00  0.00    +0.000 OA
ATOM     40  H   UNL     1       4.644   3.162  19.396  0.00  0.00    +0.000 HD
ENDBRANCH  37  39
ENDBRANCH  36  37
ENDBRANCH  28  36
ENDBRANCH  24  28
ENDBRANCH  23  25
ENDBRANCH   1  23
TORSDOF 11
ENDMDL
MODEL 2
REMARK VINA RESULT:      -7.7      5.345      8.003
REMARK  Name = 
REMARK  12 active torsions:
REMARK  status: ('A' for Active; 'I' for Inactive)
REMARK    1  A    between atoms: C_1  and  C_2
REMARK    2  A    between atoms: C_5  and  C_6
REMARK    3  A    between atoms: C_6  and  C_7
REMARK    4  A    between atoms: C_6  and  N_11
REMARK    5  A    between atoms: C_7  and  C_8
REMARK    6  A    between atoms: C_8  and  O_10
REMARK    7  A    between atoms: C_12  and  C_14
REMARK    8  A    between atoms: C_14  and  N_15
REMARK    9  A    between atoms: C_16  and  C_18
REMARK   10  A    between atoms: C_21  and  N_22
REMARK   11  A    between atoms: N_25  and  C_26
REMARK   12  A    between atoms: C_26  and  C_27
REMARK                            x       y       z     vdW  Elec       q    Type
REMARK                         _______ _______ _______ _____ _____    ______ ____
ROOT
ATOM      1  N   UNL     1       3.130   6.615  19.235  0.00  0.00    +0.000 N 
ATOM      2  C   UNL     1       2.124   7.274  19.903  0.00  0.00    +0.000 C 
ATOM      3  O   UNL     1       1.684   6.850  20.972  0.00  0.00    +0.000 OA
ATOM      4  H   UNL     1       3.489   7.037  18.381  0.00  0.00    +0.000 HD
ENDROOT
BRANCH   2   5
ATOM      5  C   UNL     1       1.651   8.484  19.256  0.00  0.00    +0.000 A 
ATOM      6  C   UNL     1       1.685   8.878  17.932  0.00  0.00    +0.000 A 
ATOM      7  C   UNL     1       1.056  10.148  17.868  0.00  0.00    +0.000 A 
ATOM      8  C   UNL     1       0.718  10.481  19.157  0.00  0.00    +0.000 A 
ATOM      9  O   UNL     1       1.062   9.468  20.004  0.00  0.00    +0.000 OA
BRANCH   8  10
ATOM     10  N   UNL     1       0.123  11.623  19.647  0.00  0.00    +0.000 N 
ATOM     11  C   UNL     1       0.833  12.779  19.885  0.00  0.00    +0.000 C 
ATOM     12  O   UNL     1       2.037  12.934  19.742  0.00  0.00    +0.000 OA
ATOM     13  N   UNL     1      -0.001  13.825  20.247  0.00  0.00    +0.000 N 
ATOM     14  H   UNL     1      -0.883  11.670  19.638  0.00  0.00    +0.000 HD
ATOM     15  H   UNL     1      -0.813  13.590  20.795  0.00  0.00    +0.000 HD
BRANCH  13  16
ATOM     16  C   UNL     1       0.603  15.114  20.526  0.00  0.00    +0.000 C 
BRANCH  16  17
ATOM     17  C   UNL     1       0.567  16.055  19.349  0.00  0.00    +0.000 A 
ATOM     18  C   UNL     1      -0.645  16.622  18.927  0.00  0.00    +0.000 A 
ATOM     19  C   UNL     1      -0.668  17.570  17.901  0.00  0.00    +0.000 A 
ATOM     20  C   UNL     1       0.518  17.966  17.288  0.00  0.00    +0.000 A 
ATOM     21  C   UNL     1       1.730  17.411  17.697  0.00  0.00    +0.000 A 
ATOM     22  C   UNL     1       1.754  16.463  18.722  0.00  0.00    +0.000 A 
ENDBRANCH  16  17
ENDBRANCH  13  16
ENDBRANCH   8  10
ENDBRANCH   2   5
BRANCH   1  23
ATOM     23  C   UNL     1       3.670   5.355  19.698  0.00  0.00    +0.000 C 
BRANCH  23  25
ATOM     24  N   UNL     1       5.348   5.754  17.948  0.00  0.00    +0.000 N 
ATOM     25  C   UNL     1       5.011   4.993  19.048  0.00  0.00    +0.000 C 
ATOM     26  O   UNL     1       5.727   4.095  19.484  0.00  0.00    +0.000 OA
ATOM     27  H   UNL     1       4.610   6.318  17.535  0.00  0.00    +0.000 HD
BRANCH  24  28
ATOM     28  C   UNL     1       6.633   5.596  17.249  0.00  0.00    +0.000 C 
BRANCH  28  33
ATOM     29  C   UNL     1       5.827   3.173  11.972  0.00  0.00    +0.000 C 
ATOM     30  C   UNL     1       6.039   3.799  13.316  0.00  0.00    +0.000 A 
ATOM     31  C   UNL     1       5.124   3.603  14.351  0.00  0.00    +0.000 A 
ATOM     32  C   UNL     1       5.321   4.206  15.596  0.00  0.00    +0.000 A 
ATOM     33  C   UNL     1       6.447   5.008  15.852  0.00  0.00    +0.000 A 
ATOM     34  C   UNL     1       7.370   5.190  14.811  0.00  0.00    +0.000 A 
ATOM     35  C   UNL     1       7.157   4.608  13.554  0.00  0.00    +0.000 A 
ENDBRANCH  28  33
BRANCH  28  36
ATOM     36  C   UNL     1       7.378   6.945  17.205  0.00  0.00    +0.000 C 
BRANCH  36  37
ATOM     37  C   UNL     1       8.100   7.279  18.489  0.00  0.00    +0.000 C 
ATOM     38  O   UNL     1       8.646   8.341  18.743  0.00  0.00    +0.000 OA
BRANCH  37  39
ATOM     39  O   UNL     1       8.159   6.231  19.347  0.00  0.00    +0.000 OA
ATOM     40  H   UNL     1       7.898   5.375  18.959  0.00  0.00    +0.000 HD
ENDBRANCH  37  39
ENDBRANCH  36  37
ENDBRANCH  28  36
ENDBRANCH  24  28
ENDBRANCH  23  25
ENDBRANCH   1  23
TORSDOF 11
ENDMDL
MODEL 3
REMARK VINA RESULT:      -7.4      3.095      3.673
REMARK  Name = 
REMARK  12 active torsions:
REMARK  status: ('A' for Active; 'I' for Inactive)
REMARK    1  A    between atoms: C_1  and  C_2
REMARK    2  A    between atoms: C_5  and  C_6
REMARK    3  A    between atoms: C_6  and  C_7
REMARK    4  A    between atoms: C_6  and  N_11
REMARK    5  A    between atoms: C_7  and  C_8
REMARK    6  A    between atoms: C_8  and  O_10
REMARK    7  A    between atoms: C_12  and  C_14
REMARK    8  A    between atoms: C_14  and  N_15
REMARK    9  A    between atoms: C_16  and  C_18
REMARK   10  A    between atoms: C_21  and  N_22
REMARK   11  A    between atoms: N_25  and  C_26
REMARK   12  A    between atoms: C_26  and  C_27
REMARK                            x       y       z     vdW  Elec       q    Type
REMARK                         _______ _______ _______ _____ _____    ______ ____
ROOT
ATOM      1  N   UNL     1       7.755   6.520  18.523  0.00  0.00    +0.000 N 
ATOM      2  C   UNL     1       7.588   7.579  17.662  0.00  0.00    +0.000 C 
ATOM      3  O   UNL     1       6.969   7.451  16.606  0.00  0.00    +0.000 OA
ATOM      4  H   UNL     1       8.233   6.695  19.404  0.00  0.00    +0.000 HD
ENDROOT
BRANCH   2   5
ATOM      5  C   UNL     1       8.185   8.826  18.104  0.00  0.00    +0.000 A 
ATOM      6  C   UNL     1       9.036   9.102  19.157  0.00  0.00    +0.000 A 
ATOM      7  C   UNL     1       9.319  10.491  19.100  0.00  0.00    +0.000 A 
ATOM      8  C   UNL     1       8.589  10.995  18.050  0.00  0.00    +0.000 A 
ATOM      9  O   UNL     1       7.910   9.986  17.430  0.00  0.00    +0.000 OA
BRANCH   8  10
ATOM     10  N   UNL     1       8.476  12.290  17.594  0.00  0.00    +0.000 N 
ATOM     11  C   UNL     1       9.077  13.352  18.234  0.00  0.00    +0.000 C 
ATOM     12  O   UNL     1       9.728  13.302  19.267  0.00  0.00    +0.000 OA
ATOM     13  N   UNL     1       8.931  14.529  17.517  0.00  0.00    +0.000 N 
ATOM     14  H   UNL     1       8.114  12.431  16.665  0.00  0.00    +0.000 HD
ATOM     15  H   UNL     1       8.069  14.647  17.009  0.00  0.00    +0.000 HD
BRANCH  13  16
ATOM     16  C   UNL     1       9.517  15.737  18.064  0.00  0.00    +0.000 C 
BRANCH  16  17
ATOM     17  C   UNL     1       8.562  16.525  18.924  0.00  0.00    +0.000 A 
ATOM     18  C   UNL     1       7.223  16.688  18.537  0.00  0.00    +0.000 A 
ATOM     19  C   UNL     1       6.312  17.330  19.379  0.00  0.00    +0.000 A 
ATOM     20  C   UNL     1       6.725  17.814  20.617  0.00  0.00    +0.000 A 
ATOM     21  C   UNL     1       8.052  17.660  21.015  0.00  0.00    +0.000 A 
ATOM     22  C   UNL     1       8.965  17.018  20.175  0.00  0.00    +0.000 A 
ENDBRANCH  16  17
ENDBRANCH  13  16
ENDBRANCH   8  10
ENDBRANCH   2   5
BRANCH   1  23
ATOM     23  C   UNL     1       7.289   5.187  18.209  0.00  0.00    +0.000 C 
BRANCH  23  25
ATOM     24  N   UNL     1       4.904   5.768  18.303  0.00  0.00    +0.000 N 
ATOM     25  C   UNL     1       5.879   4.894  18.738  0.00  0.00    +0.000 C 
ATOM     26  O   UNL     1       5.645   3.949  19.486  0.00  0.00    +0.000 OA
ATOM     27  H   UNL     1       5.219   6.632  17.871  0.00  0.00    +0.000 HD
BRANCH  24  28
ATOM     28  C   UNL     1       3.484   5.591  18.648  0.00  0.00    +0.000 C 
BRANCH  28  33
ATOM     29  C   UNL     1       0.587  10.645  19.303  0.00  0.00    +0.000 C 
ATOM     30  C   UNL     1       1.333   9.358  19.128  0.00  0.00    +0.000 A 
ATOM     31  C   UNL     1       1.412   8.428  20.165  0.00  0.00    +0.000 A 
ATOM     32  C   UNL     1       2.125   7.239  19.998  0.00  0.00    +0.000 A 
ATOM     33  C   UNL     1       2.766   6.931  18.785  0.00  0.00    +0.000 A 
ATOM     34  C   UNL     1       2.670   7.864  17.741  0.00  0.00    +0.000 A 
ATOM     35  C   UNL     1       1.979   9.070  17.919  0.00  0.00    +0.000 A 
ENDBRANCH  28  33
BRANCH  28  36
ATOM     36  C   UNL     1       2.799   4.681  17.609  0.00  0.00    +0.000 C 
BRANCH  36  37
ATOM     37  C   UNL     1       2.292   3.380  18.185  0.00  0.00    +0.000 C 
ATOM     38  O   UNL     1       2.704   2.266  17.899  0.00  0.00    +0.000 OA
BRANCH  37  39
ATOM     39  O   UNL     1       1.245   3.552  19.029  0.00  0.00    +0.000 OA
ATOM     40  H   UNL     1       0.392   3.720  18.587  0.00  0.00    +0.000 HD
ENDBRANCH  37  39
ENDBRANCH  36  37
ENDBRANCH  28  36
ENDBRANCH  24  28
ENDBRANCH  23  25
ENDBRANCH   1  23
TORSDOF 11
ENDMDL
MODEL 4
REMARK VINA RESULT:      -7.4      3.440      5.178
REMARK  Name = 
REMARK  12 active torsions:
REMARK  status: ('A' for Active; 'I' for Inactive)
REMARK    1  A    between atoms: C_1  and  C_2
REMARK    2  A    between atoms: C_5  and  C_6
REMARK    3  A    between atoms: C_6  and  C_7
REMARK    4  A    between atoms: C_6  and  N_11
REMARK    5  A    between atoms: C_7  and  C_8
REMARK    6  A    between atoms: C_8  and  O_10
REMARK    7  A    between atoms: C_12  and  C_14
REMARK    8  A    between atoms: C_14  and  N_15
REMARK    9  A    between atoms: C_16  and  C_18
REMARK   10  A    between atoms: C_21  and  N_22
REMARK   11  A    between atoms: N_25  and  C_26
REMARK   12  A    between atoms: C_26  and  C_27
REMARK                            x       y       z     vdW  Elec       q    Type
REMARK                         _______ _______ _______ _____ _____    ______ ____
ROOT
ATOM      1  N   UNL     1       5.342   3.382  19.680  0.00  0.00    +0.000 N 
ATOM      2  C   UNL     1       5.101   3.636  18.350  0.00  0.00    +0.000 C 
ATOM      3  O   UNL     1       4.197   3.060  17.744  0.00  0.00    +0.000 OA
ATOM      4  H   UNL     1       6.071   3.922  20.143  0.00  0.00    +0.000 HD
ENDROOT
BRANCH   2   5
ATOM      5  C   UNL     1       5.979   4.621  17.747  0.00  0.00    +0.000 A 
ATOM      6  C   UNL     1       6.331   4.837  16.428  0.00  0.00    +0.000 A 
ATOM      7  C   UNL     1       7.204   5.956  16.416  0.00  0.00    +0.000 A 
ATOM      8  C   UNL     1       7.375   6.330  17.727  0.00  0.00    +0.000 A 
ATOM      9  O   UNL     1       6.622   5.534  18.540  0.00  0.00    +0.000 OA
BRANCH   8  10
ATOM     10  N   UNL     1       8.155   7.331  18.265  0.00  0.00    +0.000 N 
ATOM     11  C   UNL     1       7.971   8.659  17.951  0.00  0.00    +0.000 C 
ATOM     12  O   UNL     1       7.157   9.110  17.158  0.00  0.00    +0.000 OA
ATOM     13  N   UNL     1       8.784   9.482  18.713  0.00  0.00    +0.000 N 
ATOM     14  H   UNL     1       8.737   7.100  19.054  0.00  0.00    +0.000 HD
ATOM     15  H   UNL     1       9.695   9.125  18.952  0.00  0.00    +0.000 HD
BRANCH  13  16
ATOM     16  C   UNL     1       8.699  10.914  18.498  0.00  0.00    +0.000 C 
BRANCH  16  17
ATOM     17  C   UNL     1       9.913  11.661  18.986  0.00  0.00    +0.000 A 
ATOM     18  C   UNL     1      11.203  11.188  18.702  0.00  0.00    +0.000 A 
ATOM     19  C   UNL     1      12.330  11.930  19.067  0.00  0.00    +0.000 A 
ATOM     20  C   UNL     1      12.181  13.153  19.715  0.00  0.00    +0.000 A 
ATOM     21  C   UNL     1      10.907  13.636  20.004  0.00  0.00    +0.000 A 
ATOM     22  C   UNL     1       9.779  12.896  19.641  0.00  0.00    +0.000 A 
ENDBRANCH  16  17
ENDBRANCH  13  16
ENDBRANCH   8  10
ENDBRANCH   2   5
BRANCH   1  23
ATOM     23  C   UNL     1       4.612   2.377  20.421  0.00  0.00    +0.000 C 
BRANCH  23  25
ATOM     24  N   UNL     1       2.786   4.020  20.363  0.00  0.00    +0.000 N 
ATOM     25  C   UNL     1       3.272   2.881  20.972  0.00  0.00    +0.000 C 
ATOM     26  O   UNL     1       2.681   2.306  21.882  0.00  0.00    +0.000 OA
ATOM     27  H   UNL     1       3.433   4.543  19.779  0.00  0.00    +0.000 HD
BRANCH  24  28
ATOM     28  C   UNL     1       1.477   4.596  20.711  0.00  0.00    +0.000 C 
BRANCH  28  33
ATOM     29  C   UNL     1       1.206  10.413  20.031  0.00  0.00    +0.000 C 
ATOM     30  C   UNL     1       1.284   8.927  20.199  0.00  0.00    +0.000 A 
ATOM     31  C   UNL     1       0.627   8.288  21.252  0.00  0.00    +0.000 A 
ATOM     32  C   UNL     1       0.721   6.904  21.411  0.00  0.00    +0.000 A 
ATOM     33  C   UNL     1       1.457   6.110  20.513  0.00  0.00    +0.000 A 
ATOM     34  C   UNL     1       2.104   6.757  19.449  0.00  0.00    +0.000 A 
ATOM     35  C   UNL     1       2.033   8.149  19.307  0.00  0.00    +0.000 A 
ENDBRANCH  28  33
BRANCH  28  36
ATOM     36  C   UNL     1       0.363   3.902  19.902  0.00  0.00    +0.000 C 
BRANCH  36  37
ATOM     37  C   UNL     1       0.854   3.257  18.628  0.00  0.00    +0.000 C 
ATOM     38  O   UNL     1       1.147   3.845  17.599  0.00  0.00    +0.000 OA
BRANCH  37  39
ATOM     39  O   UNL     1       0.873   1.902  18.698  0.00  0.00    +0.000 OA
ATOM     40  H   UNL     1       1.554   1.479  18.144  0.00  0.00    +0.000 HD
ENDBRANCH  37  39
ENDBRANCH  36  37
ENDBRANCH  28  36
ENDBRANCH  24  28
ENDBRANCH  23  25
ENDBRANCH   1  23
TORSDOF 11
ENDMDL
MODEL 5
REMARK VINA RESULT:      -7.3      3.083      5.950
REMARK  Name = 
REMARK  12 active torsions:
REMARK  status: ('A' for Active; 'I' for Inactive)
REMARK    1  A    between atoms: C_1  and  C_2
REMARK    2  A    between atoms: C_5  and  C_6
REMARK    3  A    between atoms: C_6  and  C_7
REMARK    4  A    between atoms: C_6  and  N_11
REMARK    5  A    between atoms: C_7  and  C_8
REMARK    6  A    between atoms: C_8  and  O_10
REMARK    7  A    between atoms: C_12  and  C_14
REMARK    8  A    between atoms: C_14  and  N_15
REMARK    9  A    between atoms: C_16  and  C_18
REMARK   10  A    between atoms: C_21  and  N_22
REMARK   11  A    between atoms: N_25  and  C_26
REMARK   12  A    between atoms: C_26  and  C_27
REMARK                            x       y       z     vdW  Elec       q    Type
REMARK                         _______ _______ _______ _____ _____    ______ ____
ROOT
ATOM      1  N   UNL     1       3.534   7.067  17.903  0.00  0.00    +0.000 N 
ATOM      2  C   UNL     1       4.068   5.808  17.752  0.00  0.00    +0.000 C 
ATOM      3  O   UNL     1       3.357   4.841  17.481  0.00  0.00    +0.000 OA
ATOM      4  H   UNL     1       4.176   7.837  18.079  0.00  0.00    +0.000 HD
ENDROOT
BRANCH   2   5
ATOM      5  C   UNL     1       5.507   5.729  17.928  0.00  0.00    +0.000 A 
ATOM      6  C   UNL     1       6.389   4.683  17.735  0.00  0.00    +0.000 A 
ATOM      7  C   UNL     1       7.683   5.180  18.037  0.00  0.00    +0.000 A 
ATOM      8  C   UNL     1       7.516   6.482  18.444  0.00  0.00    +0.000 A 
ATOM      9  O   UNL     1       6.198   6.827  18.365  0.00  0.00    +0.000 OA
BRANCH   8  10
ATOM     10  N   UNL     1       8.448   7.395  18.885  0.00  0.00    +0.000 N 
ATOM     11  C   UNL     1       8.484   8.693  18.426  0.00  0.00    +0.000 C 
ATOM     12  O   UNL     1       7.755   9.181  17.574  0.00  0.00    +0.000 OA
ATOM     13  N   UNL     1       9.419   9.452  19.110  0.00  0.00    +0.000 N 
ATOM     14  H   UNL     1       8.984   7.161  19.706  0.00  0.00    +0.000 HD
ATOM     15  H   UNL     1      10.260   8.981  19.404  0.00  0.00    +0.000 HD
BRANCH  13  16
ATOM     16  C   UNL     1       9.569  10.846  18.740  0.00  0.00    +0.000 C 
BRANCH  16  17
ATOM     17  C   UNL     1       9.240  11.797  19.863  0.00  0.00    +0.000 A 
ATOM     18  C   UNL     1       9.254  11.360  21.196  0.00  0.00    +0.000 A 
ATOM     19  C   UNL     1       9.048  12.261  22.243  0.00  0.00    +0.000 A 
ATOM     20  C   UNL     1       8.829  13.609  21.972  0.00  0.00    +0.000 A 
ATOM     21  C   UNL     1       8.811  14.059  20.654  0.00  0.00    +0.000 A 
ATOM     22  C   UNL     1       9.017  13.159  19.605  0.00  0.00    +0.000 A 
ENDBRANCH  16  17
ENDBRANCH  13  16
ENDBRANCH   8  10
ENDBRANCH   2   5
BRANCH   1  23
ATOM     23  C   UNL     1       2.111   7.317  17.834  0.00  0.00    +0.000 C 
BRANCH  23  25
ATOM     24  N   UNL     1       0.765   9.029  18.971  0.00  0.00    +0.000 N 
ATOM     25  C   UNL     1       1.743   8.793  18.026  0.00  0.00    +0.000 C 
ATOM     26  O   UNL     1       2.286   9.691  17.388  0.00  0.00    +0.000 OA
ATOM     27  H   UNL     1       0.227   8.227  19.287  0.00  0.00    +0.000 HD
BRANCH  24  28
ATOM     28  C   UNL     1       0.345  10.390  19.340  0.00  0.00    +0.000 C 
BRANCH  28  33
ATOM     29  C   UNL     1      -4.880  11.651  16.997  0.00  0.00    +0.000 C 
ATOM     30  C   UNL     1      -3.549  11.332  17.605  0.00  0.00    +0.000 A 
ATOM     31  C   UNL     1      -2.688  10.410  17.005  0.00  0.00    +0.000 A 
ATOM     32  C   UNL     1      -1.456  10.106  17.590  0.00  0.00    +0.000 A 
ATOM     33  C   UNL     1      -1.035  10.726  18.780  0.00  0.00    +0.000 A 
ATOM     34  C   UNL     1      -1.899  11.662  19.369  0.00  0.00    +0.000 A 
ATOM     35  C   UNL     1      -3.147  11.945  18.798  0.00  0.00    +0.000 A 
ENDBRANCH  28  33
BRANCH  28  36
ATOM     36  C   UNL     1       0.395  10.560  20.871  0.00  0.00    +0.000 C 
BRANCH  36  37
ATOM     37  C   UNL     1       0.591   9.262  21.617  0.00  0.00    +0.000 C 
ATOM     38  O   UNL     1       1.652   8.846  22.057  0.00  0.00    +0.000 OA
BRANCH  37  39
ATOM     39  O   UNL     1      -0.544   8.525  21.698  0.00  0.00    +0.000 OA
ATOM     40  H   UNL     1      -0.761   8.214  22.597  0.00  0.00    +0.000 HD
ENDBRANCH  37  39
ENDBRANCH  36  37
ENDBRANCH  28  36
ENDBRANCH  24  28
ENDBRANCH  23  25
ENDBRANCH   1  23
TORSDOF 11
ENDMDL
MODEL 6
REMARK VINA RESULT:      -7.2      6.239     10.963
REMARK  Name = 
REMARK  12 active torsions:
REMARK  status: ('A' for Active; 'I' for Inactive)
REMARK    1  A    between atoms: C_1  and  C_2
REMARK    2  A    between atoms: C_5  and  C_6
REMARK    3  A    between atoms: C_6  and  C_7
REMARK    4  A    between atoms: C_6  and  N_11
REMARK    5  A    between atoms: C_7  and  C_8
REMARK    6  A    between atoms: C_8  and  O_10
REMARK    7  A    between atoms: C_12  and  C_14
REMARK    8  A    between atoms: C_14  and  N_15
REMARK    9  A    between atoms: C_16  and  C_18
REMARK   10  A    between atoms: C_21  and  N_22
REMARK   11  A    between atoms: N_25  and  C_26
REMARK   12  A    between atoms: C_26  and  C_27
REMARK                            x       y       z     vdW  Elec       q    Type
REMARK                         _______ _______ _______ _____ _____    ______ ____
ROOT
ATOM      1  N   UNL     1       2.584   6.683  19.490  0.00  0.00    +0.000 N 
ATOM      2  C   UNL     1       2.502   5.436  20.065  0.00  0.00    +0.000 C 
ATOM      3  O   UNL     1       1.839   5.246  21.085  0.00  0.00    +0.000 OA
ATOM      4  H   UNL     1       3.107   6.772  18.622  0.00  0.00    +0.000 HD
ENDROOT
BRANCH   2   5
ATOM      5  C   UNL     1       3.240   4.395  19.375  0.00  0.00    +0.000 A 
ATOM      6  C   UNL     1       3.174   3.018  19.472  0.00  0.00    +0.000 A 
ATOM      7  C   UNL     1       4.110   2.497  18.542  0.00  0.00    +0.000 A 
ATOM      8  C   UNL     1       4.729   3.580  17.965  0.00  0.00    +0.000 A 
ATOM      9  O   UNL     1       4.195   4.736  18.454  0.00  0.00    +0.000 OA
BRANCH   8  10
ATOM     10  N   UNL     1       5.741   3.623  17.030  0.00  0.00    +0.000 N 
ATOM     11  C   UNL     1       5.562   4.161  15.775  0.00  0.00    +0.000 C 
ATOM     12  O   UNL     1       4.521   4.614  15.321  0.00  0.00    +0.000 OA
ATOM     13  N   UNL     1       6.752   4.211  15.067  0.00  0.00    +0.000 N 
ATOM     14  H   UNL     1       6.680   3.440  17.346  0.00  0.00    +0.000 HD
ATOM     15  H   UNL     1       7.406   3.462  15.224  0.00  0.00    +0.000 HD
BRANCH  13  16
ATOM     16  C   UNL     1       6.724   4.759  13.724  0.00  0.00    +0.000 C 
BRANCH  16  17
ATOM     17  C   UNL     1       6.505   3.714  12.660  0.00  0.00    +0.000 A 
ATOM     18  C   UNL     1       7.597   3.093  12.035  0.00  0.00    +0.000 A 
ATOM     19  C   UNL     1       7.399   2.055  11.122  0.00  0.00    +0.000 A 
ATOM     20  C   UNL     1       6.109   1.621  10.826  0.00  0.00    +0.000 A 
ATOM     21  C   UNL     1       5.014   2.227  11.439  0.00  0.00    +0.000 A 
ATOM     22  C   UNL     1       5.210   3.266  12.352  0.00  0.00    +0.000 A 
ENDBRANCH  16  17
ENDBRANCH  13  16
ENDBRANCH   8  10
ENDBRANCH   2   5
BRANCH   1  23
ATOM     23  C   UNL     1       1.971   7.851  20.085  0.00  0.00    +0.000 C 
BRANCH  23  25
ATOM     24  N   UNL     1       0.828   9.964  19.572  0.00  0.00    +0.000 N 
ATOM     25  C   UNL     1       1.543   8.904  19.055  0.00  0.00    +0.000 C 
ATOM     26  O   UNL     1       1.826   8.805  17.864  0.00  0.00    +0.000 OA
ATOM     27  H   UNL     1       0.459   9.856  20.513  0.00  0.00    +0.000 HD
BRANCH  24  28
ATOM     28  C   UNL     1       0.406  11.104  18.742  0.00  0.00    +0.000 C 
BRANCH  28  33
ATOM     29  C   UNL     1      -5.377  11.009  17.783  0.00  0.00    +0.000 C 
ATOM     30  C   UNL     1      -3.898  11.028  18.019  0.00  0.00    +0.000 A 
ATOM     31  C   UNL     1      -3.314  11.995  18.840  0.00  0.00    +0.000 A 
ATOM     32  C   UNL     1      -1.932  12.015  19.039  0.00  0.00    +0.000 A 
ATOM     33  C   UNL     1      -1.090  11.060  18.442  0.00  0.00    +0.000 A 
ATOM     34  C   UNL     1      -1.685  10.082  17.630  0.00  0.00    +0.000 A 
ATOM     35  C   UNL     1      -3.069  10.080  17.407  0.00  0.00    +0.000 A 
ENDBRANCH  28  33
BRANCH  28  36
ATOM     36  C   UNL     1       0.813  12.428  19.418  0.00  0.00    +0.000 C 
BRANCH  36  37
ATOM     37  C   UNL     1       0.922  12.330  20.921  0.00  0.00    +0.000 C 
ATOM     38  O   UNL     1       0.536  11.394  21.604  0.00  0.00    +0.000 OA
BRANCH  37  39
ATOM     39  O   UNL     1       1.439  13.451  21.485  0.00  0.00    +0.000 OA
ATOM     40  H   UNL     1       0.796  14.173  21.612  0.00  0.00    +0.000 HD
ENDBRANCH  37  39
ENDBRANCH  36  37
ENDBRANCH  28  36
ENDBRANCH  24  28
ENDBRANCH  23  25
ENDBRANCH   1  23
TORSDOF 11
ENDMDL
MODEL 7
REMARK VINA RESULT:      -7.1      4.698      7.051
REMARK  Name = 
REMARK  12 active torsions:
REMARK  status: ('A' for Active; 'I' for Inactive)
REMARK    1  A    between atoms: C_1  and  C_2
REMARK    2  A    between atoms: C_5  and  C_6
REMARK    3  A    between atoms: C_6  and  C_7
REMARK    4  A    between atoms: C_6  and  N_11
REMARK    5  A    between atoms: C_7  and  C_8
REMARK    6  A    between atoms: C_8  and  O_10
REMARK    7  A    between atoms: C_12  and  C_14
REMARK    8  A    between atoms: C_14  and  N_15
REMARK    9  A    between atoms: C_16  and  C_18
REMARK   10  A    between atoms: C_21  and  N_22
REMARK   11  A    between atoms: N_25  and  C_26
REMARK   12  A    between atoms: C_26  and  C_27
REMARK                            x       y       z     vdW  Elec       q    Type
REMARK                         _______ _______ _______ _____ _____    ______ ____
ROOT
ATOM      1  N   UNL     1       2.614   5.860  19.832  0.00  0.00    +0.000 N 
ATOM      2  C   UNL     1       2.259   6.583  18.717  0.00  0.00    +0.000 C 
ATOM      3  O   UNL     1       2.193   6.054  17.607  0.00  0.00    +0.000 OA
ATOM      4  H   UNL     1       2.605   6.338  20.730  0.00  0.00    +0.000 HD
ENDROOT
BRANCH   2   5
ATOM      5  C   UNL     1       1.970   7.984  18.963  0.00  0.00    +0.000 A 
ATOM      6  C   UNL     1       1.268   8.601  19.981  0.00  0.00    +0.000 A 
ATOM      7  C   UNL     1       1.324   9.995  19.729  0.00  0.00    +0.000 A 
ATOM      8  C   UNL     1       2.014  10.151  18.551  0.00  0.00    +0.000 A 
ATOM      9  O   UNL     1       2.423   8.935  18.088  0.00  0.00    +0.000 OA
BRANCH   8  10
ATOM     10  N   UNL     1       2.311  11.298  17.847  0.00  0.00    +0.000 N 
ATOM     11  C   UNL     1       2.335  12.541  18.438  0.00  0.00    +0.000 C 
ATOM     12  O   UNL     1       2.069  12.795  19.605  0.00  0.00    +0.000 OA
ATOM     13  N   UNL     1       2.786  13.515  17.562  0.00  0.00    +0.000 N 
ATOM     14  H   UNL     1       2.713  11.194  16.929  0.00  0.00    +0.000 HD
ATOM     15  H   UNL     1       2.537  13.405  16.593  0.00  0.00    +0.000 HD
BRANCH  13  16
ATOM     16  C   UNL     1       2.872  14.880  18.045  0.00  0.00    +0.000 C 
BRANCH  16  17
ATOM     17  C   UNL     1       4.288  15.382  18.159  0.00  0.00    +0.000 A 
ATOM     18  C   UNL     1       4.553  16.655  18.688  0.00  0.00    +0.000 A 
ATOM     19  C   UNL     1       5.868  17.083  18.888  0.00  0.00    +0.000 A 
ATOM     20  C   UNL     1       6.933  16.245  18.566  0.00  0.00    +0.000 A 
ATOM     21  C   UNL     1       6.686  14.979  18.039  0.00  0.00    +0.000 A 
ATOM     22  C   UNL     1       5.371  14.549  17.838  0.00  0.00    +0.000 A 
ENDBRANCH  16  17
ENDBRANCH  13  16
ENDBRANCH   8  10
ENDBRANCH   2   5
BRANCH   1  23
ATOM     23  C   UNL     1       3.005   4.469  19.760  0.00  0.00    +0.000 C 
BRANCH  23  25
ATOM     24  N   UNL     1       4.827   5.045  18.215  0.00  0.00    +0.000 N 
ATOM     25  C   UNL     1       4.452   4.268  19.292  0.00  0.00    +0.000 C 
ATOM     26  O   UNL     1       5.213   3.477  19.843  0.00  0.00    +0.000 OA
ATOM     27  H   UNL     1       4.083   5.501  17.695  0.00  0.00    +0.000 HD
BRANCH  24  28
ATOM     28  C   UNL     1       6.200   5.038  17.685  0.00  0.00    +0.000 C 
BRANCH  28  33
ATOM     29  C   UNL     1       6.434   3.667  11.990  0.00  0.00    +0.000 C 
ATOM     30  C   UNL     1       6.368   4.009  13.447  0.00  0.00    +0.000 A 
ATOM     31  C   UNL     1       7.386   4.742  14.059  0.00  0.00    +0.000 A 
ATOM     32  C   UNL     1       7.323   5.040  15.422  0.00  0.00    +0.000 A 
ATOM     33  C   UNL     1       6.235   4.634  16.214  0.00  0.00    +0.000 A 
ATOM     34  C   UNL     1       5.208   3.910  15.589  0.00  0.00    +0.000 A 
ATOM     35  C   UNL     1       5.285   3.585  14.227  0.00  0.00    +0.000 A 
ENDBRANCH  28  33
BRANCH  28  36
ATOM     36  C   UNL     1       6.861   6.412  17.915  0.00  0.00    +0.000 C 
BRANCH  36  37
ATOM     37  C   UNL     1       7.969   6.386  18.939  0.00  0.00    +0.000 C 
ATOM     38  O   UNL     1       8.230   5.454  19.684  0.00  0.00    +0.000 OA
BRANCH  37  39
ATOM     39  O   UNL     1       8.637   7.564  19.022  0.00  0.00    +0.000 OA
ATOM     40  H   UNL     1       8.063   8.350  19.084  0.00  0.00    +0.000 HD
ENDBRANCH  37  39
ENDBRANCH  36  37
ENDBRANCH  28  36
ENDBRANCH  24  28
ENDBRANCH  23  25
ENDBRANCH   1  23
TORSDOF 11
ENDMDL
MODEL 8
REMARK VINA RESULT:      -7.1      4.855      6.784
REMARK  Name = 
REMARK  12 active torsions:
REMARK  status: ('A' for Active; 'I' for Inactive)
REMARK    1  A    between atoms: C_1  and  C_2
REMARK    2  A    between atoms: C_5  and  C_6
REMARK    3  A    between atoms: C_6  and  C_7
REMARK    4  A    between atoms: C_6  and  N_11
REMARK    5  A    between atoms: C_7  and  C_8
REMARK    6  A    between atoms: C_8  and  O_10
REMARK    7  A    between atoms: C_12  and  C_14
REMARK    8  A    between atoms: C_14  and  N_15
REMARK    9  A    between atoms: C_16  and  C_18
REMARK   10  A    between atoms: C_21  and  N_22
REMARK   11  A    between atoms: N_25  and  C_26
REMARK   12  A    between atoms: C_26  and  C_27
REMARK                            x       y       z     vdW  Elec       q    Type
REMARK                         _______ _______ _______ _____ _____    ______ ____
ROOT
ATOM      1  N   UNL     1       1.497   9.660  20.438  0.00  0.00    +0.000 N 
ATOM      2  C   UNL     1       0.385  10.293  19.934  0.00  0.00    +0.000 C 
ATOM      3  O   UNL     1      -0.719   9.747  19.943  0.00  0.00    +0.000 OA
ATOM      4  H   UNL     1       2.374  10.177  20.449  0.00  0.00    +0.000 HD
ENDROOT
BRANCH   2   5
ATOM      5  C   UNL     1       0.623  11.627  19.414  0.00  0.00    +0.000 A 
ATOM      6  C   UNL     1      -0.180  12.752  19.399  0.00  0.00    +0.000 A 
ATOM      7  C   UNL     1       0.576  13.784  18.785  0.00  0.00    +0.000 A 
ATOM      8  C   UNL     1       1.775  13.223  18.417  0.00  0.00    +0.000 A 
ATOM      9  O   UNL     1       1.817  11.917  18.810  0.00  0.00    +0.000 OA
BRANCH   8  10
ATOM     10  N   UNL     1       2.844  13.782  17.752  0.00  0.00    +0.000 N 
ATOM     11  C   UNL     1       3.867  14.427  18.412  0.00  0.00    +0.000 C 
ATOM     12  O   UNL     1       3.946  14.619  19.617  0.00  0.00    +0.000 OA
ATOM     13  N   UNL     1       4.887  14.786  17.546  0.00  0.00    +0.000 N 
ATOM     14  H   UNL     1       2.976  13.538  16.784  0.00  0.00    +0.000 HD
ATOM     15  H   UNL     1       4.618  15.056  16.614  0.00  0.00    +0.000 HD
BRANCH  13  16
ATOM     16  C   UNL     1       6.041  15.471  18.097  0.00  0.00    +0.000 C 
BRANCH  16  17
ATOM     17  C   UNL     1       7.313  14.668  17.997  0.00  0.00    +0.000 A 
ATOM     18  C   UNL     1       7.277  13.324  17.598  0.00  0.00    +0.000 A 
ATOM     19  C   UNL     1       8.461  12.607  17.408  0.00  0.00    +0.000 A 
ATOM     20  C   UNL     1       9.693  13.224  17.611  0.00  0.00    +0.000 A 
ATOM     21  C   UNL     1       9.744  14.558  18.008  0.00  0.00    +0.000 A 
ATOM     22  C   UNL     1       8.561  15.277  18.199  0.00  0.00    +0.000 A 
ENDBRANCH  16  17
ENDBRANCH  13  16
ENDBRANCH   8  10
ENDBRANCH   2   5
BRANCH   1  23
ATOM     23  C   UNL     1       1.458   8.300  20.929  0.00  0.00    +0.000 C 
BRANCH  23  25
ATOM     24  N   UNL     1       1.761   5.947  20.292  0.00  0.00    +0.000 N 
ATOM     25  C   UNL     1       1.765   7.254  19.850  0.00  0.00    +0.000 C 
ATOM     26  O   UNL     1       1.990   7.565  18.684  0.00  0.00    +0.000 OA
ATOM     27  H   UNL     1       1.781   5.800  21.297  0.00  0.00    +0.000 HD
BRANCH  24  28
ATOM     28  C   UNL     1       1.959   4.811  19.377  0.00  0.00    +0.000 C 
BRANCH  28  33
ATOM     29  C   UNL     1       7.472   4.803  17.385  0.00  0.00    +0.000 C 
ATOM     30  C   UNL     1       6.061   4.801  17.884  0.00  0.00    +0.000 A 
ATOM     31  C   UNL     1       5.784   4.849  19.252  0.00  0.00    +0.000 A 
ATOM     32  C   UNL     1       4.464   4.828  19.709  0.00  0.00    +0.000 A 
ATOM     33  C   UNL     1       3.378   4.778  18.816  0.00  0.00    +0.000 A 
ATOM     34  C   UNL     1       3.664   4.744  17.443  0.00  0.00    +0.000 A 
ATOM     35  C   UNL     1       4.989   4.736  16.986  0.00  0.00    +0.000 A 
ENDBRANCH  28  33
BRANCH  28  36
ATOM     36  C   UNL     1       1.596   3.492  20.088  0.00  0.00    +0.000 C 
BRANCH  36  37
ATOM     37  C   UNL     1       1.501   2.309  19.155  0.00  0.00    +0.000 C 
ATOM     38  O   UNL     1       2.444   1.675  18.709  0.00  0.00    +0.000 OA
BRANCH  37  39
ATOM     39  O   UNL     1       0.226   2.040  18.776  0.00  0.00    +0.000 OA
ATOM     40  H   UNL     1      -0.205   1.329  19.286  0.00  0.00    +0.000 HD
ENDBRANCH  37  39
ENDBRANCH  36  37
ENDBRANCH  28  36
ENDBRANCH  24  28
ENDBRANCH  23  25
ENDBRANCH   1  23
TORSDOF 11
ENDMDL
MODEL 9
REMARK VINA RESULT:      -7.1      6.581     10.117
REMARK  Name = 
REMARK  12 active torsions:
REMARK  status: ('A' for Active; 'I' for Inactive)
REMARK    1  A    between atoms: C_1  and  C_2
REMARK    2  A    between atoms: C_5  and  C_6
REMARK    3  A    between atoms: C_6  and  C_7
REMARK    4  A    between atoms: C_6  and  N_11
REMARK    5  A    between atoms: C_7  and  C_8
REMARK    6  A    between atoms: C_8  and  O_10
REMARK    7  A    between atoms: C_12  and  C_14
REMARK    8  A    between atoms: C_14  and  N_15
REMARK    9  A    between atoms: C_16  and  C_18
REMARK   10  A    between atoms: C_21  and  N_22
REMARK   11  A    between atoms: N_25  and  C_26
REMARK   12  A    between atoms: C_26  and  C_27
REMARK                            x       y       z     vdW  Elec       q    Type
REMARK                         _______ _______ _______ _____ _____    ______ ____
ROOT
ATOM      1  N   UNL     1       0.632   9.563  20.945  0.00  0.00    +0.000 N 
ATOM      2  C   UNL     1       1.006  10.031  19.707  0.00  0.00    +0.000 C 
ATOM      3  O   UNL     1       1.938   9.520  19.086  0.00  0.00    +0.000 OA
ATOM      4  H   UNL     1      -0.176   9.991  21.392  0.00  0.00    +0.000 HD
ENDROOT
BRANCH   2   5
ATOM      5  C   UNL     1       0.217  11.144  19.211  0.00  0.00    +0.000 A 
ATOM      6  C   UNL     1       0.586  12.275  18.507  0.00  0.00    +0.000 A 
ATOM      7  C   UNL     1      -0.603  13.009  18.264  0.00  0.00    +0.000 A 
ATOM      8  C   UNL     1      -1.622  12.315  18.872  0.00  0.00    +0.000 A 
ATOM      9  O   UNL     1      -1.133  11.173  19.436  0.00  0.00    +0.000 OA
BRANCH   8  10
ATOM     10  N   UNL     1      -2.962  12.619  18.968  0.00  0.00    +0.000 N 
ATOM     11  C   UNL     1      -3.505  13.216  20.084  0.00  0.00    +0.000 C 
ATOM     12  O   UNL     1      -2.910  13.510  21.112  0.00  0.00    +0.000 OA
ATOM     13  N   UNL     1      -4.839  13.540  19.893  0.00  0.00    +0.000 N 
ATOM     14  H   UNL     1      -3.513  12.584  18.126  0.00  0.00    +0.000 HD
ATOM     15  H   UNL     1      -5.381  12.912  19.323  0.00  0.00    +0.000 HD
BRANCH  13  16
ATOM     16  C   UNL     1      -5.548  14.183  20.983  0.00  0.00    +0.000 C 
BRANCH  16  17
ATOM     17  C   UNL     1      -6.318  13.214  21.843  0.00  0.00    +0.000 A 
ATOM     18  C   UNL     1      -6.350  13.368  23.237  0.00  0.00    +0.000 A 
ATOM     19  C   UNL     1      -7.144  12.533  24.027  0.00  0.00    +0.000 A 
ATOM     20  C   UNL     1      -7.916  11.537  23.435  0.00  0.00    +0.000 A 
ATOM     21  C   UNL     1      -7.894  11.371  22.052  0.00  0.00    +0.000 A 
ATOM     22  C   UNL     1      -7.101  12.205  21.260  0.00  0.00    +0.000 A 
ENDBRANCH  16  17
ENDBRANCH  13  16
ENDBRANCH   8  10
ENDBRANCH   2   5
BRANCH   1  23
ATOM     23  C   UNL     1       1.353   8.507  21.624  0.00  0.00    +0.000 C 
BRANCH  23  25
ATOM     24  N   UNL     1       2.309   6.669  20.304  0.00  0.00    +0.000 N 
ATOM     25  C   UNL     1       1.188   7.135  20.959  0.00  0.00    +0.000 C 
ATOM     26  O   UNL     1       0.137   6.502  21.017  0.00  0.00    +0.000 OA
ATOM     27  H   UNL     1       3.050   7.342  20.124  0.00  0.00    +0.000 HD
BRANCH  24  28
ATOM     28  C   UNL     1       2.355   5.338  19.678  0.00  0.00    +0.000 C 
BRANCH  28  33
ATOM     29  C   UNL     1       6.068   5.068  15.149  0.00  0.00    +0.000 C 
ATOM     30  C   UNL     1       5.116   5.147  16.303  0.00  0.00    +0.000 A 
ATOM     31  C   UNL     1       4.707   3.993  16.975  0.00  0.00    +0.000 A 
ATOM     32  C   UNL     1       3.804   4.075  18.038  0.00  0.00    +0.000 A 
ATOM     33  C   UNL     1       3.296   5.311  18.477  0.00  0.00    +0.000 A 
ATOM     34  C   UNL     1       3.723   6.467  17.806  0.00  0.00    +0.000 A 
ATOM     35  C   UNL     1       4.605   6.382  16.720  0.00  0.00    +0.000 A 
ENDBRANCH  28  33
BRANCH  28  36
ATOM     36  C   UNL     1       2.740   4.276  20.727  0.00  0.00    +0.000 C 
BRANCH  36  37
ATOM     37  C   UNL     1       1.612   3.334  21.076  0.00  0.00    +0.000 C 
ATOM     38  O   UNL     1       1.686   2.385  21.841  0.00  0.00    +0.000 OA
BRANCH  37  39
ATOM     39  O   UNL     1       0.476   3.594  20.381  0.00  0.00    +0.000 OA
ATOM     40  H   UNL     1       0.270   2.942  19.686  0.00  0.00    +0.000 HD
ENDBRANCH  37  39
ENDBRANCH  36  37
ENDBRANCH  28  36
ENDBRANCH  24  28
ENDBRANCH  23  25
ENDBRANCH   1  23
TORSDOF 11
ENDMDL
