MODEL 1
REMARK VINA RESULT:      -8.0      0.000      0.000
REMARK  Name = 
REMARK  4 active torsions:
REMARK  status: ('A' for Active; 'I' for Inactive)
REMARK    1  A    between atoms: C_1  and  C_2
REMARK    2  A    between atoms: C_2  and  C_3
REMARK    3  A    between atoms: C_5  and  C_6
REMARK    4  A    between atoms: N_14  and  C_15
REMARK                            x       y       z     vdW  Elec       q    Type
REMARK                         _______ _______ _______ _____ _____    ______ ____
ROOT
ATOM      1  C   UNL     1       4.150   6.656  17.478  0.00  0.00    +0.000 A 
ATOM      2  C   UNL     1       3.415   7.780  17.769  0.00  0.00    +0.000 A 
ATOM      3  C   UNL     1       2.352   7.621  18.634  0.00  0.00    +0.000 A 
ATOM      4  N   UNL     1       2.056   6.414  19.168  0.00  0.00    +0.000 NA
ATOM      5  C   UNL     1       2.814   5.356  18.842  0.00  0.00    +0.000 A 
ATOM      6  N   UNL     1       2.491   4.118  19.327  0.00  0.00    +0.000 N 
ATOM      7  C   UNL     1       1.282   3.876  20.107  0.00  0.00    +0.000 C 
ATOM      8  C   UNL     1       1.653   3.341  21.497  0.00  0.00    +0.000 C 
ATOM      9  O   UNL     1       2.524   2.198  21.414  0.00  0.00    +0.000 OA
ATOM     10  C   UNL     1       3.737   2.547  20.724  0.00  0.00    +0.000 C 
ATOM     11  C   UNL     1       3.453   3.021  19.290  0.00  0.00    +0.000 C 
ATOM     12  N   UNL     1       3.868   5.456  18.020  0.00  0.00    +0.000 NA
ENDROOT
BRANCH   3  13
ATOM     13  C   UNL     1       1.475   8.751  18.987  0.00  0.00    +0.000 A 
ATOM     14  C   UNL     1       0.890   9.590  18.018  0.00  0.00    +0.000 A 
ATOM     15  C   UNL     1       0.016  10.597  18.400  0.00  0.00    +0.000 A 
ATOM     16  N   UNL     1      -0.340  10.882  19.665  0.00  0.00    +0.000 NA
ATOM     17  C   UNL     1       0.247  10.081  20.575  0.00  0.00    +0.000 A 
ATOM     18  C   UNL     1       1.132   9.029  20.334  0.00  0.00    +0.000 A 
ATOM     19  C   UNL     1       1.441   8.474  21.612  0.00  0.00    +0.000 A 
ATOM     20  C   UNL     1       0.773   9.202  22.574  0.00  0.00    +0.000 A 
ATOM     21  N   UNL     1       0.054  10.172  21.930  0.00  0.00    +0.000 N 
ATOM     22  C   UNL     1      -0.796  11.151  22.565  0.00  0.00    +0.000 C 
ENDBRANCH   3  13
BRANCH   1  24
ATOM     23  C   UNL     1       5.270   5.412  15.638  0.00  0.00    +0.000 C 
ATOM     24  C   UNL     1       5.243   6.702  16.445  0.00  0.00    +0.000 C 
ENDBRANCH   1  24
TORSDOF 2
ENDMDL
MODEL 2
REMARK VINA RESULT:      -8.0      1.919      3.666
REMARK  Name = 
REMARK  4 active torsions:
REMARK  status: ('A' for Active; 'I' for Inactive)
REMARK    1  A    between atoms: C_1  and  C_2
REMARK    2  A    between atoms: C_2  and  C_3
REMARK    3  A    between atoms: C_5  and  C_6
REMARK    4  A    between atoms: N_14  and  C_15
REMARK                            x       y       z     vdW  Elec       q    Type
REMARK                         _______ _______ _______ _____ _____    ______ ____
ROOT
ATOM      1  C   UNL     1       2.457   5.004  20.473  0.00  0.00    +0.000 A 
ATOM      2  C   UNL     1       1.768   6.193  20.536  0.00  0.00    +0.000 A 
ATOM      3  C   UNL     1       2.159   7.184  19.659  0.00  0.00    +0.000 A 
ATOM      4  N   UNL     1       3.169   6.988  18.782  0.00  0.00    +0.000 NA
ATOM      5  C   UNL     1       3.800   5.804  18.773  0.00  0.00    +0.000 A 
ATOM      6  N   UNL     1       4.863   5.611  17.932  0.00  0.00    +0.000 N 
ATOM      7  C   UNL     1       5.413   6.683  17.111  0.00  0.00    +0.000 C 
ATOM      8  C   UNL     1       5.316   6.310  15.626  0.00  0.00    +0.000 C 
ATOM      9  O   UNL     1       5.902   5.022  15.360  0.00  0.00    +0.000 OA
ATOM     10  C   UNL     1       5.234   4.005  16.128  0.00  0.00    +0.000 C 
ATOM     11  C   UNL     1       5.355   4.268  17.637  0.00  0.00    +0.000 C 
ATOM     12  N   UNL     1       3.452   4.800  19.591  0.00  0.00    +0.000 NA
ENDROOT
BRANCH   3  13
ATOM     13  C   UNL     1       1.514   8.509  19.664  0.00  0.00    +0.000 A 
ATOM     14  C   UNL     1       1.373   9.289  18.499  0.00  0.00    +0.000 A 
ATOM     15  C   UNL     1       0.696  10.499  18.546  0.00  0.00    +0.000 A 
ATOM     16  N   UNL     1       0.143  11.042  19.645  0.00  0.00    +0.000 NA
ATOM     17  C   UNL     1       0.309  10.289  20.749  0.00  0.00    +0.000 A 
ATOM     18  C   UNL     1       0.954   9.055  20.846  0.00  0.00    +0.000 A 
ATOM     19  C   UNL     1       0.831   8.653  22.210  0.00  0.00    +0.000 A 
ATOM     20  C   UNL     1       0.155   9.640  22.894  0.00  0.00    +0.000 A 
ATOM     21  N   UNL     1      -0.155  10.625  21.996  0.00  0.00    +0.000 N 
ATOM     22  C   UNL     1      -0.872  11.841  22.295  0.00  0.00    +0.000 C 
ENDBRANCH   3  13
BRANCH   1  24
ATOM     23  C   UNL     1       1.165   2.930  20.936  0.00  0.00    +0.000 C 
ATOM     24  C   UNL     1       2.194   3.913  21.475  0.00  0.00    +0.000 C 
ENDBRANCH   1  24
TORSDOF 2
ENDMDL
MODEL 3
REMARK VINA RESULT:      -7.9      2.475      4.458
REMARK  Name = 
REMARK  4 active torsions:
REMARK  status: ('A' for Active; 'I' for Inactive)
REMARK    1  A    between atoms: C_1  and  C_2
REMARK    2  A    between atoms: C_2  and  C_3
REMARK    3  A    between atoms: C_5  and  C_6
REMARK    4  A    between atoms: N_14  and  C_15
REMARK                            x       y       z     vdW  Elec       q    Type
REMARK                         _______ _______ _______ _____ _____    ______ ____
ROOT
ATOM      1  C   UNL     1       2.566   3.738  18.170  0.00  0.00    +0.000 A 
ATOM      2  C   UNL     1       1.888   4.755  18.799  0.00  0.00    +0.000 A 
ATOM      3  C   UNL     1       2.576   5.937  18.985  0.00  0.00    +0.000 A 
ATOM      4  N   UNL     1       3.853   6.081  18.564  0.00  0.00    +0.000 NA
ATOM      5  C   UNL     1       4.456   5.047  17.956  0.00  0.00    +0.000 A 
ATOM      6  N   UNL     1       5.767   5.157  17.579  0.00  0.00    +0.000 N 
ATOM      7  C   UNL     1       6.578   6.324  17.905  0.00  0.00    +0.000 C 
ATOM      8  C   UNL     1       7.080   6.992  16.617  0.00  0.00    +0.000 C 
ATOM      9  O   UNL     1       7.744   6.052  15.752  0.00  0.00    +0.000 OA
ATOM     10  C   UNL     1       6.845   4.989  15.391  0.00  0.00    +0.000 C 
ATOM     11  C   UNL     1       6.357   4.218  16.629  0.00  0.00    +0.000 C 
ATOM     12  N   UNL     1       3.831   3.882  17.735  0.00  0.00    +0.000 NA
ENDROOT
BRANCH   3  13
ATOM     13  C   UNL     1       1.960   7.081  19.680  0.00  0.00    +0.000 A 
ATOM     14  C   UNL     1       1.500   7.004  21.009  0.00  0.00    +0.000 A 
ATOM     15  C   UNL     1       0.990   8.130  21.639  0.00  0.00    +0.000 A 
ATOM     16  N   UNL     1       0.870   9.349  21.083  0.00  0.00    +0.000 NA
ATOM     17  C   UNL     1       1.297   9.393  19.806  0.00  0.00    +0.000 A 
ATOM     18  C   UNL     1       1.838   8.348  19.055  0.00  0.00    +0.000 A 
ATOM     19  C   UNL     1       2.164   8.906  17.782  0.00  0.00    +0.000 A 
ATOM     20  C   UNL     1       1.798  10.234  17.784  0.00  0.00    +0.000 A 
ATOM     21  N   UNL     1       1.274  10.515  19.017  0.00  0.00    +0.000 N 
ATOM     22  C   UNL     1       0.774  11.799  19.446  0.00  0.00    +0.000 C 
ENDBRANCH   3  13
BRANCH   1  24
ATOM     23  C   UNL     1       0.742   2.243  18.960  0.00  0.00    +0.000 C 
ATOM     24  C   UNL     1       1.948   2.372  18.041  0.00  0.00    +0.000 C 
ENDBRANCH   1  24
TORSDOF 2
ENDMDL
MODEL 4
REMARK VINA RESULT:      -7.6      1.252      1.422
REMARK  Name = 
REMARK  4 active torsions:
REMARK  status: ('A' for Active; 'I' for Inactive)
REMARK    1  A    between atoms: C_1  and  C_2
REMARK    2  A    between atoms: C_2  and  C_3
REMARK    3  A    between atoms: C_5  and  C_6
REMARK    4  A    between atoms: N_14  and  C_15
REMARK                            x       y       z     vdW  Elec       q    Type
REMARK                         _______ _______ _______ _____ _____    ______ ____
ROOT
ATOM      1  C   UNL     1       4.886   6.336  17.221  0.00  0.00    +0.000 A 
ATOM      2  C   UNL     1       4.224   7.476  17.609  0.00  0.00    +0.000 A 
ATOM      3  C   UNL     1       2.945   7.315  18.102  0.00  0.00    +0.000 A 
ATOM      4  N   UNL     1       2.378   6.091  18.197  0.00  0.00    +0.000 NA
ATOM      5  C   UNL     1       3.079   5.018  17.800  0.00  0.00    +0.000 A 
ATOM      6  N   UNL     1       2.497   3.780  17.834  0.00  0.00    +0.000 N 
ATOM      7  C   UNL     1       1.096   3.586  18.188  0.00  0.00    +0.000 C 
ATOM      8  C   UNL     1       0.987   2.688  19.428  0.00  0.00    +0.000 C 
ATOM      9  O   UNL     1       1.715   1.458  19.262  0.00  0.00    +0.000 OA
ATOM     10  C   UNL     1       3.106   1.733  19.021  0.00  0.00    +0.000 C 
ATOM     11  C   UNL     1       3.304   2.567  17.745  0.00  0.00    +0.000 C 
ATOM     12  N   UNL     1       4.330   5.114  17.329  0.00  0.00    +0.000 NA
ENDROOT
BRANCH   3  13
ATOM     13  C   UNL     1       2.131   8.472  18.514  0.00  0.00    +0.000 A 
ATOM     14  C   UNL     1       1.803   9.522  17.633  0.00  0.00    +0.000 A 
ATOM     15  C   UNL     1       0.975  10.554  18.052  0.00  0.00    +0.000 A 
ATOM     16  N   UNL     1       0.436  10.672  19.279  0.00  0.00    +0.000 NA
ATOM     17  C   UNL     1       0.781   9.669  20.109  0.00  0.00    +0.000 A 
ATOM     18  C   UNL     1       1.590   8.569  19.820  0.00  0.00    +0.000 A 
ATOM     19  C   UNL     1       1.621   7.781  21.011  0.00  0.00    +0.000 A 
ATOM     20  C   UNL     1       0.870   8.420  21.974  0.00  0.00    +0.000 A 
ATOM     21  N   UNL     1       0.367   9.562  21.413  0.00  0.00    +0.000 N 
ATOM     22  C   UNL     1      -0.483  10.521  22.076  0.00  0.00    +0.000 C 
ENDBRANCH   3  13
BRANCH   1  24
ATOM     23  C   UNL     1       7.231   7.131  17.448  0.00  0.00    +0.000 C 
ATOM     24  C   UNL     1       6.230   6.422  16.549  0.00  0.00    +0.000 C 
ENDBRANCH   1  24
TORSDOF 2
ENDMDL
MODEL 5
REMARK VINA RESULT:      -7.6      1.988      4.241
REMARK  Name = 
REMARK  4 active torsions:
REMARK  status: ('A' for Active; 'I' for Inactive)
REMARK    1  A    between atoms: C_1  and  C_2
REMARK    2  A    between atoms: C_2  and  C_3
REMARK    3  A    between atoms: C_5  and  C_6
REMARK    4  A    between atoms: N_14  and  C_15
REMARK                            x       y       z     vdW  Elec       q    Type
REMARK                         _______ _______ _______ _____ _____    ______ ____
ROOT
ATOM      1  C   UNL     1       1.758   4.275  20.059  0.00  0.00    +0.000 A 
ATOM      2  C   UNL     1       1.268   5.487  20.483  0.00  0.00    +0.000 A 
ATOM      3  C   UNL     1       1.948   6.613  20.064  0.00  0.00    +0.000 A 
ATOM      4  N   UNL     1       3.040   6.519  19.272  0.00  0.00    +0.000 NA
ATOM      5  C   UNL     1       3.466   5.304  18.894  0.00  0.00    +0.000 A 
ATOM      6  N   UNL     1       4.604   5.191  18.143  0.00  0.00    +0.000 N 
ATOM      7  C   UNL     1       5.444   6.338  17.819  0.00  0.00    +0.000 C 
ATOM      8  C   UNL     1       5.526   6.516  16.296  0.00  0.00    +0.000 C 
ATOM      9  O   UNL     1       5.931   5.302  15.638  0.00  0.00    +0.000 OA
ATOM     10  C   UNL     1       4.995   4.248  15.922  0.00  0.00    +0.000 C 
ATOM     11  C   UNL     1       4.914   3.955  17.429  0.00  0.00    +0.000 C 
ATOM     12  N   UNL     1       2.835   4.179  19.258  0.00  0.00    +0.000 NA
ENDROOT
BRANCH   3  13
ATOM     13  C   UNL     1       1.532   7.961  20.488  0.00  0.00    +0.000 A 
ATOM     14  C   UNL     1       1.212   8.272  21.824  0.00  0.00    +0.000 A 
ATOM     15  C   UNL     1       0.894   9.574  22.182  0.00  0.00    +0.000 A 
ATOM     16  N   UNL     1       0.842  10.623  21.343  0.00  0.00    +0.000 NA
ATOM     17  C   UNL     1       1.131  10.298  20.068  0.00  0.00    +0.000 A 
ATOM     18  C   UNL     1       1.477   9.041  19.571  0.00  0.00    +0.000 A 
ATOM     19  C   UNL     1       1.720   9.223  18.176  0.00  0.00    +0.000 A 
ATOM     20  C   UNL     1       1.496  10.547  17.866  0.00  0.00    +0.000 A 
ATOM     21  N   UNL     1       1.140  11.186  19.023  0.00  0.00    +0.000 N 
ATOM     22  C   UNL     1       0.826  12.589  19.146  0.00  0.00    +0.000 C 
ENDBRANCH   3  13
BRANCH   1  24
ATOM     23  C   UNL     1       1.876   2.542  21.839  0.00  0.00    +0.000 C 
ATOM     24  C   UNL     1       1.166   2.989  20.570  0.00  0.00    +0.000 C 
ENDBRANCH   1  24
TORSDOF 2
ENDMDL
MODEL 6
REMARK VINA RESULT:      -7.4      2.238      3.758
REMARK  Name = 
REMARK  4 active torsions:
REMARK  status: ('A' for Active; 'I' for Inactive)
REMARK    1  A    between atoms: C_1  and  C_2
REMARK    2  A    between atoms: C_2  and  C_3
REMARK    3  A    between atoms: C_5  and  C_6
REMARK    4  A    between atoms: N_14  and  C_15
REMARK                            x       y       z     vdW  Elec       q    Type
REMARK                         _______ _______ _______ _____ _____    ______ ____
ROOT
ATOM      1  C   UNL     1       2.077   4.481  18.217  0.00  0.00    +0.000 A 
ATOM      2  C   UNL     1       1.573   5.733  18.477  0.00  0.00    +0.000 A 
ATOM      3  C   UNL     1       2.459   6.788  18.398  0.00  0.00    +0.000 A 
ATOM      4  N   UNL     1       3.758   6.592  18.078  0.00  0.00    +0.000 NA
ATOM      5  C   UNL     1       4.186   5.343  17.835  0.00  0.00    +0.000 A 
ATOM      6  N   UNL     1       5.509   5.122  17.568  0.00  0.00    +0.000 N 
ATOM      7  C   UNL     1       6.508   6.183  17.640  0.00  0.00    +0.000 C 
ATOM      8  C   UNL     1       7.181   6.363  16.272  0.00  0.00    +0.000 C 
ATOM      9  O   UNL     1       7.697   5.119  15.764  0.00  0.00    +0.000 OA
ATOM     10  C   UNL     1       6.634   4.161  15.623  0.00  0.00    +0.000 C 
ATOM     11  C   UNL     1       5.957   3.867  16.971  0.00  0.00    +0.000 C 
ATOM     12  N   UNL     1       3.366   4.284  17.882  0.00  0.00    +0.000 NA
ENDROOT
BRANCH   3  13
ATOM     13  C   UNL     1       2.035   8.168  18.692  0.00  0.00    +0.000 A 
ATOM     14  C   UNL     1       2.150   9.214  17.755  0.00  0.00    +0.000 A 
ATOM     15  C   UNL     1       1.672  10.480  18.058  0.00  0.00    +0.000 A 
ATOM     16  N   UNL     1       1.092  10.839  19.218  0.00  0.00    +0.000 NA
ATOM     17  C   UNL     1       1.012   9.828  20.105  0.00  0.00    +0.000 A 
ATOM     18  C   UNL     1       1.439   8.511  19.932  0.00  0.00    +0.000 A 
ATOM     19  C   UNL     1       1.102   7.827  21.139  0.00  0.00    +0.000 A 
ATOM     20  C   UNL     1       0.518   8.729  22.001  0.00  0.00    +0.000 A 
ATOM     21  N   UNL     1       0.470   9.938  21.361  0.00  0.00    +0.000 N 
ATOM     22  C   UNL     1      -0.076  11.158  21.906  0.00  0.00    +0.000 C 
ENDBRANCH   3  13
BRANCH   1  24
ATOM     23  C   UNL     1       2.045   2.118  18.993  0.00  0.00    +0.000 C 
ATOM     24  C   UNL     1       1.223   3.257  18.407  0.00  0.00    +0.000 C 
ENDBRANCH   1  24
TORSDOF 2
ENDMDL
MODEL 7
REMARK VINA RESULT:      -7.0      0.931      2.110
REMARK  Name = 
REMARK  4 active torsions:
REMARK  status: ('A' for Active; 'I' for Inactive)
REMARK    1  A    between atoms: C_1  and  C_2
REMARK    2  A    between atoms: C_2  and  C_3
REMARK    3  A    between atoms: C_5  and  C_6
REMARK    4  A    between atoms: N_14  and  C_15
REMARK                            x       y       z     vdW  Elec       q    Type
REMARK                         _______ _______ _______ _____ _____    ______ ____
ROOT
ATOM      1  C   UNL     1       3.332   7.097  17.893  0.00  0.00    +0.000 A 
ATOM      2  C   UNL     1       2.674   8.108  18.553  0.00  0.00    +0.000 A 
ATOM      3  C   UNL     1       1.905   7.742  19.640  0.00  0.00    +0.000 A 
ATOM      4  N   UNL     1       1.810   6.451  20.031  0.00  0.00    +0.000 NA
ATOM      5  C   UNL     1       2.479   5.514  19.342  0.00  0.00    +0.000 A 
ATOM      6  N   UNL     1       2.346   4.197  19.689  0.00  0.00    +0.000 N 
ATOM      7  C   UNL     1       1.416   3.752  20.721  0.00  0.00    +0.000 C 
ATOM      8  C   UNL     1       2.182   3.047  21.850  0.00  0.00    +0.000 C 
ATOM      9  O   UNL     1       3.029   1.999  21.346  0.00  0.00    +0.000 OA
ATOM     10  C   UNL     1       3.985   2.536  20.416  0.00  0.00    +0.000 C 
ATOM     11  C   UNL     1       3.293   3.193  19.211  0.00  0.00    +0.000 C 
ATOM     12  N   UNL     1       3.253   5.813  18.289  0.00  0.00    +0.000 NA
ENDROOT
BRANCH   3  13
ATOM     13  C   UNL     1       1.128   8.738  20.398  0.00  0.00    +0.000 A 
ATOM     14  C   UNL     1       1.171   8.824  21.804  0.00  0.00    +0.000 A 
ATOM     15  C   UNL     1       0.474   9.825  22.465  0.00  0.00    +0.000 A 
ATOM     16  N   UNL     1      -0.289  10.763  21.877  0.00  0.00    +0.000 NA
ATOM     17  C   UNL     1      -0.331  10.649  20.536  0.00  0.00    +0.000 A 
ATOM     18  C   UNL     1       0.324   9.704  19.744  0.00  0.00    +0.000 A 
ATOM     19  C   UNL     1      -0.010  10.025  18.393  0.00  0.00    +0.000 A 
ATOM     20  C   UNL     1      -0.858  11.111  18.401  0.00  0.00    +0.000 A 
ATOM     21  N   UNL     1      -1.043  11.478  19.707  0.00  0.00    +0.000 N 
ATOM     22  C   UNL     1      -1.857  12.579  20.164  0.00  0.00    +0.000 C 
ENDBRANCH   3  13
BRANCH   1  24
ATOM     23  C   UNL     1       5.085   6.266  16.337  0.00  0.00    +0.000 C 
ATOM     24  C   UNL     1       4.086   7.378  16.621  0.00  0.00    +0.000 C 
ENDBRANCH   1  24
TORSDOF 2
ENDMDL
MODEL 8
REMARK VINA RESULT:      -6.9      1.151      2.159
REMARK  Name = 
REMARK  4 active torsions:
REMARK  status: ('A' for Active; 'I' for Inactive)
REMARK    1  A    between atoms: C_1  and  C_2
REMARK    2  A    between atoms: C_2  and  C_3
REMARK    3  A    between atoms: C_5  and  C_6
REMARK    4  A    between atoms: N_14  and  C_15
REMARK                            x       y       z     vdW  Elec       q    Type
REMARK                         _______ _______ _______ _____ _____    ______ ____
ROOT
ATOM      1  C   UNL     1       3.968   6.704  17.326  0.00  0.00    +0.000 A 
ATOM      2  C   UNL     1       3.403   7.656  18.142  0.00  0.00    +0.000 A 
ATOM      3  C   UNL     1       2.416   7.227  19.006  0.00  0.00    +0.000 A 
ATOM      4  N   UNL     1       2.031   5.932  19.045  0.00  0.00    +0.000 NA
ATOM      5  C   UNL     1       2.623   5.053  18.221  0.00  0.00    +0.000 A 
ATOM      6  N   UNL     1       2.202   3.751  18.206  0.00  0.00    +0.000 N 
ATOM      7  C   UNL     1       1.054   3.293  18.980  0.00  0.00    +0.000 C 
ATOM      8  C   UNL     1       1.490   2.206  19.973  0.00  0.00    +0.000 C 
ATOM      9  O   UNL     1       2.206   1.142  19.319  0.00  0.00    +0.000 OA
ATOM     10  C   UNL     1       3.380   1.660  18.670  0.00  0.00    +0.000 C 
ATOM     11  C   UNL     1       3.019   2.703  17.600  0.00  0.00    +0.000 C 
ATOM     12  N   UNL     1       3.598   5.411  17.373  0.00  0.00    +0.000 NA
ENDROOT
BRANCH   3  13
ATOM     13  C   UNL     1       1.718   8.168  19.900  0.00  0.00    +0.000 A 
ATOM     14  C   UNL     1       1.790   8.077  21.304  0.00  0.00    +0.000 A 
ATOM     15  C   UNL     1       1.170   9.030  22.099  0.00  0.00    +0.000 A 
ATOM     16  N   UNL     1       0.459  10.079  21.649  0.00  0.00    +0.000 NA
ATOM     17  C   UNL     1       0.387  10.133  20.305  0.00  0.00    +0.000 A 
ATOM     18  C   UNL     1       0.966   9.255  19.388  0.00  0.00    +0.000 A 
ATOM     19  C   UNL     1       0.631   9.759  18.095  0.00  0.00    +0.000 A 
ATOM     20  C   UNL     1      -0.145  10.886  18.257  0.00  0.00    +0.000 A 
ATOM     21  N   UNL     1      -0.284  11.101  19.601  0.00  0.00    +0.000 N 
ATOM     22  C   UNL     1      -1.018  12.185  20.209  0.00  0.00    +0.000 C 
ENDBRANCH   3  13
BRANCH   1  24
ATOM     23  C   UNL     1       5.443   5.870  15.506  0.00  0.00    +0.000 C 
ATOM     24  C   UNL     1       4.954   7.098  16.260  0.00  0.00    +0.000 C 
ENDBRANCH   1  24
TORSDOF 2
ENDMDL
MODEL 9
REMARK VINA RESULT:      -6.8      5.792      8.135
REMARK  Name = 
REMARK  4 active torsions:
REMARK  status: ('A' for Active; 'I' for Inactive)
REMARK    1  A    between atoms: C_1  and  C_2
REMARK    2  A    between atoms: C_2  and  C_3
REMARK    3  A    between atoms: C_5  and  C_6
REMARK    4  A    between atoms: N_14  and  C_15
REMARK                            x       y       z     vdW  Elec       q    Type
REMARK                         _______ _______ _______ _____ _____    ______ ____
ROOT
ATOM      1  C   UNL     1       0.492  10.488  21.036  0.00  0.00    +0.000 A 
ATOM      2  C   UNL     1      -0.562  10.274  20.180  0.00  0.00    +0.000 A 
ATOM      3  C   UNL     1      -0.926  11.328  19.367  0.00  0.00    +0.000 A 
ATOM      4  N   UNL     1      -0.270  12.509  19.413  0.00  0.00    +0.000 NA
ATOM      5  C   UNL     1       0.752  12.652  20.271  0.00  0.00    +0.000 A 
ATOM      6  N   UNL     1       1.386  13.860  20.372  0.00  0.00    +0.000 N 
ATOM      7  C   UNL     1       0.928  15.044  19.654  0.00  0.00    +0.000 C 
ATOM      8  C   UNL     1       2.033  15.550  18.716  0.00  0.00    +0.000 C 
ATOM      9  O   UNL     1       3.278  15.743  19.411  0.00  0.00    +0.000 OA
ATOM     10  C   UNL     1       3.714  14.506  20.001  0.00  0.00    +0.000 C 
ATOM     11  C   UNL     1       2.691  13.973  21.017  0.00  0.00    +0.000 C 
ATOM     12  N   UNL     1       1.158  11.657  21.073  0.00  0.00    +0.000 NA
ENDROOT
BRANCH   3  13
ATOM     13  C   UNL     1      -2.065  11.221  18.438  0.00  0.00    +0.000 A 
ATOM     14  C   UNL     1      -1.980  10.541  17.207  0.00  0.00    +0.000 A 
ATOM     15  C   UNL     1      -3.101  10.411  16.401  0.00  0.00    +0.000 A 
ATOM     16  N   UNL     1      -4.322  10.902  16.677  0.00  0.00    +0.000 NA
ATOM     17  C   UNL     1      -4.374  11.566  17.848  0.00  0.00    +0.000 A 
ATOM     18  C   UNL     1      -3.334  11.764  18.758  0.00  0.00    +0.000 A 
ATOM     19  C   UNL     1      -3.900  12.491  19.849  0.00  0.00    +0.000 A 
ATOM     20  C   UNL     1      -5.227  12.732  19.569  0.00  0.00    +0.000 A 
ATOM     21  N   UNL     1      -5.500  12.165  18.353  0.00  0.00    +0.000 N 
ATOM     22  C   UNL     1      -6.781  12.177  17.687  0.00  0.00    +0.000 C 
ENDBRANCH   3  13
BRANCH   1  24
ATOM     23  C   UNL     1      -0.045   9.516  23.261  0.00  0.00    +0.000 C 
ATOM     24  C   UNL     1       0.877   9.447  22.052  0.00  0.00    +0.000 C 
ENDBRANCH   1  24
TORSDOF 2
ENDMDL
