MODEL 1
REMARK VINA RESULT:      -7.8      0.000      0.000
REMARK  Name = 
REMARK  9 active torsions:
REMARK  status: ('A' for Active; 'I' for Inactive)
REMARK    1  A    between atoms: C_1  and  O_2
REMARK    2  A    between atoms: O_2  and  C_3
REMARK    3  A    between atoms: C_5  and  C_6
REMARK    4  A    between atoms: N_10  and  C_11
REMARK    5  A    between atoms: C_14  and  C_15
REMARK    6  A    between atoms: C_26  and  O_27
REMARK    7  A    between atoms: O_27  and  C_28
REMARK    8  A    between atoms: C_29  and  O_30
REMARK    9  A    between atoms: O_30  and  C_31
REMARK                            x       y       z     vdW  Elec       q    Type
REMARK                         _______ _______ _______ _____ _____    ______ ____
ROOT
ATOM      1  C   UNL     1       1.127  10.489  19.052  0.00  0.00    +0.000 C 
ATOM      2  C   UNL     1       1.917   9.916  17.867  0.00  0.00    +0.000 C 
ATOM      3  C   UNL     1       2.383   8.460  17.931  0.00  0.00    +0.000 C 
ATOM      4  O   UNL     1       2.989   8.004  16.946  0.00  0.00    +0.000 OA
ATOM      5  N   UNL     1       2.097   7.705  19.077  0.00  0.00    +0.000 N 
ATOM      6  C   UNL     1       1.469   8.274  20.161  0.00  0.00    +0.000 C 
ATOM      7  C   UNL     1       1.062   9.536  20.178  0.00  0.00    +0.000 C 
ATOM      8  C   UNL     1       0.586   9.807  21.530  0.00  0.00    +0.000 C 
ATOM      9  O   UNL     1       0.184  10.876  21.937  0.00  0.00    +0.000 OA
ATOM     10  O   UNL     1       0.686   8.672  22.279  0.00  0.00    +0.000 OA
ATOM     11  C   UNL     1       1.247   7.627  21.478  0.00  0.00    +0.000 C 
ENDROOT
BRANCH   5  12
ATOM     12  C   UNL     1       2.553   6.350  19.111  0.00  0.00    +0.000 A 
ATOM     13  C   UNL     1       3.893   6.063  19.386  0.00  0.00    +0.000 A 
ATOM     14  C   UNL     1       4.337   4.740  19.442  0.00  0.00    +0.000 A 
ATOM     15  C   UNL     1       3.454   3.676  19.202  0.00  0.00    +0.000 A 
ATOM     16  C   UNL     1       3.963   2.264  19.256  0.00  0.00    +0.000 C 
ATOM     17  C   UNL     1       2.114   3.974  18.910  0.00  0.00    +0.000 A 
ATOM     18 CL   UNL     1       0.968   2.727  18.565  0.00  0.00    +0.000 Cl
ATOM     19  C   UNL     1       1.661   5.296  18.878  0.00  0.00    +0.000 A 
ENDBRANCH   5  12
BRANCH   1  22
ATOM     20  C   UNL     1      -2.358  10.412  17.486  0.00  0.00    +0.000 A 
ATOM     21  C   UNL     1      -0.971  10.258  17.642  0.00  0.00    +0.000 A 
ATOM     22  C   UNL     1      -0.280  10.917  18.657  0.00  0.00    +0.000 A 
ATOM     23  C   UNL     1      -0.971  11.872  19.404  0.00  0.00    +0.000 A 
ATOM     24  C   UNL     1      -2.335  12.136  19.186  0.00  0.00    +0.000 A 
ATOM     25  C   UNL     1      -3.055  11.390  18.226  0.00  0.00    +0.000 A 
BRANCH  20  27
ATOM     26  C   UNL     1      -3.037  10.049  15.250  0.00  0.00    +0.000 C 
ATOM     27  O   UNL     1      -3.020   9.591  16.606  0.00  0.00    +0.000 OA
ENDBRANCH  20  27
BRANCH  24  28
ATOM     28  O   UNL     1      -2.788  13.115  20.037  0.00  0.00    +0.000 OA
ATOM     29  C   UNL     1      -3.006  12.814  21.405  0.00  0.00    +0.000 C 
ENDBRANCH  24  28
BRANCH  25  30
ATOM     30  O   UNL     1      -4.382  11.697  18.104  0.00  0.00    +0.000 OA
ATOM     31  C   UNL     1      -5.379  10.874  18.684  0.00  0.00    +0.000 C 
ENDBRANCH  25  30
ENDBRANCH   1  22
TORSDOF 5
ENDMDL
MODEL 2
REMARK VINA RESULT:      -7.7      0.379      2.302
REMARK  Name = 
REMARK  9 active torsions:
REMARK  status: ('A' for Active; 'I' for Inactive)
REMARK    1  A    between atoms: C_1  and  O_2
REMARK    2  A    between atoms: O_2  and  C_3
REMARK    3  A    between atoms: C_5  and  C_6
REMARK    4  A    between atoms: N_10  and  C_11
REMARK    5  A    between atoms: C_14  and  C_15
REMARK    6  A    between atoms: C_26  and  O_27
REMARK    7  A    between atoms: O_27  and  C_28
REMARK    8  A    between atoms: C_29  and  O_30
REMARK    9  A    between atoms: O_30  and  C_31
REMARK                            x       y       z     vdW  Elec       q    Type
REMARK                         _______ _______ _______ _____ _____    ______ ____
ROOT
ATOM      1  C   UNL     1       0.917  10.327  19.084  0.00  0.00    +0.000 C 
ATOM      2  C   UNL     1       1.632   9.761  17.849  0.00  0.00    +0.000 C 
ATOM      3  C   UNL     1       2.236   8.357  17.929  0.00  0.00    +0.000 C 
ATOM      4  O   UNL     1       2.778   7.903  16.907  0.00  0.00    +0.000 OA
ATOM      5  N   UNL     1       2.140   7.645  19.133  0.00  0.00    +0.000 N 
ATOM      6  C   UNL     1       1.576   8.216  20.251  0.00  0.00    +0.000 C 
ATOM      7  C   UNL     1       1.057   9.436  20.253  0.00  0.00    +0.000 C 
ATOM      8  C   UNL     1       0.698   9.738  21.635  0.00  0.00    +0.000 C 
ATOM      9  O   UNL     1       0.242  10.789  22.033  0.00  0.00    +0.000 OA
ATOM     10  O   UNL     1       0.979   8.659  22.420  0.00  0.00    +0.000 OA
ATOM     11  C   UNL     1       1.551   7.625  21.612  0.00  0.00    +0.000 C 
ENDROOT
BRANCH   5  12
ATOM     12  C   UNL     1       2.721   6.340  19.181  0.00  0.00    +0.000 A 
ATOM     13  C   UNL     1       4.101   6.187  19.349  0.00  0.00    +0.000 A 
ATOM     14  C   UNL     1       4.670   4.913  19.418  0.00  0.00    +0.000 A 
ATOM     15  C   UNL     1       3.872   3.764  19.297  0.00  0.00    +0.000 A 
ATOM     16  C   UNL     1       4.514   2.407  19.362  0.00  0.00    +0.000 C 
ATOM     17  C   UNL     1       2.491   3.927  19.112  0.00  0.00    +0.000 A 
ATOM     18 CL   UNL     1       1.442   2.567  18.917  0.00  0.00    +0.000 Cl
ATOM     19  C   UNL     1       1.915   5.200  19.068  0.00  0.00    +0.000 A 
ENDBRANCH   5  12
BRANCH   1  22
ATOM     20  C   UNL     1      -2.493  12.051  19.154  0.00  0.00    +0.000 A 
ATOM     21  C   UNL     1      -1.254  11.546  19.580  0.00  0.00    +0.000 A 
ATOM     22  C   UNL     1      -0.557  10.607  18.822  0.00  0.00    +0.000 A 
ATOM     23  C   UNL     1      -1.203  10.050  17.717  0.00  0.00    +0.000 A 
ATOM     24  C   UNL     1      -2.496  10.450  17.338  0.00  0.00    +0.000 A 
ATOM     25  C   UNL     1      -3.157  11.476  18.050  0.00  0.00    +0.000 A 
BRANCH  20  27
ATOM     26  C   UNL     1      -3.663  12.784  21.074  0.00  0.00    +0.000 C 
ATOM     27  O   UNL     1      -3.041  13.115  19.829  0.00  0.00    +0.000 OA
ENDBRANCH  20  27
BRANCH  24  28
ATOM     28  O   UNL     1      -2.918   9.758  16.229  0.00  0.00    +0.000 OA
ATOM     29  C   UNL     1      -2.913  10.390  14.960  0.00  0.00    +0.000 C 
ENDBRANCH  24  28
BRANCH  25  30
ATOM     30  O   UNL     1      -4.399  11.817  17.592  0.00  0.00    +0.000 OA
ATOM     31  C   UNL     1      -5.564  11.191  18.102  0.00  0.00    +0.000 C 
ENDBRANCH  25  30
ENDBRANCH   1  22
TORSDOF 5
ENDMDL
MODEL 3
REMARK VINA RESULT:      -7.6      1.172      2.696
REMARK  Name = 
REMARK  9 active torsions:
REMARK  status: ('A' for Active; 'I' for Inactive)
REMARK    1  A    between atoms: C_1  and  O_2
REMARK    2  A    between atoms: O_2  and  C_3
REMARK    3  A    between atoms: C_5  and  C_6
REMARK    4  A    between atoms: N_10  and  C_11
REMARK    5  A    between atoms: C_14  and  C_15
REMARK    6  A    between atoms: C_26  and  O_27
REMARK    7  A    between atoms: O_27  and  C_28
REMARK    8  A    between atoms: C_29  and  O_30
REMARK    9  A    between atoms: O_30  and  C_31
REMARK                            x       y       z     vdW  Elec       q    Type
REMARK                         _______ _______ _______ _____ _____    ______ ____
ROOT
ATOM      1  C   UNL     1       0.716  10.517  19.126  0.00  0.00    +0.000 C 
ATOM      2  C   UNL     1       1.422   9.947  17.887  0.00  0.00    +0.000 C 
ATOM      3  C   UNL     1       2.070   8.564  17.982  0.00  0.00    +0.000 C 
ATOM      4  O   UNL     1       2.605   8.106  16.958  0.00  0.00    +0.000 OA
ATOM      5  N   UNL     1       2.021   7.874  19.202  0.00  0.00    +0.000 N 
ATOM      6  C   UNL     1       1.463   8.450  20.320  0.00  0.00    +0.000 C 
ATOM      7  C   UNL     1       0.907   9.654  20.309  0.00  0.00    +0.000 C 
ATOM      8  C   UNL     1       0.568   9.973  21.692  0.00  0.00    +0.000 C 
ATOM      9  O   UNL     1       0.088  11.018  22.079  0.00  0.00    +0.000 OA
ATOM     10  O   UNL     1       0.898   8.919  22.492  0.00  0.00    +0.000 OA
ATOM     11  C   UNL     1       1.484   7.887  21.693  0.00  0.00    +0.000 C 
ENDROOT
BRANCH   5  12
ATOM     12  C   UNL     1       2.643   6.588  19.263  0.00  0.00    +0.000 A 
ATOM     13  C   UNL     1       1.864   5.430  19.332  0.00  0.00    +0.000 A 
ATOM     14  C   UNL     1       2.467   4.170  19.370  0.00  0.00    +0.000 A 
ATOM     15  C   UNL     1       3.865   4.045  19.362  0.00  0.00    +0.000 A 
ATOM     16  C   UNL     1       4.486   2.678  19.417  0.00  0.00    +0.000 C 
ATOM     17  C   UNL     1       4.640   5.214  19.310  0.00  0.00    +0.000 A 
ATOM     18 CL   UNL     1       6.367   5.152  19.334  0.00  0.00    +0.000 Cl
ATOM     19  C   UNL     1       4.039   6.474  19.246  0.00  0.00    +0.000 A 
ENDBRANCH   5  12
BRANCH   1  22
ATOM     20  C   UNL     1      -2.751  12.118  19.267  0.00  0.00    +0.000 A 
ATOM     21  C   UNL     1      -1.489  11.653  19.669  0.00  0.00    +0.000 A 
ATOM     22  C   UNL     1      -0.771  10.747  18.890  0.00  0.00    +0.000 A 
ATOM     23  C   UNL     1      -1.414  10.177  17.790  0.00  0.00    +0.000 A 
ATOM     24  C   UNL     1      -2.727  10.535  17.435  0.00  0.00    +0.000 A 
ATOM     25  C   UNL     1      -3.412  11.530  18.167  0.00  0.00    +0.000 A 
BRANCH  20  27
ATOM     26  C   UNL     1      -3.934  12.787  21.202  0.00  0.00    +0.000 C 
ATOM     27  O   UNL     1      -3.325  13.156  19.961  0.00  0.00    +0.000 OA
ENDBRANCH  20  27
BRANCH  24  28
ATOM     28  O   UNL     1      -3.142   9.839  16.326  0.00  0.00    +0.000 OA
ATOM     29  C   UNL     1      -2.973  10.403  15.036  0.00  0.00    +0.000 C 
ENDBRANCH  24  28
BRANCH  25  30
ATOM     30  O   UNL     1      -4.672  11.831  17.732  0.00  0.00    +0.000 OA
ATOM     31  C   UNL     1      -5.807  11.169  18.263  0.00  0.00    +0.000 C 
ENDBRANCH  25  30
ENDBRANCH   1  22
TORSDOF 5
ENDMDL
MODEL 4
REMARK VINA RESULT:      -7.5      1.133      1.426
REMARK  Name = 
REMARK  9 active torsions:
REMARK  status: ('A' for Active; 'I' for Inactive)
REMARK    1  A    between atoms: C_1  and  O_2
REMARK    2  A    between atoms: O_2  and  C_3
REMARK    3  A    between atoms: C_5  and  C_6
REMARK    4  A    between atoms: N_10  and  C_11
REMARK    5  A    between atoms: C_14  and  C_15
REMARK    6  A    between atoms: C_26  and  O_27
REMARK    7  A    between atoms: O_27  and  C_28
REMARK    8  A    between atoms: C_29  and  O_30
REMARK    9  A    between atoms: O_30  and  C_31
REMARK                            x       y       z     vdW  Elec       q    Type
REMARK                         _______ _______ _______ _____ _____    ______ ____
ROOT
ATOM      1  C   UNL     1       1.009  10.645  19.179  0.00  0.00    +0.000 C 
ATOM      2  C   UNL     1       1.783  10.222  17.922  0.00  0.00    +0.000 C 
ATOM      3  C   UNL     1       2.305   8.787  17.829  0.00  0.00    +0.000 C 
ATOM      4  O   UNL     1       2.897   8.454  16.788  0.00  0.00    +0.000 OA
ATOM      5  N   UNL     1       2.083   7.914  18.903  0.00  0.00    +0.000 N 
ATOM      6  C   UNL     1       1.469   8.348  20.055  0.00  0.00    +0.000 C 
ATOM      7  C   UNL     1       1.015   9.585  20.207  0.00  0.00    +0.000 C 
ATOM      8  C   UNL     1       0.572   9.703  21.592  0.00  0.00    +0.000 C 
ATOM      9  O   UNL     1       0.143  10.711  22.113  0.00  0.00    +0.000 OA
ATOM     10  O   UNL     1       0.738   8.506  22.223  0.00  0.00    +0.000 OA
ATOM     11  C   UNL     1       1.313   7.568  21.307  0.00  0.00    +0.000 C 
ENDROOT
BRANCH   5  12
ATOM     12  C   UNL     1       2.591   6.581  18.792  0.00  0.00    +0.000 A 
ATOM     13  C   UNL     1       1.748   5.535  18.406  0.00  0.00    +0.000 A 
ATOM     14  C   UNL     1       2.245   4.236  18.275  0.00  0.00    +0.000 A 
ATOM     15  C   UNL     1       3.592   3.953  18.550  0.00  0.00    +0.000 A 
ATOM     16  C   UNL     1       4.095   2.544  18.413  0.00  0.00    +0.000 C 
ATOM     17  C   UNL     1       4.427   5.006  18.952  0.00  0.00    +0.000 A 
ATOM     18 CL   UNL     1       6.089   4.739  19.346  0.00  0.00    +0.000 Cl
ATOM     19  C   UNL     1       3.939   6.312  19.060  0.00  0.00    +0.000 A 
ENDBRANCH   5  12
BRANCH   1  22
ATOM     20  C   UNL     1      -2.575  10.495  17.860  0.00  0.00    +0.000 A 
ATOM     21  C   UNL     1      -1.179  10.354  17.925  0.00  0.00    +0.000 A 
ATOM     22  C   UNL     1      -0.425  11.052  18.866  0.00  0.00    +0.000 A 
ATOM     23  C   UNL     1      -1.070  12.030  19.625  0.00  0.00    +0.000 A 
ATOM     24  C   UNL     1      -2.448  12.278  19.493  0.00  0.00    +0.000 A 
ATOM     25  C   UNL     1      -3.226  11.496  18.611  0.00  0.00    +0.000 A 
BRANCH  20  27
ATOM     26  C   UNL     1      -3.006   9.749  15.658  0.00  0.00    +0.000 C 
ATOM     27  O   UNL     1      -3.289   9.641  17.056  0.00  0.00    +0.000 OA
ENDBRANCH  20  27
BRANCH  24  28
ATOM     28  O   UNL     1      -2.848  13.285  20.338  0.00  0.00    +0.000 OA
ATOM     29  C   UNL     1      -3.157  12.989  21.690  0.00  0.00    +0.000 C 
ENDBRANCH  24  28
BRANCH  25  30
ATOM     30  O   UNL     1      -4.560  11.792  18.570  0.00  0.00    +0.000 OA
ATOM     31  C   UNL     1      -5.182  12.197  17.362  0.00  0.00    +0.000 C 
ENDBRANCH  25  30
ENDBRANCH   1  22
TORSDOF 5
ENDMDL
MODEL 5
REMARK VINA RESULT:      -6.7      1.393      2.807
REMARK  Name = 
REMARK  9 active torsions:
REMARK  status: ('A' for Active; 'I' for Inactive)
REMARK    1  A    between atoms: C_1  and  O_2
REMARK    2  A    between atoms: O_2  and  C_3
REMARK    3  A    between atoms: C_5  and  C_6
REMARK    4  A    between atoms: N_10  and  C_11
REMARK    5  A    between atoms: C_14  and  C_15
REMARK    6  A    between atoms: C_26  and  O_27
REMARK    7  A    between atoms: O_27  and  C_28
REMARK    8  A    between atoms: C_29  and  O_30
REMARK    9  A    between atoms: O_30  and  C_31
REMARK                            x       y       z     vdW  Elec       q    Type
REMARK                         _______ _______ _______ _____ _____    ______ ____
ROOT
ATOM      1  C   UNL     1       0.549  11.162  20.068  0.00  0.00    +0.000 C 
ATOM      2  C   UNL     1       1.183  11.150  18.669  0.00  0.00    +0.000 C 
ATOM      3  C   UNL     1       1.817   9.853  18.161  0.00  0.00    +0.000 C 
ATOM      4  O   UNL     1       2.292   9.854  17.012  0.00  0.00    +0.000 OA
ATOM      5  N   UNL     1       1.821   8.727  18.997  0.00  0.00    +0.000 N 
ATOM      6  C   UNL     1       1.329   8.795  20.280  0.00  0.00    +0.000 C 
ATOM      7  C   UNL     1       0.789   9.895  20.787  0.00  0.00    +0.000 C 
ATOM      8  C   UNL     1       0.525   9.623  22.196  0.00  0.00    +0.000 C 
ATOM      9  O   UNL     1       0.080  10.417  22.998  0.00  0.00    +0.000 OA
ATOM     10  O   UNL     1       0.882   8.338  22.482  0.00  0.00    +0.000 OA
ATOM     11  C   UNL     1       1.412   7.724  21.303  0.00  0.00    +0.000 C 
ENDROOT
BRANCH   5  12
ATOM     12  C   UNL     1       2.427   7.532  18.498  0.00  0.00    +0.000 A 
ATOM     13  C   UNL     1       3.741   7.554  18.022  0.00  0.00    +0.000 A 
ATOM     14  C   UNL     1       4.345   6.384  17.555  0.00  0.00    +0.000 A 
ATOM     15  C   UNL     1       3.638   5.172  17.532  0.00  0.00    +0.000 A 
ATOM     16  C   UNL     1       4.309   3.932  17.012  0.00  0.00    +0.000 C 
ATOM     17  C   UNL     1       2.314   5.163  17.996  0.00  0.00    +0.000 A 
ATOM     18 CL   UNL     1       1.359   3.722  17.969  0.00  0.00    +0.000 Cl
ATOM     19  C   UNL     1       1.715   6.327  18.488  0.00  0.00    +0.000 A 
ENDBRANCH   5  12
BRANCH   1  22
ATOM     20  C   UNL     1      -2.837  12.753  20.848  0.00  0.00    +0.000 A 
ATOM     21  C   UNL     1      -1.559  12.199  21.029  0.00  0.00    +0.000 A 
ATOM     22  C   UNL     1      -0.945  11.455  20.023  0.00  0.00    +0.000 A 
ATOM     23  C   UNL     1      -1.703  11.125  18.899  0.00  0.00    +0.000 A 
ATOM     24  C   UNL     1      -3.030  11.564  18.747  0.00  0.00    +0.000 A 
ATOM     25  C   UNL     1      -3.613  12.404  19.722  0.00  0.00    +0.000 A 
BRANCH  20  27
ATOM     26  C   UNL     1      -3.827  13.041  22.976  0.00  0.00    +0.000 C 
ATOM     27  O   UNL     1      -3.312  13.640  21.783  0.00  0.00    +0.000 OA
ENDBRANCH  20  27
BRANCH  24  28
ATOM     28  O   UNL     1      -3.566  11.108  17.567  0.00  0.00    +0.000 OA
ATOM     29  C   UNL     1      -3.090   9.900  16.998  0.00  0.00    +0.000 C 
ENDBRANCH  24  28
BRANCH  25  30
ATOM     30  O   UNL     1      -4.897  12.803  19.476  0.00  0.00    +0.000 OA
ATOM     31  C   UNL     1      -6.000  12.087  20.004  0.00  0.00    +0.000 C 
ENDBRANCH  25  30
ENDBRANCH   1  22
TORSDOF 5
ENDMDL
MODEL 6
REMARK VINA RESULT:      -6.7      1.535      2.908
REMARK  Name = 
REMARK  9 active torsions:
REMARK  status: ('A' for Active; 'I' for Inactive)
REMARK    1  A    between atoms: C_1  and  O_2
REMARK    2  A    between atoms: O_2  and  C_3
REMARK    3  A    between atoms: C_5  and  C_6
REMARK    4  A    between atoms: N_10  and  C_11
REMARK    5  A    between atoms: C_14  and  C_15
REMARK    6  A    between atoms: C_26  and  O_27
REMARK    7  A    between atoms: O_27  and  C_28
REMARK    8  A    between atoms: C_29  and  O_30
REMARK    9  A    between atoms: O_30  and  C_31
REMARK                            x       y       z     vdW  Elec       q    Type
REMARK                         _______ _______ _______ _____ _____    ______ ____
ROOT
ATOM      1  C   UNL     1       0.174  11.256  19.799  0.00  0.00    +0.000 C 
ATOM      2  C   UNL     1       0.865  10.968  18.458  0.00  0.00    +0.000 C 
ATOM      3  C   UNL     1       1.586   9.630  18.277  0.00  0.00    +0.000 C 
ATOM      4  O   UNL     1       2.108   9.401  17.172  0.00  0.00    +0.000 OA
ATOM      5  N   UNL     1       1.616   8.725  19.346  0.00  0.00    +0.000 N 
ATOM      6  C   UNL     1       1.068   9.050  20.566  0.00  0.00    +0.000 C 
ATOM      7  C   UNL     1       0.451  10.201  20.794  0.00  0.00    +0.000 C 
ATOM      8  C   UNL     1       0.144  10.239  22.220  0.00  0.00    +0.000 C 
ATOM      9  O   UNL     1      -0.375  11.165  22.808  0.00  0.00    +0.000 OA
ATOM     10  O   UNL     1       0.556   9.076  22.801  0.00  0.00    +0.000 OA
ATOM     11  C   UNL     1       1.167   8.245  21.808  0.00  0.00    +0.000 C 
ENDROOT
BRANCH   5  12
ATOM     12  C   UNL     1       2.305   7.487  19.150  0.00  0.00    +0.000 A 
ATOM     13  C   UNL     1       2.109   6.422  20.034  0.00  0.00    +0.000 A 
ATOM     14  C   UNL     1       2.764   5.205  19.834  0.00  0.00    +0.000 A 
ATOM     15  C   UNL     1       3.647   5.035  18.757  0.00  0.00    +0.000 A 
ATOM     16  C   UNL     1       4.347   3.718  18.574  0.00  0.00    +0.000 C 
ATOM     17  C   UNL     1       3.851   6.115  17.884  0.00  0.00    +0.000 A 
ATOM     18 CL   UNL     1       4.950   6.003  16.554  0.00  0.00    +0.000 Cl
ATOM     19  C   UNL     1       3.178   7.326  18.067  0.00  0.00    +0.000 A 
ENDBRANCH   5  12
BRANCH   1  22
ATOM     20  C   UNL     1      -3.328  12.747  20.141  0.00  0.00    +0.000 A 
ATOM     21  C   UNL     1      -2.031  12.320  20.469  0.00  0.00    +0.000 A 
ATOM     22  C   UNL     1      -1.330  11.440  19.647  0.00  0.00    +0.000 A 
ATOM     23  C   UNL     1      -2.016  10.856  18.581  0.00  0.00    +0.000 A 
ATOM     24  C   UNL     1      -3.357  11.173  18.301  0.00  0.00    +0.000 A 
ATOM     25  C   UNL     1      -4.030  12.144  19.076  0.00  0.00    +0.000 A 
BRANCH  20  27
ATOM     26  C   UNL     1      -4.484  13.359  22.111  0.00  0.00    +0.000 C 
ATOM     27  O   UNL     1      -3.895  13.764  20.872  0.00  0.00    +0.000 OA
ENDBRANCH  20  27
BRANCH  24  28
ATOM     28  O   UNL     1      -3.811  10.469  17.213  0.00  0.00    +0.000 OA
ATOM     29  C   UNL     1      -3.651  11.006  15.910  0.00  0.00    +0.000 C 
ENDBRANCH  24  28
BRANCH  25  30
ATOM     30  O   UNL     1      -5.322  12.407  18.713  0.00  0.00    +0.000 OA
ATOM     31  C   UNL     1      -6.401  11.680  19.274  0.00  0.00    +0.000 C 
ENDBRANCH  25  30
ENDBRANCH   1  22
TORSDOF 5
ENDMDL
MODEL 7
REMARK VINA RESULT:      -6.6      3.548      8.137
REMARK  Name = 
REMARK  9 active torsions:
REMARK  status: ('A' for Active; 'I' for Inactive)
REMARK    1  A    between atoms: C_1  and  O_2
REMARK    2  A    between atoms: O_2  and  C_3
REMARK    3  A    between atoms: C_5  and  C_6
REMARK    4  A    between atoms: N_10  and  C_11
REMARK    5  A    between atoms: C_14  and  C_15
REMARK    6  A    between atoms: C_26  and  O_27
REMARK    7  A    between atoms: O_27  and  C_28
REMARK    8  A    between atoms: C_29  and  O_30
REMARK    9  A    between atoms: O_30  and  C_31
REMARK                            x       y       z     vdW  Elec       q    Type
REMARK                         _______ _______ _______ _____ _____    ______ ____
ROOT
ATOM      1  C   UNL     1       0.916  10.960  18.125  0.00  0.00    +0.000 C 
ATOM      2  C   UNL     1       1.894  12.017  18.659  0.00  0.00    +0.000 C 
ATOM      3  C   UNL     1       1.344  13.159  19.516  0.00  0.00    +0.000 C 
ATOM      4  O   UNL     1       2.157  13.983  19.969  0.00  0.00    +0.000 OA
ATOM      5  N   UNL     1      -0.034  13.218  19.765  0.00  0.00    +0.000 N 
ATOM      6  C   UNL     1      -0.897  12.309  19.195  0.00  0.00    +0.000 C 
ATOM      7  C   UNL     1      -0.486  11.312  18.425  0.00  0.00    +0.000 C 
ATOM      8  C   UNL     1      -1.684  10.666  17.898  0.00  0.00    +0.000 C 
ATOM      9  O   UNL     1      -1.702   9.743  17.111  0.00  0.00    +0.000 OA
ATOM     10  O   UNL     1      -2.789  11.279  18.410  0.00  0.00    +0.000 OA
ATOM     11  C   UNL     1      -2.378  12.355  19.260  0.00  0.00    +0.000 C 
ENDROOT
BRANCH   5  12
ATOM     12  C   UNL     1      -0.520  14.301  20.562  0.00  0.00    +0.000 A 
ATOM     13  C   UNL     1      -0.869  15.516  19.964  0.00  0.00    +0.000 A 
ATOM     14  C   UNL     1      -1.364  16.569  20.736  0.00  0.00    +0.000 A 
ATOM     15  C   UNL     1      -1.499  16.437  22.127  0.00  0.00    +0.000 A 
ATOM     16  C   UNL     1      -2.022  17.591  22.934  0.00  0.00    +0.000 C 
ATOM     17  C   UNL     1      -1.130  15.220  22.721  0.00  0.00    +0.000 A 
ATOM     18 CL   UNL     1      -1.228  14.985  24.431  0.00  0.00    +0.000 Cl
ATOM     19  C   UNL     1      -0.658  14.155  21.948  0.00  0.00    +0.000 A 
ENDBRANCH   5  12
BRANCH   1  22
ATOM     20  C   UNL     1       2.392   7.444  18.383  0.00  0.00    +0.000 A 
ATOM     21  C   UNL     1       1.808   8.600  17.840  0.00  0.00    +0.000 A 
ATOM     22  C   UNL     1       1.224   9.566  18.657  0.00  0.00    +0.000 A 
ATOM     23  C   UNL     1       1.076   9.273  20.014  0.00  0.00    +0.000 A 
ATOM     24  C   UNL     1       1.543   8.066  20.564  0.00  0.00    +0.000 A 
ATOM     25  C   UNL     1       2.227   7.135  19.750  0.00  0.00    +0.000 A 
BRANCH  20  27
ATOM     26  C   UNL     1       4.478   7.047  17.342  0.00  0.00    +0.000 C 
ATOM     27  O   UNL     1       3.128   6.626  17.561  0.00  0.00    +0.000 OA
ENDBRANCH  20  27
BRANCH  24  28
ATOM     28  O   UNL     1       1.278   8.005  21.910  0.00  0.00    +0.000 OA
ATOM     29  C   UNL     1       0.690   9.119  22.564  0.00  0.00    +0.000 C 
ENDBRANCH  24  28
BRANCH  25  30
ATOM     30  O   UNL     1       2.668   6.004  20.378  0.00  0.00    +0.000 OA
ATOM     31  C   UNL     1       1.851   4.849  20.465  0.00  0.00    +0.000 C 
ENDBRANCH  25  30
ENDBRANCH   1  22
TORSDOF 5
ENDMDL
MODEL 8
REMARK VINA RESULT:      -6.5      4.063      8.136
REMARK  Name = 
REMARK  9 active torsions:
REMARK  status: ('A' for Active; 'I' for Inactive)
REMARK    1  A    between atoms: C_1  and  O_2
REMARK    2  A    between atoms: O_2  and  C_3
REMARK    3  A    between atoms: C_5  and  C_6
REMARK    4  A    between atoms: N_10  and  C_11
REMARK    5  A    between atoms: C_14  and  C_15
REMARK    6  A    between atoms: C_26  and  O_27
REMARK    7  A    between atoms: O_27  and  C_28
REMARK    8  A    between atoms: C_29  and  O_30
REMARK    9  A    between atoms: O_30  and  C_31
REMARK                            x       y       z     vdW  Elec       q    Type
REMARK                         _______ _______ _______ _____ _____    ______ ____
ROOT
ATOM      1  C   UNL     1       1.130  10.809  17.966  0.00  0.00    +0.000 C 
ATOM      2  C   UNL     1       2.313  11.757  18.211  0.00  0.00    +0.000 C 
ATOM      3  C   UNL     1       2.080  13.023  19.038  0.00  0.00    +0.000 C 
ATOM      4  O   UNL     1       3.058  13.759  19.255  0.00  0.00    +0.000 OA
ATOM      5  N   UNL     1       0.792  13.289  19.524  0.00  0.00    +0.000 N 
ATOM      6  C   UNL     1      -0.267  12.469  19.210  0.00  0.00    +0.000 C 
ATOM      7  C   UNL     1      -0.136  11.372  18.478  0.00  0.00    +0.000 C 
ATOM      8  C   UNL     1      -1.482  10.861  18.241  0.00  0.00    +0.000 C 
ATOM      9  O   UNL     1      -1.762   9.894  17.564  0.00  0.00    +0.000 OA
ATOM     10  O   UNL     1      -2.386  11.656  18.882  0.00  0.00    +0.000 OA
ATOM     11  C   UNL     1      -1.692  12.724  19.536  0.00  0.00    +0.000 C 
ENDROOT
BRANCH   5  12
ATOM     12  C   UNL     1       0.603  14.484  20.286  0.00  0.00    +0.000 A 
ATOM     13  C   UNL     1       0.720  14.459  21.679  0.00  0.00    +0.000 A 
ATOM     14  C   UNL     1       0.558  15.628  22.426  0.00  0.00    +0.000 A 
ATOM     15  C   UNL     1       0.253  16.845  21.795  0.00  0.00    +0.000 A 
ATOM     16  C   UNL     1       0.071  18.084  22.625  0.00  0.00    +0.000 C 
ATOM     17  C   UNL     1       0.121  16.858  20.398  0.00  0.00    +0.000 A 
ATOM     18 CL   UNL     1      -0.290  18.304  19.545  0.00  0.00    +0.000 Cl
ATOM     19  C   UNL     1       0.308  15.694  19.646  0.00  0.00    +0.000 A 
ENDBRANCH   5  12
BRANCH   1  22
ATOM     20  C   UNL     1       2.465   7.259  18.435  0.00  0.00    +0.000 A 
ATOM     21  C   UNL     1       1.949   8.411  17.819  0.00  0.00    +0.000 A 
ATOM     22  C   UNL     1       1.361   9.428  18.567  0.00  0.00    +0.000 A 
ATOM     23  C   UNL     1       1.138   9.196  19.925  0.00  0.00    +0.000 A 
ATOM     24  C   UNL     1       1.534   7.997  20.544  0.00  0.00    +0.000 A 
ATOM     25  C   UNL     1       2.223   7.012  19.802  0.00  0.00    +0.000 A 
BRANCH  20  27
ATOM     26  C   UNL     1       4.499   6.868  17.294  0.00  0.00    +0.000 C 
ATOM     27  O   UNL     1       3.210   6.384  17.682  0.00  0.00    +0.000 OA
ENDBRANCH  20  27
BRANCH  24  28
ATOM     28  O   UNL     1       1.203   8.001  21.878  0.00  0.00    +0.000 OA
ATOM     29  C   UNL     1       0.904   9.226  22.526  0.00  0.00    +0.000 C 
ENDBRANCH  24  28
BRANCH  25  30
ATOM     30  O   UNL     1       2.593   5.893  20.495  0.00  0.00    +0.000 OA
ATOM     31  C   UNL     1       1.737   4.766  20.576  0.00  0.00    +0.000 C 
ENDBRANCH  25  30
ENDBRANCH   1  22
TORSDOF 5
ENDMDL
MODEL 9
REMARK VINA RESULT:      -6.5      1.412      2.868
REMARK  Name = 
REMARK  9 active torsions:
REMARK  status: ('A' for Active; 'I' for Inactive)
REMARK    1  A    between atoms: C_1  and  O_2
REMARK    2  A    between atoms: O_2  and  C_3
REMARK    3  A    between atoms: C_5  and  C_6
REMARK    4  A    between atoms: N_10  and  C_11
REMARK    5  A    between atoms: C_14  and  C_15
REMARK    6  A    between atoms: C_26  and  O_27
REMARK    7  A    between atoms: O_27  and  C_28
REMARK    8  A    between atoms: C_29  and  O_30
REMARK    9  A    between atoms: O_30  and  C_31
REMARK                            x       y       z     vdW  Elec       q    Type
REMARK                         _______ _______ _______ _____ _____    ______ ____
ROOT
ATOM      1  C   UNL     1       0.022  11.468  20.000  0.00  0.00    +0.000 C 
ATOM      2  C   UNL     1       0.718  11.231  18.652  0.00  0.00    +0.000 C 
ATOM      3  C   UNL     1       1.442   9.903  18.423  0.00  0.00    +0.000 C 
ATOM      4  O   UNL     1       1.968   9.717  17.312  0.00  0.00    +0.000 OA
ATOM      5  N   UNL     1       1.469   8.958  19.457  0.00  0.00    +0.000 N 
ATOM      6  C   UNL     1       0.916   9.236  20.686  0.00  0.00    +0.000 C 
ATOM      7  C   UNL     1       0.296  10.376  20.956  0.00  0.00    +0.000 C 
ATOM      8  C   UNL     1      -0.017  10.359  22.381  0.00  0.00    +0.000 C 
ATOM      9  O   UNL     1      -0.540  11.261  23.001  0.00  0.00    +0.000 OA
ATOM     10  O   UNL     1       0.395   9.175  22.918  0.00  0.00    +0.000 OA
ATOM     11  C   UNL     1       1.011   8.384  21.897  0.00  0.00    +0.000 C 
ENDROOT
BRANCH   5  12
ATOM     12  C   UNL     1       2.161   7.729  19.217  0.00  0.00    +0.000 A 
ATOM     13  C   UNL     1       3.005   7.599  18.111  0.00  0.00    +0.000 A 
ATOM     14  C   UNL     1       3.700   6.409  17.884  0.00  0.00    +0.000 A 
ATOM     15  C   UNL     1       3.546   5.314  18.750  0.00  0.00    +0.000 A 
ATOM     16  C   UNL     1       4.296   4.042  18.474  0.00  0.00    +0.000 C 
ATOM     17  C   UNL     1       2.684   5.447  19.849  0.00  0.00    +0.000 A 
ATOM     18 CL   UNL     1       2.408   4.137  20.942  0.00  0.00    +0.000 Cl
ATOM     19  C   UNL     1       2.007   6.646  20.091  0.00  0.00    +0.000 A 
ENDBRANCH   5  12
BRANCH   1  22
ATOM     20  C   UNL     1      -3.490  12.920  20.411  0.00  0.00    +0.000 A 
ATOM     21  C   UNL     1      -2.194  12.478  20.721  0.00  0.00    +0.000 A 
ATOM     22  C   UNL     1      -1.483  11.655  19.849  0.00  0.00    +0.000 A 
ATOM     23  C   UNL     1      -2.158  11.138  18.742  0.00  0.00    +0.000 A 
ATOM     24  C   UNL     1      -3.498  11.467  18.474  0.00  0.00    +0.000 A 
ATOM     25  C   UNL     1      -4.182  12.383  19.305  0.00  0.00    +0.000 A 
BRANCH  20  27
ATOM     26  C   UNL     1      -3.561  15.209  21.002  0.00  0.00    +0.000 C 
ATOM     27  O   UNL     1      -4.066  13.885  21.201  0.00  0.00    +0.000 OA
ENDBRANCH  20  27
BRANCH  24  28
ATOM     28  O   UNL     1      -3.942  10.833  17.339  0.00  0.00    +0.000 OA
ATOM     29  C   UNL     1      -3.135   9.841  16.725  0.00  0.00    +0.000 C 
ENDBRANCH  24  28
BRANCH  25  30
ATOM     30  O   UNL     1      -5.472  12.664  18.950  0.00  0.00    +0.000 OA
ATOM     31  C   UNL     1      -6.557  11.945  19.510  0.00  0.00    +0.000 C 
ENDBRANCH  25  30
ENDBRANCH   1  22
TORSDOF 5
ENDMDL
