MODEL 1
REMARK VINA RESULT:      -7.2      0.000      0.000
REMARK  Name = 
REMARK  6 active torsions:
REMARK  status: ('A' for Active; 'I' for Inactive)
REMARK    1  A    between atoms: C_1  and  C_2
REMARK    2  A    between atoms: C_4  and  C_5
REMARK    3  A    between atoms: C_5  and  C_6
REMARK    4  A    between atoms: C_5  and  N_7
REMARK    5  A    between atoms: C_8  and  C_10
REMARK    6  A    between atoms: C_13  and  C_14
REMARK                            x       y       z     vdW  Elec       q    Type
REMARK                         _______ _______ _______ _____ _____    ______ ____
ROOT
ATOM      1  N   UNL     1       4.361   5.751  17.415  0.00  0.00    +0.000 N 
ATOM      2  C   UNL     1       3.832   6.101  18.632  0.00  0.00    +0.000 C 
ATOM      3  O   UNL     1       4.083   5.516  19.678  0.00  0.00    +0.000 OA
ATOM      4  H   UNL     1       4.343   6.382  16.618  0.00  0.00    +0.000 HD
ENDROOT
BRANCH   2   5
ATOM      5  C   UNL     1       2.913   7.248  18.642  0.00  0.00    +0.000 A 
ATOM      6  C   UNL     1       2.147   7.584  19.734  0.00  0.00    +0.000 A 
ATOM      7  N   UNL     1       1.319   8.652  19.771  0.00  0.00    +0.000 NA
ATOM      8  C   UNL     1       1.265   9.437  18.672  0.00  0.00    +0.000 A 
ATOM      9  N   UNL     1       1.997   9.193  17.562  0.00  0.00    +0.000 NA
ATOM     10  C   UNL     1       2.814   8.111  17.576  0.00  0.00    +0.000 A 
BRANCH   8  11
ATOM     11  C   UNL     1       0.301  10.598  18.679  0.00  0.00    +0.000 C 
ATOM     12  C   UNL     1      -1.111  10.420  18.165  0.00  0.00    +0.000 C 
ATOM     13  C   UNL     1      -0.873  10.638  19.630  0.00  0.00    +0.000 C 
ENDBRANCH   8  11
ENDBRANCH   2   5
BRANCH   1  14
ATOM     14  C   UNL     1       5.198   4.565  17.232  0.00  0.00    +0.000 C 
ATOM     15  C   UNL     1       4.320   3.315  17.176  0.00  0.00    +0.000 C 
BRANCH  14  19
ATOM     16  C   UNL     1       6.795   4.009  12.557  0.00  0.00    +0.000 C 
ATOM     17  C   UNL     1       6.629   4.418  13.968  0.00  0.00    +0.000 A 
ATOM     18  N   UNL     1       5.707   4.028  14.818  0.00  0.00    +0.000 NA
ATOM     19  C   UNL     1       6.012   4.713  15.969  0.00  0.00    +0.000 A 
ATOM     20  N   UNL     1       7.077   5.529  15.863  0.00  0.00    +0.000 NA
ATOM     21  N   UNL     1       7.466   5.296  14.595  0.00  0.00    +0.000 N 
ATOM     22  H   UNL     1       8.289   5.763  14.232  0.00  0.00    +0.000 HD
ENDBRANCH  14  19
ENDBRANCH   1  14
TORSDOF 4
ENDMDL
MODEL 2
REMARK VINA RESULT:      -6.9      0.250      1.078
REMARK  Name = 
REMARK  6 active torsions:
REMARK  status: ('A' for Active; 'I' for Inactive)
REMARK    1  A    between atoms: C_1  and  C_2
REMARK    2  A    between atoms: C_4  and  C_5
REMARK    3  A    between atoms: C_5  and  C_6
REMARK    4  A    between atoms: C_5  and  N_7
REMARK    5  A    between atoms: C_8  and  C_10
REMARK    6  A    between atoms: C_13  and  C_14
REMARK                            x       y       z     vdW  Elec       q    Type
REMARK                         _______ _______ _______ _____ _____    ______ ____
ROOT
ATOM      1  N   UNL     1       4.345   5.816  17.657  0.00  0.00    +0.000 N 
ATOM      2  C   UNL     1       3.663   6.105  18.813  0.00  0.00    +0.000 C 
ATOM      3  O   UNL     1       3.735   5.431  19.833  0.00  0.00    +0.000 OA
ATOM      4  H   UNL     1       4.469   6.505  16.920  0.00  0.00    +0.000 HD
ENDROOT
BRANCH   2   5
ATOM      5  C   UNL     1       2.805   7.298  18.788  0.00  0.00    +0.000 A 
ATOM      6  C   UNL     1       2.647   8.084  17.669  0.00  0.00    +0.000 A 
ATOM      7  N   UNL     1       1.839   9.166  17.620  0.00  0.00    +0.000 NA
ATOM      8  C   UNL     1       1.138   9.473  18.734  0.00  0.00    +0.000 A 
ATOM      9  N   UNL     1       1.217   8.745  19.871  0.00  0.00    +0.000 NA
ATOM     10  C   UNL     1       2.039   7.667  19.868  0.00  0.00    +0.000 A 
BRANCH   8  11
ATOM     11  C   UNL     1       0.278  10.712  18.710  0.00  0.00    +0.000 C 
ATOM     12  C   UNL     1      -1.150  10.640  18.215  0.00  0.00    +0.000 C 
ATOM     13  C   UNL     1      -0.877  10.885  19.669  0.00  0.00    +0.000 C 
ENDBRANCH   8  11
ENDBRANCH   2   5
BRANCH   1  14
ATOM     14  C   UNL     1       5.145   4.602  17.497  0.00  0.00    +0.000 C 
ATOM     15  C   UNL     1       4.228   3.379  17.463  0.00  0.00    +0.000 C 
BRANCH  14  19
ATOM     16  C   UNL     1       6.658   4.015  12.799  0.00  0.00    +0.000 C 
ATOM     17  C   UNL     1       6.540   4.401  14.221  0.00  0.00    +0.000 A 
ATOM     18  N   UNL     1       5.587   4.082  15.067  0.00  0.00    +0.000 NA
ATOM     19  C   UNL     1       5.964   4.702  16.234  0.00  0.00    +0.000 A 
ATOM     20  N   UNL     1       7.106   5.408  16.142  0.00  0.00    +0.000 NA
ATOM     21  N   UNL     1       7.464   5.172  14.866  0.00  0.00    +0.000 N 
ATOM     22  H   UNL     1       8.329   5.563  14.510  0.00  0.00    +0.000 HD
ENDBRANCH  14  19
ENDBRANCH   1  14
TORSDOF 4
ENDMDL
MODEL 3
REMARK VINA RESULT:      -6.6      1.359      1.922
REMARK  Name = 
REMARK  6 active torsions:
REMARK  status: ('A' for Active; 'I' for Inactive)
REMARK    1  A    between atoms: C_1  and  C_2
REMARK    2  A    between atoms: C_4  and  C_5
REMARK    3  A    between atoms: C_5  and  C_6
REMARK    4  A    between atoms: C_5  and  N_7
REMARK    5  A    between atoms: C_8  and  C_10
REMARK    6  A    between atoms: C_13  and  C_14
REMARK                            x       y       z     vdW  Elec       q    Type
REMARK                         _______ _______ _______ _____ _____    ______ ____
ROOT
ATOM      1  N   UNL     1       3.975   5.704  18.978  0.00  0.00    +0.000 N 
ATOM      2  C   UNL     1       2.923   5.976  19.817  0.00  0.00    +0.000 C 
ATOM      3  O   UNL     1       2.536   5.214  20.694  0.00  0.00    +0.000 OA
ATOM      4  H   UNL     1       4.433   6.432  18.436  0.00  0.00    +0.000 HD
ENDROOT
BRANCH   2   5
ATOM      5  C   UNL     1       2.244   7.265  19.621  0.00  0.00    +0.000 A 
ATOM      6  C   UNL     1       2.218   7.922  18.413  0.00  0.00    +0.000 A 
ATOM      7  N   UNL     1       1.574   9.093  18.209  0.00  0.00    +0.000 NA
ATOM      8  C   UNL     1       0.905   9.627  19.254  0.00  0.00    +0.000 A 
ATOM      9  N   UNL     1       0.860   9.040  20.471  0.00  0.00    +0.000 NA
ATOM     10  C   UNL     1       1.520   7.866  20.624  0.00  0.00    +0.000 A 
BRANCH   8  11
ATOM     11  C   UNL     1       0.231  10.962  19.054  0.00  0.00    +0.000 C 
ATOM     12  C   UNL     1      -1.108  11.043  18.353  0.00  0.00    +0.000 C 
ATOM     13  C   UNL     1      -1.017  11.334  19.821  0.00  0.00    +0.000 C 
ENDBRANCH   8  11
ENDBRANCH   2   5
BRANCH   1  14
ATOM     14  C   UNL     1       4.671   4.417  18.979  0.00  0.00    +0.000 C 
ATOM     15  C   UNL     1       3.681   3.293  18.671  0.00  0.00    +0.000 C 
BRANCH  14  19
ATOM     16  C   UNL     1       7.108   4.590  14.651  0.00  0.00    +0.000 C 
ATOM     17  C   UNL     1       6.750   4.522  16.083  0.00  0.00    +0.000 A 
ATOM     18  N   UNL     1       5.548   4.517  16.614  0.00  0.00    +0.000 NA
ATOM     19  C   UNL     1       5.789   4.449  17.965  0.00  0.00    +0.000 A 
ATOM     20  N   UNL     1       7.093   4.430  18.296  0.00  0.00    +0.000 NA
ATOM     21  N   UNL     1       7.676   4.444  17.083  0.00  0.00    +0.000 N 
ATOM     22  H   UNL     1       8.687   4.404  17.015  0.00  0.00    +0.000 HD
ENDBRANCH  14  19
ENDBRANCH   1  14
TORSDOF 4
ENDMDL
MODEL 4
REMARK VINA RESULT:      -6.5      1.859      2.537
REMARK  Name = 
REMARK  6 active torsions:
REMARK  status: ('A' for Active; 'I' for Inactive)
REMARK    1  A    between atoms: C_1  and  C_2
REMARK    2  A    between atoms: C_4  and  C_5
REMARK    3  A    between atoms: C_5  and  C_6
REMARK    4  A    between atoms: C_5  and  N_7
REMARK    5  A    between atoms: C_8  and  C_10
REMARK    6  A    between atoms: C_13  and  C_14
REMARK                            x       y       z     vdW  Elec       q    Type
REMARK                         _______ _______ _______ _____ _____    ______ ____
ROOT
ATOM      1  N   UNL     1       3.005   6.141  18.820  0.00  0.00    +0.000 N 
ATOM      2  C   UNL     1       2.171   6.693  19.760  0.00  0.00    +0.000 C 
ATOM      3  O   UNL     1       1.742   6.084  20.733  0.00  0.00    +0.000 OA
ATOM      4  H   UNL     1       3.541   6.714  18.174  0.00  0.00    +0.000 HD
ENDROOT
BRANCH   2   5
ATOM      5  C   UNL     1       1.789   8.098  19.555  0.00  0.00    +0.000 A 
ATOM      6  C   UNL     1       1.935   8.745  18.350  0.00  0.00    +0.000 A 
ATOM      7  N   UNL     1       1.562  10.026  18.136  0.00  0.00    +0.000 NA
ATOM      8  C   UNL     1       0.997  10.692  19.167  0.00  0.00    +0.000 A 
ATOM      9  N   UNL     1       0.797  10.128  20.380  0.00  0.00    +0.000 NA
ATOM     10  C   UNL     1       1.186   8.840  20.543  0.00  0.00    +0.000 A 
BRANCH   8  11
ATOM     11  C   UNL     1       0.630  12.140  18.958  0.00  0.00    +0.000 C 
ATOM     12  C   UNL     1      -0.724  12.510  18.393  0.00  0.00    +0.000 C 
ATOM     13  C   UNL     1      -0.404  12.821  19.825  0.00  0.00    +0.000 C 
ENDBRANCH   8  11
ENDBRANCH   2   5
BRANCH   1  14
ATOM     14  C   UNL     1       3.377   4.726  18.831  0.00  0.00    +0.000 C 
ATOM     15  C   UNL     1       2.341   3.913  18.055  0.00  0.00    +0.000 C 
BRANCH  14  19
ATOM     16  C   UNL     1       7.108   4.595  15.549  0.00  0.00    +0.000 C 
ATOM     17  C   UNL     1       6.284   4.526  16.775  0.00  0.00    +0.000 A 
ATOM     18  N   UNL     1       4.998   4.762  16.896  0.00  0.00    +0.000 NA
ATOM     19  C   UNL     1       4.754   4.563  18.233  0.00  0.00    +0.000 A 
ATOM     20  N   UNL     1       5.841   4.231  18.952  0.00  0.00    +0.000 NA
ATOM     21  N   UNL     1       6.788   4.183  17.997  0.00  0.00    +0.000 N 
ATOM     22  H   UNL     1       7.735   3.919  18.245  0.00  0.00    +0.000 HD
ENDBRANCH  14  19
ENDBRANCH   1  14
TORSDOF 4
ENDMDL
MODEL 5
REMARK VINA RESULT:      -6.5      1.120      1.776
REMARK  Name = 
REMARK  6 active torsions:
REMARK  status: ('A' for Active; 'I' for Inactive)
REMARK    1  A    between atoms: C_1  and  C_2
REMARK    2  A    between atoms: C_4  and  C_5
REMARK    3  A    between atoms: C_5  and  C_6
REMARK    4  A    between atoms: C_5  and  N_7
REMARK    5  A    between atoms: C_8  and  C_10
REMARK    6  A    between atoms: C_13  and  C_14
REMARK                            x       y       z     vdW  Elec       q    Type
REMARK                         _______ _______ _______ _____ _____    ______ ____
ROOT
ATOM      1  N   UNL     1       3.784   5.650  18.119  0.00  0.00    +0.000 N 
ATOM      2  C   UNL     1       3.059   5.957  19.244  0.00  0.00    +0.000 C 
ATOM      3  O   UNL     1       2.939   5.206  20.204  0.00  0.00    +0.000 OA
ATOM      4  H   UNL     1       4.075   6.363  17.456  0.00  0.00    +0.000 HD
ENDROOT
BRANCH   2   5
ATOM      5  C   UNL     1       2.400   7.271  19.261  0.00  0.00    +0.000 A 
ATOM      6  C   UNL     1       2.334   8.091  18.159  0.00  0.00    +0.000 A 
ATOM      7  N   UNL     1       1.707   9.288  18.149  0.00  0.00    +0.000 NA
ATOM      8  C   UNL     1       1.098   9.682  19.289  0.00  0.00    +0.000 A 
ATOM      9  N   UNL     1       1.096   8.931  20.414  0.00  0.00    +0.000 NA
ATOM     10  C   UNL     1       1.736   7.737  20.371  0.00  0.00    +0.000 A 
BRANCH   8  11
ATOM     11  C   UNL     1       0.445  11.042  19.309  0.00  0.00    +0.000 C 
ATOM     12  C   UNL     1       0.985  12.134  20.208  0.00  0.00    +0.000 C 
ATOM     13  C   UNL     1       1.132  12.251  18.720  0.00  0.00    +0.000 C 
ENDBRANCH   8  11
ENDBRANCH   2   5
BRANCH   1  14
ATOM     14  C   UNL     1       4.398   4.338  17.912  0.00  0.00    +0.000 C 
ATOM     15  C   UNL     1       3.365   3.369  17.336  0.00  0.00    +0.000 C 
BRANCH  14  19
ATOM     16  C   UNL     1       7.141   4.786  13.791  0.00  0.00    +0.000 C 
ATOM     17  C   UNL     1       6.680   4.663  15.190  0.00  0.00    +0.000 A 
ATOM     18  N   UNL     1       5.445   4.551  15.625  0.00  0.00    +0.000 NA
ATOM     19  C   UNL     1       5.585   4.478  16.990  0.00  0.00    +0.000 A 
ATOM     20  N   UNL     1       6.856   4.560  17.422  0.00  0.00    +0.000 NA
ATOM     21  N   UNL     1       7.529   4.642  16.259  0.00  0.00    +0.000 N 
ATOM     22  H   UNL     1       8.542   4.686  16.270  0.00  0.00    +0.000 HD
ENDBRANCH  14  19
ENDBRANCH   1  14
TORSDOF 4
ENDMDL
MODEL 6
REMARK VINA RESULT:      -6.5      2.322      7.825
REMARK  Name = 
REMARK  6 active torsions:
REMARK  status: ('A' for Active; 'I' for Inactive)
REMARK    1  A    between atoms: C_1  and  C_2
REMARK    2  A    between atoms: C_4  and  C_5
REMARK    3  A    between atoms: C_5  and  C_6
REMARK    4  A    between atoms: C_5  and  N_7
REMARK    5  A    between atoms: C_8  and  C_10
REMARK    6  A    between atoms: C_13  and  C_14
REMARK                            x       y       z     vdW  Elec       q    Type
REMARK                         _______ _______ _______ _____ _____    ______ ____
ROOT
ATOM      1  N   UNL     1       0.900   9.399  18.804  0.00  0.00    +0.000 N 
ATOM      2  C   UNL     1       1.478   8.462  19.623  0.00  0.00    +0.000 C 
ATOM      3  O   UNL     1       1.225   8.350  20.816  0.00  0.00    +0.000 OA
ATOM      4  H   UNL     1       0.930   9.320  17.791  0.00  0.00    +0.000 HD
ENDROOT
BRANCH   2   5
ATOM      5  C   UNL     1       2.456   7.558  18.999  0.00  0.00    +0.000 A 
ATOM      6  C   UNL     1       3.125   7.867  17.837  0.00  0.00    +0.000 A 
ATOM      7  N   UNL     1       4.048   7.061  17.267  0.00  0.00    +0.000 NA
ATOM      8  C   UNL     1       4.334   5.898  17.892  0.00  0.00    +0.000 A 
ATOM      9  N   UNL     1       3.739   5.524  19.048  0.00  0.00    +0.000 NA
ATOM     10  C   UNL     1       2.822   6.368  19.581  0.00  0.00    +0.000 A 
BRANCH   8  11
ATOM     11  C   UNL     1       5.319   4.964  17.235  0.00  0.00    +0.000 C 
ATOM     12  C   UNL     1       4.873   4.053  16.111  0.00  0.00    +0.000 C 
ATOM     13  C   UNL     1       5.798   5.197  15.821  0.00  0.00    +0.000 C 
ENDBRANCH   8  11
ENDBRANCH   2   5
BRANCH   1  14
ATOM     14  C   UNL     1      -0.002  10.436  19.307  0.00  0.00    +0.000 C 
ATOM     15  C   UNL     1       0.810  11.636  19.794  0.00  0.00    +0.000 C 
BRANCH  14  19
ATOM     16  C   UNL     1      -3.093  10.198  15.422  0.00  0.00    +0.000 C 
ATOM     17  C   UNL     1      -2.263  10.652  16.557  0.00  0.00    +0.000 A 
ATOM     18  N   UNL     1      -1.491   9.926  17.333  0.00  0.00    +0.000 NA
ATOM     19  C   UNL     1      -0.965  10.838  18.216  0.00  0.00    +0.000 A 
ATOM     20  N   UNL     1      -1.393  12.100  18.031  0.00  0.00    +0.000 NA
ATOM     21  N   UNL     1      -2.188  11.957  16.954  0.00  0.00    +0.000 N 
ATOM     22  H   UNL     1      -2.640  12.772  16.555  0.00  0.00    +0.000 HD
ENDBRANCH  14  19
ENDBRANCH   1  14
TORSDOF 4
ENDMDL
MODEL 7
REMARK VINA RESULT:      -6.4      1.810      2.234
REMARK  Name = 
REMARK  6 active torsions:
REMARK  status: ('A' for Active; 'I' for Inactive)
REMARK    1  A    between atoms: C_1  and  C_2
REMARK    2  A    between atoms: C_4  and  C_5
REMARK    3  A    between atoms: C_5  and  C_6
REMARK    4  A    between atoms: C_5  and  N_7
REMARK    5  A    between atoms: C_8  and  C_10
REMARK    6  A    between atoms: C_13  and  C_14
REMARK                            x       y       z     vdW  Elec       q    Type
REMARK                         _______ _______ _______ _____ _____    ______ ____
ROOT
ATOM      1  N   UNL     1       2.879   6.009  18.676  0.00  0.00    +0.000 N 
ATOM      2  C   UNL     1       2.219   6.573  19.739  0.00  0.00    +0.000 C 
ATOM      3  O   UNL     1       1.994   5.986  20.791  0.00  0.00    +0.000 OA
ATOM      4  H   UNL     1       3.269   6.573  17.925  0.00  0.00    +0.000 HD
ENDROOT
BRANCH   2   5
ATOM      5  C   UNL     1       1.767   7.962  19.570  0.00  0.00    +0.000 A 
ATOM      6  C   UNL     1       1.203   8.695  20.588  0.00  0.00    +0.000 A 
ATOM      7  N   UNL     1       0.810   9.982  20.458  0.00  0.00    +0.000 NA
ATOM      8  C   UNL     1       1.005  10.576  19.260  0.00  0.00    +0.000 A 
ATOM      9  N   UNL     1       1.571   9.937  18.210  0.00  0.00    +0.000 NA
ATOM     10  C   UNL     1       1.950   8.648  18.393  0.00  0.00    +0.000 A 
BRANCH   8  11
ATOM     11  C   UNL     1       0.518  11.992  19.084  0.00  0.00    +0.000 C 
ATOM     12  C   UNL     1      -0.811  12.264  18.412  0.00  0.00    +0.000 C 
ATOM     13  C   UNL     1      -0.652  12.525  19.880  0.00  0.00    +0.000 C 
ENDBRANCH   8  11
ENDBRANCH   2   5
BRANCH   1  14
ATOM     14  C   UNL     1       3.284   4.604  18.656  0.00  0.00    +0.000 C 
ATOM     15  C   UNL     1       2.302   3.794  17.809  0.00  0.00    +0.000 C 
BRANCH  14  19
ATOM     16  C   UNL     1       7.140   4.583  15.520  0.00  0.00    +0.000 C 
ATOM     17  C   UNL     1       6.274   4.499  16.714  0.00  0.00    +0.000 A 
ATOM     18  N   UNL     1       4.974   4.678  16.783  0.00  0.00    +0.000 NA
ATOM     19  C   UNL     1       4.688   4.493  18.114  0.00  0.00    +0.000 A 
ATOM     20  N   UNL     1       5.762   4.225  18.879  0.00  0.00    +0.000 NA
ATOM     21  N   UNL     1       6.746   4.203  17.961  0.00  0.00    +0.000 N 
ATOM     22  H   UNL     1       7.694   3.988  18.250  0.00  0.00    +0.000 HD
ENDBRANCH  14  19
ENDBRANCH   1  14
TORSDOF 4
ENDMDL
MODEL 8
REMARK VINA RESULT:      -6.4      2.565      7.495
REMARK  Name = 
REMARK  6 active torsions:
REMARK  status: ('A' for Active; 'I' for Inactive)
REMARK    1  A    between atoms: C_1  and  C_2
REMARK    2  A    between atoms: C_4  and  C_5
REMARK    3  A    between atoms: C_5  and  C_6
REMARK    4  A    between atoms: C_5  and  N_7
REMARK    5  A    between atoms: C_8  and  C_10
REMARK    6  A    between atoms: C_13  and  C_14
REMARK                            x       y       z     vdW  Elec       q    Type
REMARK                         _______ _______ _______ _____ _____    ______ ____
ROOT
ATOM      1  N   UNL     1       3.972   5.783  18.255  0.00  0.00    +0.000 N 
ATOM      2  C   UNL     1       5.150   5.079  18.275  0.00  0.00    +0.000 C 
ATOM      3  O   UNL     1       5.626   4.574  19.285  0.00  0.00    +0.000 OA
ATOM      4  H   UNL     1       3.475   5.975  17.389  0.00  0.00    +0.000 HD
ENDROOT
BRANCH   2   5
ATOM      5  C   UNL     1       5.855   4.943  16.992  0.00  0.00    +0.000 A 
ATOM      6  C   UNL     1       5.581   3.944  16.088  0.00  0.00    +0.000 A 
ATOM      7  N   UNL     1       6.199   3.823  14.892  0.00  0.00    +0.000 NA
ATOM      8  C   UNL     1       7.124   4.754  14.571  0.00  0.00    +0.000 A 
ATOM      9  N   UNL     1       7.443   5.781  15.390  0.00  0.00    +0.000 NA
ATOM     10  C   UNL     1       6.792   5.860  16.577  0.00  0.00    +0.000 A 
BRANCH   8  11
ATOM     11  C   UNL     1       7.862   4.596  13.265  0.00  0.00    +0.000 C 
ATOM     12  C   UNL     1       7.138   4.792  11.950  0.00  0.00    +0.000 C 
ATOM     13  C   UNL     1       8.170   5.788  12.388  0.00  0.00    +0.000 C 
ENDBRANCH   8  11
ENDBRANCH   2   5
BRANCH   1  14
ATOM     14  C   UNL     1       3.221   6.096  19.471  0.00  0.00    +0.000 C 
ATOM     15  C   UNL     1       2.354   7.334  19.240  0.00  0.00    +0.000 C 
BRANCH  14  19
ATOM     16  C   UNL     1       1.262   2.363  22.104  0.00  0.00    +0.000 C 
ATOM     17  C   UNL     1       1.597   3.338  21.045  0.00  0.00    +0.000 A 
ATOM     18  N   UNL     1       2.472   4.316  21.097  0.00  0.00    +0.000 NA
ATOM     19  C   UNL     1       2.376   4.907  19.860  0.00  0.00    +0.000 A 
ATOM     20  N   UNL     1       1.462   4.347  19.048  0.00  0.00    +0.000 NA
ATOM     21  N   UNL     1       1.008   3.337  19.813  0.00  0.00    +0.000 N 
ATOM     22  H   UNL     1       0.310   2.703  19.440  0.00  0.00    +0.000 HD
ENDBRANCH  14  19
ENDBRANCH   1  14
TORSDOF 4
ENDMDL
MODEL 9
REMARK VINA RESULT:      -6.4      2.361      7.829
REMARK  Name = 
REMARK  6 active torsions:
REMARK  status: ('A' for Active; 'I' for Inactive)
REMARK    1  A    between atoms: C_1  and  C_2
REMARK    2  A    between atoms: C_4  and  C_5
REMARK    3  A    between atoms: C_5  and  C_6
REMARK    4  A    between atoms: C_5  and  N_7
REMARK    5  A    between atoms: C_8  and  C_10
REMARK    6  A    between atoms: C_13  and  C_14
REMARK                            x       y       z     vdW  Elec       q    Type
REMARK                         _______ _______ _______ _____ _____    ______ ____
ROOT
ATOM      1  N   UNL     1       0.927   9.539  18.993  0.00  0.00    +0.000 N 
ATOM      2  C   UNL     1       1.395   8.490  19.744  0.00  0.00    +0.000 C 
ATOM      3  O   UNL     1       1.031   8.255  20.889  0.00  0.00    +0.000 OA
ATOM      4  H   UNL     1       1.046   9.574  17.984  0.00  0.00    +0.000 HD
ENDROOT
BRANCH   2   5
ATOM      5  C   UNL     1       2.393   7.620  19.105  0.00  0.00    +0.000 A 
ATOM      6  C   UNL     1       2.747   6.390  19.609  0.00  0.00    +0.000 A 
ATOM      7  N   UNL     1       3.640   5.565  19.018  0.00  0.00    +0.000 NA
ATOM      8  C   UNL     1       4.196   5.976  17.858  0.00  0.00    +0.000 A 
ATOM      9  N   UNL     1       3.893   7.161  17.280  0.00  0.00    +0.000 NA
ATOM     10  C   UNL     1       2.989   7.951  17.910  0.00  0.00    +0.000 A 
BRANCH   8  11
ATOM     11  C   UNL     1       5.238   5.091  17.220  0.00  0.00    +0.000 C 
ATOM     12  C   UNL     1       4.836   4.071  16.177  0.00  0.00    +0.000 C 
ATOM     13  C   UNL     1       5.642   5.270  15.774  0.00  0.00    +0.000 C 
ENDBRANCH   8  11
ENDBRANCH   2   5
BRANCH   1  14
ATOM     14  C   UNL     1       0.020  10.552  19.534  0.00  0.00    +0.000 C 
ATOM     15  C   UNL     1       0.818  11.778  19.977  0.00  0.00    +0.000 C 
BRANCH  14  19
ATOM     16  C   UNL     1      -3.101  10.246  15.677  0.00  0.00    +0.000 C 
ATOM     17  C   UNL     1      -2.307  10.708  16.835  0.00  0.00    +0.000 A 
ATOM     18  N   UNL     1      -1.439  10.021  17.544  0.00  0.00    +0.000 NA
ATOM     19  C   UNL     1      -1.005  10.919  18.489  0.00  0.00    +0.000 A 
ATOM     20  N   UNL     1      -1.582  12.132  18.408  0.00  0.00    +0.000 NA
ATOM     21  N   UNL     1      -2.376  11.978  17.332  0.00  0.00    +0.000 N 
ATOM     22  H   UNL     1      -2.929  12.762  17.003  0.00  0.00    +0.000 HD
ENDBRANCH  14  19
ENDBRANCH   1  14
TORSDOF 4
ENDMDL
