MODEL 1
REMARK VINA RESULT:      -6.8      0.000      0.000
REMARK  Name = 
REMARK  8 active torsions:
REMARK  status: ('A' for Active; 'I' for Inactive)
REMARK    1  A    between atoms: C_1  and  C_2
REMARK    2  A    between atoms: C_2  and  N_3
REMARK    3  A    between atoms: N_3  and  C_4
REMARK    4  A    between atoms: C_7  and  O_8
REMARK    5  A    between atoms: O_8  and  C_9
REMARK    6  A    between atoms: C_9  and  C_10
REMARK    7  A    between atoms: N_13  and  C_14
REMARK    8  A    between atoms: C_14  and  C_15
REMARK                            x       y       z     vdW  Elec       q    Type
REMARK                         _______ _______ _______ _____ _____    ______ ____
ROOT
ATOM      1  O   UNL     1       3.478   2.436  18.292  0.00  0.00    +0.000 OA
ENDROOT
BRANCH   1   5
ATOM      2  C   UNL     1       6.044   5.599  17.278  0.00  0.00    +0.000 A 
ATOM      3  C   UNL     1       5.188   4.985  16.355  0.00  0.00    +0.000 A 
ATOM      4  C   UNL     1       4.335   3.944  16.734  0.00  0.00    +0.000 A 
ATOM      5  C   UNL     1       4.358   3.451  18.035  0.00  0.00    +0.000 A 
ATOM      6  C   UNL     1       5.221   4.029  18.962  0.00  0.00    +0.000 A 
ATOM      7  C   UNL     1       6.063   5.086  18.580  0.00  0.00    +0.000 A 
BRANCH   2   8
ATOM      8  N   UNL     1       6.929   6.587  16.823  0.00  0.00    +0.000 N 
ATOM      9  H   UNL     1       6.439   7.292  16.275  0.00  0.00    +0.000 HD
BRANCH   8  11
ATOM     10  C   UNL     1       7.736   8.690  17.734  0.00  0.00    +0.000 C 
ATOM     11  C   UNL     1       7.878   7.174  17.761  0.00  0.00    +0.000 C 
ENDBRANCH   8  11
ENDBRANCH   2   8
ENDBRANCH   1   5
BRANCH   1  12
ATOM     12  C   UNL     1       3.383   2.021  19.656  0.00  0.00    +0.000 C 
BRANCH  12  13
ATOM     13  C   UNL     1       1.963   2.327  20.170  0.00  0.00    +0.000 C 
ATOM     14  C   UNL     1       1.098   3.033  19.118  0.00  0.00    +0.000 C 
ATOM     15  C   UNL     1       1.537   4.480  18.871  0.00  0.00    +0.000 C 
ATOM     16  N   UNL     1       1.596   5.272  20.110  0.00  0.00    +0.000 NA
ATOM     17  C   UNL     1       2.431   4.628  21.136  0.00  0.00    +0.000 C 
ATOM     18  C   UNL     1       1.993   3.192  21.433  0.00  0.00    +0.000 C 
BRANCH  16  19
ATOM     19  C   UNL     1       2.102   6.635  19.867  0.00  0.00    +0.000 C 
BRANCH  19  20
ATOM     20  C   UNL     1       2.118   7.004  18.412  0.00  0.00    +0.000 C 
ATOM     21  C   UNL     1       1.956   8.432  17.956  0.00  0.00    +0.000 C 
ATOM     22  C   UNL     1       3.293   7.758  17.837  0.00  0.00    +0.000 C 
ENDBRANCH  19  20
ENDBRANCH  16  19
ENDBRANCH  12  13
ENDBRANCH   1  12
TORSDOF 7
ENDMDL
MODEL 2
REMARK VINA RESULT:      -6.7      3.625      5.765
REMARK  Name = 
REMARK  8 active torsions:
REMARK  status: ('A' for Active; 'I' for Inactive)
REMARK    1  A    between atoms: C_1  and  C_2
REMARK    2  A    between atoms: C_2  and  N_3
REMARK    3  A    between atoms: N_3  and  C_4
REMARK    4  A    between atoms: C_7  and  O_8
REMARK    5  A    between atoms: O_8  and  C_9
REMARK    6  A    between atoms: C_9  and  C_10
REMARK    7  A    between atoms: N_13  and  C_14
REMARK    8  A    between atoms: C_14  and  C_15
REMARK                            x       y       z     vdW  Elec       q    Type
REMARK                         _______ _______ _______ _____ _____    ______ ____
ROOT
ATOM      1  O   UNL     1       6.958   5.799  15.483  0.00  0.00    +0.000 OA
ENDROOT
BRANCH   1   5
ATOM      2  C   UNL     1       5.966   3.238  12.308  0.00  0.00    +0.000 A 
ATOM      3  C   UNL     1       5.194   3.345  13.472  0.00  0.00    +0.000 A 
ATOM      4  C   UNL     1       5.548   4.222  14.502  0.00  0.00    +0.000 A 
ATOM      5  C   UNL     1       6.716   4.973  14.419  0.00  0.00    +0.000 A 
ATOM      6  C   UNL     1       7.512   4.861  13.282  0.00  0.00    +0.000 A 
ATOM      7  C   UNL     1       7.143   3.992  12.244  0.00  0.00    +0.000 A 
BRANCH   2   8
ATOM      8  N   UNL     1       5.602   2.288  11.343  0.00  0.00    +0.000 N 
ATOM      9  H   UNL     1       5.126   2.729  10.558  0.00  0.00    +0.000 HD
BRANCH   8  11
ATOM     10  C   UNL     1       6.079  -0.092  11.254  0.00  0.00    +0.000 C 
ATOM     11  C   UNL     1       6.586   1.302  10.913  0.00  0.00    +0.000 C 
ENDBRANCH   8  11
ENDBRANCH   2   8
ENDBRANCH   1   5
BRANCH   1  12
ATOM     12  C   UNL     1       7.077   5.160  16.756  0.00  0.00    +0.000 C 
BRANCH  12  13
ATOM     13  C   UNL     1       6.646   6.155  17.851  0.00  0.00    +0.000 C 
ATOM     14  C   UNL     1       6.215   5.452  19.145  0.00  0.00    +0.000 C 
ATOM     15  C   UNL     1       4.876   4.722  18.999  0.00  0.00    +0.000 C 
ATOM     16  N   UNL     1       3.804   5.601  18.506  0.00  0.00    +0.000 NA
ATOM     17  C   UNL     1       4.181   6.281  17.256  0.00  0.00    +0.000 C 
ATOM     18  C   UNL     1       5.496   7.051  17.380  0.00  0.00    +0.000 C 
BRANCH  16  19
ATOM     19  C   UNL     1       2.545   4.865  18.289  0.00  0.00    +0.000 C 
BRANCH  19  20
ATOM     20  C   UNL     1       2.285   3.826  19.343  0.00  0.00    +0.000 C 
ATOM     21  C   UNL     1       1.202   4.003  20.377  0.00  0.00    +0.000 C 
ATOM     22  C   UNL     1       1.030   2.988  19.283  0.00  0.00    +0.000 C 
ENDBRANCH  19  20
ENDBRANCH  16  19
ENDBRANCH  12  13
ENDBRANCH   1  12
TORSDOF 7
ENDMDL
MODEL 3
REMARK VINA RESULT:      -6.6      2.336      5.830
REMARK  Name = 
REMARK  8 active torsions:
REMARK  status: ('A' for Active; 'I' for Inactive)
REMARK    1  A    between atoms: C_1  and  C_2
REMARK    2  A    between atoms: C_2  and  N_3
REMARK    3  A    between atoms: N_3  and  C_4
REMARK    4  A    between atoms: C_7  and  O_8
REMARK    5  A    between atoms: O_8  and  C_9
REMARK    6  A    between atoms: C_9  and  C_10
REMARK    7  A    between atoms: N_13  and  C_14
REMARK    8  A    between atoms: C_14  and  C_15
REMARK                            x       y       z     vdW  Elec       q    Type
REMARK                         _______ _______ _______ _____ _____    ______ ____
ROOT
ATOM      1  O   UNL     1       3.712   7.129  17.188  0.00  0.00    +0.000 OA
ENDROOT
BRANCH   1   5
ATOM      2  C   UNL     1       1.103   9.041  19.863  0.00  0.00    +0.000 A 
ATOM      3  C   UNL     1       1.742   7.829  20.155  0.00  0.00    +0.000 A 
ATOM      4  C   UNL     1       2.618   7.230  19.244  0.00  0.00    +0.000 A 
ATOM      5  C   UNL     1       2.832   7.799  17.993  0.00  0.00    +0.000 A 
ATOM      6  C   UNL     1       2.187   8.990  17.672  0.00  0.00    +0.000 A 
ATOM      7  C   UNL     1       1.322   9.597  18.597  0.00  0.00    +0.000 A 
BRANCH   2   8
ATOM      8  N   UNL     1       0.180   9.556  20.785  0.00  0.00    +0.000 N 
ATOM      9  H   UNL     1      -0.608   9.990  20.308  0.00  0.00    +0.000 HD
BRANCH   8  11
ATOM     10  C   UNL     1      -0.052   9.503  23.202  0.00  0.00    +0.000 C 
ATOM     11  C   UNL     1      -0.237   8.724  21.907  0.00  0.00    +0.000 C 
ENDBRANCH   8  11
ENDBRANCH   2   8
ENDBRANCH   1   5
BRANCH   1  12
ATOM     12  C   UNL     1       5.038   6.979  17.699  0.00  0.00    +0.000 C 
BRANCH  12  13
ATOM     13  C   UNL     1       5.646   5.683  17.128  0.00  0.00    +0.000 C 
ATOM     14  C   UNL     1       4.605   4.810  16.416  0.00  0.00    +0.000 C 
ATOM     15  C   UNL     1       3.620   4.157  17.391  0.00  0.00    +0.000 C 
ATOM     16  N   UNL     1       4.298   3.393  18.451  0.00  0.00    +0.000 NA
ATOM     17  C   UNL     1       5.295   4.208  19.165  0.00  0.00    +0.000 C 
ATOM     18  C   UNL     1       6.317   4.845  18.220  0.00  0.00    +0.000 C 
BRANCH  16  19
ATOM     19  C   UNL     1       3.342   2.843  19.429  0.00  0.00    +0.000 C 
BRANCH  19  20
ATOM     20  C   UNL     1       2.024   3.563  19.429  0.00  0.00    +0.000 C 
ATOM     21  C   UNL     1       0.715   2.816  19.400  0.00  0.00    +0.000 C 
ATOM     22  C   UNL     1       1.143   3.524  20.654  0.00  0.00    +0.000 C 
ENDBRANCH  19  20
ENDBRANCH  16  19
ENDBRANCH  12  13
ENDBRANCH   1  12
TORSDOF 7
ENDMDL
MODEL 4
REMARK VINA RESULT:      -6.6      3.569      5.724
REMARK  Name = 
REMARK  8 active torsions:
REMARK  status: ('A' for Active; 'I' for Inactive)
REMARK    1  A    between atoms: C_1  and  C_2
REMARK    2  A    between atoms: C_2  and  N_3
REMARK    3  A    between atoms: N_3  and  C_4
REMARK    4  A    between atoms: C_7  and  O_8
REMARK    5  A    between atoms: O_8  and  C_9
REMARK    6  A    between atoms: C_9  and  C_10
REMARK    7  A    between atoms: N_13  and  C_14
REMARK    8  A    between atoms: C_14  and  C_15
REMARK                            x       y       z     vdW  Elec       q    Type
REMARK                         _______ _______ _______ _____ _____    ______ ____
ROOT
ATOM      1  O   UNL     1       7.679   5.299  15.561  0.00  0.00    +0.000 OA
ENDROOT
BRANCH   1   5
ATOM      2  C   UNL     1       5.502   3.579  12.411  0.00  0.00    +0.000 A 
ATOM      3  C   UNL     1       6.775   4.140  12.242  0.00  0.00    +0.000 A 
ATOM      4  C   UNL     1       7.476   4.690  13.320  0.00  0.00    +0.000 A 
ATOM      5  C   UNL     1       6.898   4.745  14.584  0.00  0.00    +0.000 A 
ATOM      6  C   UNL     1       5.623   4.216  14.768  0.00  0.00    +0.000 A 
ATOM      7  C   UNL     1       4.931   3.650  13.687  0.00  0.00    +0.000 A 
BRANCH   2   8
ATOM      8  N   UNL     1       4.817   3.111  11.281  0.00  0.00    +0.000 N 
ATOM      9  H   UNL     1       4.524   2.143  11.407  0.00  0.00    +0.000 HD
BRANCH   8  11
ATOM     10  C   UNL     1       2.912   3.080   9.773  0.00  0.00    +0.000 C 
ATOM     11  C   UNL     1       3.769   3.937  10.695  0.00  0.00    +0.000 C 
ENDBRANCH   8  11
ENDBRANCH   2   8
ENDBRANCH   1   5
BRANCH   1  12
ATOM     12  C   UNL     1       7.467   4.806  16.886  0.00  0.00    +0.000 C 
BRANCH  12  13
ATOM     13  C   UNL     1       7.283   6.005  17.837  0.00  0.00    +0.000 C 
ATOM     14  C   UNL     1       6.754   5.584  19.214  0.00  0.00    +0.000 C 
ATOM     15  C   UNL     1       5.290   5.137  19.170  0.00  0.00    +0.000 C 
ATOM     16  N   UNL     1       4.409   6.149  18.563  0.00  0.00    +0.000 NA
ATOM     17  C   UNL     1       4.881   6.564  17.233  0.00  0.00    +0.000 C 
ATOM     18  C   UNL     1       6.331   7.051  17.251  0.00  0.00    +0.000 C 
BRANCH  16  19
ATOM     19  C   UNL     1       3.019   5.670  18.450  0.00  0.00    +0.000 C 
BRANCH  19  20
ATOM     20  C   UNL     1       2.911   4.172  18.469  0.00  0.00    +0.000 C 
ATOM     21  C   UNL     1       1.595   3.471  18.251  0.00  0.00    +0.000 C 
ATOM     22  C   UNL     1       2.654   3.417  17.187  0.00  0.00    +0.000 C 
ENDBRANCH  19  20
ENDBRANCH  16  19
ENDBRANCH  12  13
ENDBRANCH   1  12
TORSDOF 7
ENDMDL
MODEL 5
REMARK VINA RESULT:      -6.5      2.411      5.433
REMARK  Name = 
REMARK  8 active torsions:
REMARK  status: ('A' for Active; 'I' for Inactive)
REMARK    1  A    between atoms: C_1  and  C_2
REMARK    2  A    between atoms: C_2  and  N_3
REMARK    3  A    between atoms: N_3  and  C_4
REMARK    4  A    between atoms: C_7  and  O_8
REMARK    5  A    between atoms: O_8  and  C_9
REMARK    6  A    between atoms: C_9  and  C_10
REMARK    7  A    between atoms: N_13  and  C_14
REMARK    8  A    between atoms: C_14  and  C_15
REMARK                            x       y       z     vdW  Elec       q    Type
REMARK                         _______ _______ _______ _____ _____    ______ ____
ROOT
ATOM      1  O   UNL     1       2.921   5.593  19.911  0.00  0.00    +0.000 OA
ENDROOT
BRANCH   1   5
ATOM      2  C   UNL     1       1.346   9.295  18.714  0.00  0.00    +0.000 A 
ATOM      3  C   UNL     1       2.039   8.443  17.844  0.00  0.00    +0.000 A 
ATOM      4  C   UNL     1       2.535   7.209  18.275  0.00  0.00    +0.000 A 
ATOM      5  C   UNL     1       2.401   6.821  19.605  0.00  0.00    +0.000 A 
ATOM      6  C   UNL     1       1.740   7.665  20.493  0.00  0.00    +0.000 A 
ATOM      7  C   UNL     1       1.228   8.895  20.050  0.00  0.00    +0.000 A 
BRANCH   2   8
ATOM      8  N   UNL     1       0.937  10.551  18.243  0.00  0.00    +0.000 N 
ATOM      9  H   UNL     1       1.174  10.667  17.260  0.00  0.00    +0.000 HD
BRANCH   8  11
ATOM     10  C   UNL     1      -1.413  10.224  17.725  0.00  0.00    +0.000 C 
ATOM     11  C   UNL     1      -0.410  11.017  18.550  0.00  0.00    +0.000 C 
ENDBRANCH   8  11
ENDBRANCH   2   8
ENDBRANCH   1   5
BRANCH   1  12
ATOM     12  C   UNL     1       1.976   4.526  20.028  0.00  0.00    +0.000 C 
BRANCH  12  13
ATOM     13  C   UNL     1       2.676   3.202  19.664  0.00  0.00    +0.000 C 
ATOM     14  C   UNL     1       4.203   3.297  19.771  0.00  0.00    +0.000 C 
ATOM     15  C   UNL     1       4.818   4.159  18.664  0.00  0.00    +0.000 C 
ATOM     16  N   UNL     1       4.420   3.718  17.317  0.00  0.00    +0.000 NA
ATOM     17  C   UNL     1       2.957   3.631  17.177  0.00  0.00    +0.000 C 
ATOM     18  C   UNL     1       2.317   2.745  18.247  0.00  0.00    +0.000 C 
BRANCH  16  19
ATOM     19  C   UNL     1       4.949   4.609  16.268  0.00  0.00    +0.000 C 
BRANCH  19  20
ATOM     20  C   UNL     1       6.002   3.955  15.421  0.00  0.00    +0.000 C 
ATOM     21  C   UNL     1       5.913   3.945  13.916  0.00  0.00    +0.000 C 
ATOM     22  C   UNL     1       6.942   4.801  14.597  0.00  0.00    +0.000 C 
ENDBRANCH  19  20
ENDBRANCH  16  19
ENDBRANCH  12  13
ENDBRANCH   1  12
TORSDOF 7
ENDMDL
MODEL 6
REMARK VINA RESULT:      -6.5      2.845      6.765
REMARK  Name = 
REMARK  8 active torsions:
REMARK  status: ('A' for Active; 'I' for Inactive)
REMARK    1  A    between atoms: C_1  and  C_2
REMARK    2  A    between atoms: C_2  and  N_3
REMARK    3  A    between atoms: N_3  and  C_4
REMARK    4  A    between atoms: C_7  and  O_8
REMARK    5  A    between atoms: O_8  and  C_9
REMARK    6  A    between atoms: C_9  and  C_10
REMARK    7  A    between atoms: N_13  and  C_14
REMARK    8  A    between atoms: C_14  and  C_15
REMARK                            x       y       z     vdW  Elec       q    Type
REMARK                         _______ _______ _______ _____ _____    ______ ____
ROOT
ATOM      1  O   UNL     1       3.371   6.034  17.840  0.00  0.00    +0.000 OA
ENDROOT
BRANCH   1   5
ATOM      2  C   UNL     1       1.230   8.817  20.140  0.00  0.00    +0.000 A 
ATOM      3  C   UNL     1       1.610   7.559  20.624  0.00  0.00    +0.000 A 
ATOM      4  C   UNL     1       2.338   6.664  19.833  0.00  0.00    +0.000 A 
ATOM      5  C   UNL     1       2.654   6.983  18.516  0.00  0.00    +0.000 A 
ATOM      6  C   UNL     1       2.263   8.218  18.007  0.00  0.00    +0.000 A 
ATOM      7  C   UNL     1       1.548   9.119  18.811  0.00  0.00    +0.000 A 
BRANCH   2   8
ATOM      8  N   UNL     1       0.439   9.641  20.954  0.00  0.00    +0.000 N 
ATOM      9  H   UNL     1      -0.059  10.333  20.397  0.00  0.00    +0.000 HD
BRANCH   8  11
ATOM     10  C   UNL     1       0.011   9.538  23.342  0.00  0.00    +0.000 C 
ATOM     11  C   UNL     1      -0.408   9.029  21.970  0.00  0.00    +0.000 C 
ENDBRANCH   8  11
ENDBRANCH   2   8
ENDBRANCH   1   5
BRANCH   1  12
ATOM     12  C   UNL     1       4.647   5.704  18.392  0.00  0.00    +0.000 C 
BRANCH  12  13
ATOM     13  C   UNL     1       5.734   6.491  17.634  0.00  0.00    +0.000 C 
ATOM     14  C   UNL     1       5.298   6.873  16.213  0.00  0.00    +0.000 C 
ATOM     15  C   UNL     1       5.233   5.665  15.274  0.00  0.00    +0.000 C 
ATOM     16  N   UNL     1       6.494   4.905  15.242  0.00  0.00    +0.000 NA
ATOM     17  C   UNL     1       6.934   4.511  16.591  0.00  0.00    +0.000 C 
ATOM     18  C   UNL     1       7.044   5.703  17.544  0.00  0.00    +0.000 C 
BRANCH  16  19
ATOM     19  C   UNL     1       6.389   3.699  14.402  0.00  0.00    +0.000 C 
BRANCH  19  20
ATOM     20  C   UNL     1       6.216   4.014  12.944  0.00  0.00    +0.000 C 
ATOM     21  C   UNL     1       6.746   3.099  11.869  0.00  0.00    +0.000 C 
ATOM     22  C   UNL     1       5.265   3.197  12.102  0.00  0.00    +0.000 C 
ENDBRANCH  19  20
ENDBRANCH  16  19
ENDBRANCH  12  13
ENDBRANCH   1  12
TORSDOF 7
ENDMDL
MODEL 7
REMARK VINA RESULT:      -6.5      3.662      5.804
REMARK  Name = 
REMARK  8 active torsions:
REMARK  status: ('A' for Active; 'I' for Inactive)
REMARK    1  A    between atoms: C_1  and  C_2
REMARK    2  A    between atoms: C_2  and  N_3
REMARK    3  A    between atoms: N_3  and  C_4
REMARK    4  A    between atoms: C_7  and  O_8
REMARK    5  A    between atoms: O_8  and  C_9
REMARK    6  A    between atoms: C_9  and  C_10
REMARK    7  A    between atoms: N_13  and  C_14
REMARK    8  A    between atoms: C_14  and  C_15
REMARK                            x       y       z     vdW  Elec       q    Type
REMARK                         _______ _______ _______ _____ _____    ______ ____
ROOT
ATOM      1  O   UNL     1       7.345   5.728  15.494  0.00  0.00    +0.000 OA
ENDROOT
BRANCH   1   5
ATOM      2  C   UNL     1       6.125   3.200  12.373  0.00  0.00    +0.000 A 
ATOM      3  C   UNL     1       7.227   4.060  12.273  0.00  0.00    +0.000 A 
ATOM      4  C   UNL     1       7.613   4.876  13.341  0.00  0.00    +0.000 A 
ATOM      5  C   UNL     1       6.871   4.895  14.517  0.00  0.00    +0.000 A 
ATOM      6  C   UNL     1       5.757   4.068  14.629  0.00  0.00    +0.000 A 
ATOM      7  C   UNL     1       5.385   3.238  13.560  0.00  0.00    +0.000 A 
BRANCH   2   8
ATOM      8  N   UNL     1       5.742   2.460  11.245  0.00  0.00    +0.000 N 
ATOM      9  H   UNL     1       5.435   3.075  10.493  0.00  0.00    +0.000 HD
BRANCH   8  11
ATOM     10  C   UNL     1       6.102   0.058  11.298  0.00  0.00    +0.000 C 
ATOM     11  C   UNL     1       6.613   1.392  10.770  0.00  0.00    +0.000 C 
ENDBRANCH   8  11
ENDBRANCH   2   8
ENDBRANCH   1   5
BRANCH   1  12
ATOM     12  C   UNL     1       7.430   5.168  16.806  0.00  0.00    +0.000 C 
BRANCH  12  13
ATOM     13  C   UNL     1       7.051   6.252  17.834  0.00  0.00    +0.000 C 
ATOM     14  C   UNL     1       6.834   5.677  19.240  0.00  0.00    +0.000 C 
ATOM     15  C   UNL     1       5.552   4.845  19.343  0.00  0.00    +0.000 C 
ATOM     16  N   UNL     1       4.360   5.585  18.897  0.00  0.00    +0.000 NA
ATOM     17  C   UNL     1       4.530   6.138  17.544  0.00  0.00    +0.000 C 
ATOM     18  C   UNL     1       5.784   7.006  17.418  0.00  0.00    +0.000 C 
BRANCH  16  19
ATOM     19  C   UNL     1       3.150   4.744  18.921  0.00  0.00    +0.000 C 
BRANCH  19  20
ATOM     20  C   UNL     1       2.377   4.866  20.204  0.00  0.00    +0.000 C 
ATOM     21  C   UNL     1       1.056   4.168  20.400  0.00  0.00    +0.000 C 
ATOM     22  C   UNL     1       2.272   3.683  21.136  0.00  0.00    +0.000 C 
ENDBRANCH  19  20
ENDBRANCH  16  19
ENDBRANCH  12  13
ENDBRANCH   1  12
TORSDOF 7
ENDMDL
MODEL 8
REMARK VINA RESULT:      -6.5      2.458      5.762
REMARK  Name = 
REMARK  8 active torsions:
REMARK  status: ('A' for Active; 'I' for Inactive)
REMARK    1  A    between atoms: C_1  and  C_2
REMARK    2  A    between atoms: C_2  and  N_3
REMARK    3  A    between atoms: N_3  and  C_4
REMARK    4  A    between atoms: C_7  and  O_8
REMARK    5  A    between atoms: O_8  and  C_9
REMARK    6  A    between atoms: C_9  and  C_10
REMARK    7  A    between atoms: N_13  and  C_14
REMARK    8  A    between atoms: C_14  and  C_15
REMARK                            x       y       z     vdW  Elec       q    Type
REMARK                         _______ _______ _______ _____ _____    ______ ____
ROOT
ATOM      1  O   UNL     1       3.400   6.673  17.411  0.00  0.00    +0.000 OA
ENDROOT
BRANCH   1   5
ATOM      2  C   UNL     1       1.062   9.025  19.984  0.00  0.00    +0.000 A 
ATOM      3  C   UNL     1       1.355   9.397  18.666  0.00  0.00    +0.000 A 
ATOM      4  C   UNL     1       2.125   8.579  17.833  0.00  0.00    +0.000 A 
ATOM      5  C   UNL     1       2.669   7.393  18.316  0.00  0.00    +0.000 A 
ATOM      6  C   UNL     1       2.412   7.017  19.632  0.00  0.00    +0.000 A 
ATOM      7  C   UNL     1       1.624   7.834  20.458  0.00  0.00    +0.000 A 
BRANCH   2   8
ATOM      8  N   UNL     1       0.348   9.920  20.794  0.00  0.00    +0.000 N 
ATOM      9  H   UNL     1      -0.550  10.155  20.375  0.00  0.00    +0.000 HD
BRANCH   8  11
ATOM     10  C   UNL     1      -0.766  10.612  22.839  0.00  0.00    +0.000 C 
ATOM     11  C   UNL     1       0.242   9.651  22.223  0.00  0.00    +0.000 C 
ENDBRANCH   8  11
ENDBRANCH   2   8
ENDBRANCH   1   5
BRANCH   1  12
ATOM     12  C   UNL     1       4.818   6.705  17.585  0.00  0.00    +0.000 C 
BRANCH  12  13
ATOM     13  C   UNL     1       5.419   5.411  17.001  0.00  0.00    +0.000 C 
ATOM     14  C   UNL     1       4.353   4.497  16.383  0.00  0.00    +0.000 C 
ATOM     15  C   UNL     1       3.456   3.843  17.438  0.00  0.00    +0.000 C 
ATOM     16  N   UNL     1       4.225   3.122  18.466  0.00  0.00    +0.000 NA
ATOM     17  C   UNL     1       5.248   3.977  19.090  0.00  0.00    +0.000 C 
ATOM     18  C   UNL     1       6.184   4.615  18.063  0.00  0.00    +0.000 C 
BRANCH  16  19
ATOM     19  C   UNL     1       3.353   2.572  19.520  0.00  0.00    +0.000 C 
BRANCH  19  20
ATOM     20  C   UNL     1       2.413   3.592  20.095  0.00  0.00    +0.000 C 
ATOM     21  C   UNL     1       1.069   3.203  20.655  0.00  0.00    +0.000 C 
ATOM     22  C   UNL     1       2.166   3.637  21.583  0.00  0.00    +0.000 C 
ENDBRANCH  19  20
ENDBRANCH  16  19
ENDBRANCH  12  13
ENDBRANCH   1  12
TORSDOF 7
ENDMDL
MODEL 9
REMARK VINA RESULT:      -6.4      2.436      5.782
REMARK  Name = 
REMARK  8 active torsions:
REMARK  status: ('A' for Active; 'I' for Inactive)
REMARK    1  A    between atoms: C_1  and  C_2
REMARK    2  A    between atoms: C_2  and  N_3
REMARK    3  A    between atoms: N_3  and  C_4
REMARK    4  A    between atoms: C_7  and  O_8
REMARK    5  A    between atoms: O_8  and  C_9
REMARK    6  A    between atoms: C_9  and  C_10
REMARK    7  A    between atoms: N_13  and  C_14
REMARK    8  A    between atoms: C_14  and  C_15
REMARK                            x       y       z     vdW  Elec       q    Type
REMARK                         _______ _______ _______ _____ _____    ______ ____
ROOT
ATOM      1  O   UNL     1       3.710   7.104  17.243  0.00  0.00    +0.000 OA
ENDROOT
BRANCH   1   5
ATOM      2  C   UNL     1       1.079   8.996  19.910  0.00  0.00    +0.000 A 
ATOM      3  C   UNL     1       1.715   7.781  20.198  0.00  0.00    +0.000 A 
ATOM      4  C   UNL     1       2.599   7.190  19.290  0.00  0.00    +0.000 A 
ATOM      5  C   UNL     1       2.824   7.768  18.046  0.00  0.00    +0.000 A 
ATOM      6  C   UNL     1       2.182   8.962  17.729  0.00  0.00    +0.000 A 
ATOM      7  C   UNL     1       1.309   9.561  18.651  0.00  0.00    +0.000 A 
BRANCH   2   8
ATOM      8  N   UNL     1       0.148   9.503  20.828  0.00  0.00    +0.000 N 
ATOM      9  H   UNL     1       0.547   9.555  21.763  0.00  0.00    +0.000 HD
BRANCH   8  11
ATOM     10  C   UNL     1      -0.266  11.812  21.461  0.00  0.00    +0.000 C 
ATOM     11  C   UNL     1      -0.610  10.700  20.480  0.00  0.00    +0.000 C 
ENDBRANCH   8  11
ENDBRANCH   2   8
ENDBRANCH   1   5
BRANCH   1  12
ATOM     12  C   UNL     1       4.869   6.577  17.893  0.00  0.00    +0.000 C 
BRANCH  12  13
ATOM     13  C   UNL     1       5.305   5.291  17.164  0.00  0.00    +0.000 C 
ATOM     14  C   UNL     1       4.135   4.588  16.465  0.00  0.00    +0.000 C 
ATOM     15  C   UNL     1       3.164   3.937  17.454  0.00  0.00    +0.000 C 
ATOM     16  N   UNL     1       3.837   3.018  18.386  0.00  0.00    +0.000 NA
ATOM     17  C   UNL     1       4.958   3.668  19.086  0.00  0.00    +0.000 C 
ATOM     18  C   UNL     1       5.967   4.296  18.122  0.00  0.00    +0.000 C 
BRANCH  16  19
ATOM     19  C   UNL     1       2.904   2.467  19.386  0.00  0.00    +0.000 C 
BRANCH  19  20
ATOM     20  C   UNL     1       2.501   3.471  20.428  0.00  0.00    +0.000 C 
ATOM     21  C   UNL     1       1.084   3.972  20.536  0.00  0.00    +0.000 C 
ATOM     22  C   UNL     1       1.631   3.048  21.586  0.00  0.00    +0.000 C 
ENDBRANCH  19  20
ENDBRANCH  16  19
ENDBRANCH  12  13
ENDBRANCH   1  12
TORSDOF 7
ENDMDL
