MODEL 1
REMARK VINA RESULT:      -6.1      0.000      0.000
REMARK  Name = 
REMARK  6 active torsions:
REMARK  status: ('A' for Active; 'I' for Inactive)
REMARK    1  A    between atoms: C_1  and  C_2
REMARK    2  A    between atoms: C_2  and  C_3
REMARK    3  A    between atoms: C_6  and  N_7
REMARK    4  A    between atoms: C_10  and  C_11
REMARK    5  A    between atoms: C_10  and  C_12
REMARK    6  A    between atoms: N_13  and  O_14
REMARK                            x       y       z     vdW  Elec       q    Type
REMARK                         _______ _______ _______ _____ _____    ______ ____
ROOT
ATOM      1  C   UNL     1       1.874   6.000  20.600  0.00  0.00    +0.000 C 
ATOM      2  C   UNL     1       2.756   5.703  19.385  0.00  0.00    +0.000 C 
ATOM      3  C   UNL     1       2.668   6.887  18.397  0.00  0.00    +0.000 C 
ATOM      4  N   UNL     1       4.146   5.592  19.794  0.00  0.00    +0.000 N 
ATOM      5  C   UNL     1       4.766   4.674  18.967  0.00  0.00    +0.000 C 
ATOM      6  C   UNL     1       6.049   4.606  18.564  0.00  0.00    +0.000 C 
ATOM      7  C   UNL     1       3.663   3.733  18.417  0.00  0.00    +0.000 C 
ATOM      8  C   UNL     1       3.716   2.400  19.191  0.00  0.00    +0.000 C 
ATOM      9  C   UNL     1       3.787   3.441  16.908  0.00  0.00    +0.000 C 
ATOM     10  N   UNL     1       2.353   4.389  18.796  0.00  0.00    +0.000 NA
ATOM     11  H   UNL     1       4.666   6.447  19.994  0.00  0.00    +0.000 HD
ENDROOT
BRANCH   6  12
ATOM     12  N   UNL     1       7.036   5.571  18.978  0.00  0.00    +0.000 N 
ATOM     13  O   UNL     1       7.492   6.384  18.157  0.00  0.00    +0.000 OA
ATOM     14  O   UNL     1       7.403   5.483  20.154  0.00  0.00    +0.000 OA
ENDBRANCH   6  12
BRANCH  10  15
ATOM     15  O   UNL     1       1.526   4.601  17.623  0.00  0.00    +0.000 OA
ATOM     16  H   UNL     1       1.146   5.479  17.811  0.00  0.00    +0.000 HD
ENDBRANCH  10  15
TORSDOF 2
ENDMDL
MODEL 2
REMARK VINA RESULT:      -5.9      1.694      2.682
REMARK  Name = 
REMARK  6 active torsions:
REMARK  status: ('A' for Active; 'I' for Inactive)
REMARK    1  A    between atoms: C_1  and  C_2
REMARK    2  A    between atoms: C_2  and  C_3
REMARK    3  A    between atoms: C_6  and  N_7
REMARK    4  A    between atoms: C_10  and  C_11
REMARK    5  A    between atoms: C_10  and  C_12
REMARK    6  A    between atoms: N_13  and  O_14
REMARK                            x       y       z     vdW  Elec       q    Type
REMARK                         _______ _______ _______ _____ _____    ______ ____
ROOT
ATOM      1  C   UNL     1       4.241   2.312  19.359  0.00  0.00    +0.000 C 
ATOM      2  C   UNL     1       4.506   3.717  18.812  0.00  0.00    +0.000 C 
ATOM      3  C   UNL     1       3.738   4.745  19.672  0.00  0.00    +0.000 C 
ATOM      4  N   UNL     1       5.920   4.037  18.927  0.00  0.00    +0.000 N 
ATOM      5  C   UNL     1       6.261   4.861  17.870  0.00  0.00    +0.000 C 
ATOM      6  C   UNL     1       7.200   5.823  17.797  0.00  0.00    +0.000 C 
ATOM      7  C   UNL     1       5.244   4.592  16.732  0.00  0.00    +0.000 C 
ATOM      8  C   UNL     1       5.913   3.698  15.668  0.00  0.00    +0.000 C 
ATOM      9  C   UNL     1       4.718   5.871  16.050  0.00  0.00    +0.000 C 
ATOM     10  N   UNL     1       4.152   3.754  17.360  0.00  0.00    +0.000 NA
ATOM     11  H   UNL     1       6.289   4.296  19.842  0.00  0.00    +0.000 HD
ENDROOT
BRANCH   6  12
ATOM     12  N   UNL     1       8.050   6.154  18.913  0.00  0.00    +0.000 N 
ATOM     13  O   UNL     1       8.239   5.324  19.817  0.00  0.00    +0.000 OA
ATOM     14  O   UNL     1       8.508   7.301  18.908  0.00  0.00    +0.000 OA
ENDBRANCH   6  12
BRANCH  10  15
ATOM     15  O   UNL     1       2.856   4.378  17.179  0.00  0.00    +0.000 OA
ATOM     16  H   UNL     1       2.564   3.976  16.339  0.00  0.00    +0.000 HD
ENDBRANCH  10  15
TORSDOF 2
ENDMDL
MODEL 3
REMARK VINA RESULT:      -5.8      2.889      3.558
REMARK  Name = 
REMARK  6 active torsions:
REMARK  status: ('A' for Active; 'I' for Inactive)
REMARK    1  A    between atoms: C_1  and  C_2
REMARK    2  A    between atoms: C_2  and  C_3
REMARK    3  A    between atoms: C_6  and  N_7
REMARK    4  A    between atoms: C_10  and  C_11
REMARK    5  A    between atoms: C_10  and  C_12
REMARK    6  A    between atoms: N_13  and  O_14
REMARK                            x       y       z     vdW  Elec       q    Type
REMARK                         _______ _______ _______ _____ _____    ______ ____
ROOT
ATOM      1  C   UNL     1       2.191   2.862  21.688  0.00  0.00    +0.000 C 
ATOM      2  C   UNL     1       2.144   3.428  20.267  0.00  0.00    +0.000 C 
ATOM      3  C   UNL     1       0.715   3.260  19.705  0.00  0.00    +0.000 C 
ATOM      4  N   UNL     1       2.427   4.854  20.290  0.00  0.00    +0.000 N 
ATOM      5  C   UNL     1       3.078   5.182  19.114  0.00  0.00    +0.000 C 
ATOM      6  C   UNL     1       3.071   6.335  18.419  0.00  0.00    +0.000 C 
ATOM      7  C   UNL     1       3.765   3.892  18.596  0.00  0.00    +0.000 C 
ATOM      8  C   UNL     1       5.270   3.965  18.924  0.00  0.00    +0.000 C 
ATOM      9  C   UNL     1       3.595   3.661  17.081  0.00  0.00    +0.000 C 
ATOM     10  N   UNL     1       3.203   2.771  19.441  0.00  0.00    +0.000 NA
ATOM     11  H   UNL     1       1.693   5.493  20.596  0.00  0.00    +0.000 HD
ENDROOT
BRANCH   6  12
ATOM     12  N   UNL     1       2.316   7.485  18.846  0.00  0.00    +0.000 N 
ATOM     13  O   UNL     1       2.029   7.630  20.046  0.00  0.00    +0.000 OA
ATOM     14  O   UNL     1       1.956   8.248  17.943  0.00  0.00    +0.000 OA
ENDBRANCH   6  12
BRANCH  10  15
ATOM     15  O   UNL     1       2.616   1.741  18.605  0.00  0.00    +0.000 OA
ATOM     16  H   UNL     1       1.735   1.640  19.014  0.00  0.00    +0.000 HD
ENDBRANCH  10  15
TORSDOF 2
ENDMDL
MODEL 4
REMARK VINA RESULT:      -5.8      1.688      2.073
REMARK  Name = 
REMARK  6 active torsions:
REMARK  status: ('A' for Active; 'I' for Inactive)
REMARK    1  A    between atoms: C_1  and  C_2
REMARK    2  A    between atoms: C_2  and  C_3
REMARK    3  A    between atoms: C_6  and  N_7
REMARK    4  A    between atoms: C_10  and  C_11
REMARK    5  A    between atoms: C_10  and  C_12
REMARK    6  A    between atoms: N_13  and  O_14
REMARK                            x       y       z     vdW  Elec       q    Type
REMARK                         _______ _______ _______ _____ _____    ______ ____
ROOT
ATOM      1  C   UNL     1       2.144   2.971  21.893  0.00  0.00    +0.000 C 
ATOM      2  C   UNL     1       2.388   3.565  20.503  0.00  0.00    +0.000 C 
ATOM      3  C   UNL     1       1.642   4.913  20.393  0.00  0.00    +0.000 C 
ATOM      4  N   UNL     1       3.803   3.844  20.323  0.00  0.00    +0.000 N 
ATOM      5  C   UNL     1       4.110   3.664  18.986  0.00  0.00    +0.000 C 
ATOM      6  C   UNL     1       5.042   4.270  18.227  0.00  0.00    +0.000 C 
ATOM      7  C   UNL     1       3.059   2.684  18.402  0.00  0.00    +0.000 C 
ATOM      8  C   UNL     1       3.699   1.287  18.276  0.00  0.00    +0.000 C 
ATOM      9  C   UNL     1       2.508   3.108  17.026  0.00  0.00    +0.000 C 
ATOM     10  N   UNL     1       1.990   2.564  19.466  0.00  0.00    +0.000 NA
ATOM     11  H   UNL     1       4.198   4.671  20.771  0.00  0.00    +0.000 HD
ENDROOT
BRANCH   6  12
ATOM     12  N   UNL     1       5.924   5.281  18.755  0.00  0.00    +0.000 N 
ATOM     13  O   UNL     1       6.540   5.076  19.813  0.00  0.00    +0.000 OA
ATOM     14  O   UNL     1       5.967   6.335  18.112  0.00  0.00    +0.000 OA
ENDBRANCH   6  12
BRANCH  10  15
ATOM     15  O   UNL     1       0.686   2.898  18.925  0.00  0.00    +0.000 OA
ATOM     16  H   UNL     1       0.592   2.228  18.222  0.00  0.00    +0.000 HD
ENDBRANCH  10  15
TORSDOF 2
ENDMDL
MODEL 5
REMARK VINA RESULT:      -5.8      2.315      4.399
REMARK  Name = 
REMARK  6 active torsions:
REMARK  status: ('A' for Active; 'I' for Inactive)
REMARK    1  A    between atoms: C_1  and  C_2
REMARK    2  A    between atoms: C_2  and  C_3
REMARK    3  A    between atoms: C_6  and  N_7
REMARK    4  A    between atoms: C_10  and  C_11
REMARK    5  A    between atoms: C_10  and  C_12
REMARK    6  A    between atoms: N_13  and  O_14
REMARK                            x       y       z     vdW  Elec       q    Type
REMARK                         _______ _______ _______ _____ _____    ______ ____
ROOT
ATOM      1  C   UNL     1       8.090   6.620  18.970  0.00  0.00    +0.000 C 
ATOM      2  C   UNL     1       7.214   5.580  18.267  0.00  0.00    +0.000 C 
ATOM      3  C   UNL     1       8.082   4.357  17.896  0.00  0.00    +0.000 C 
ATOM      4  N   UNL     1       6.179   5.108  19.173  0.00  0.00    +0.000 N 
ATOM      5  C   UNL     1       5.057   4.805  18.423  0.00  0.00    +0.000 C 
ATOM      6  C   UNL     1       4.097   3.887  18.642  0.00  0.00    +0.000 C 
ATOM      7  C   UNL     1       5.135   5.643  17.121  0.00  0.00    +0.000 C 
ATOM      8  C   UNL     1       4.177   6.845  17.246  0.00  0.00    +0.000 C 
ATOM      9  C   UNL     1       4.781   4.851  15.846  0.00  0.00    +0.000 C 
ATOM     10  N   UNL     1       6.534   6.220  17.100  0.00  0.00    +0.000 NA
ATOM     11  H   UNL     1       6.434   4.439  19.899  0.00  0.00    +0.000 HD
ENDROOT
BRANCH   6  12
ATOM     12  N   UNL     1       4.112   3.019  19.793  0.00  0.00    +0.000 N 
ATOM     13  O   UNL     1       5.138   2.379  20.074  0.00  0.00    +0.000 OA
ATOM     14  O   UNL     1       3.045   2.939  20.410  0.00  0.00    +0.000 OA
ENDBRANCH   6  12
BRANCH  10  15
ATOM     15  O   UNL     1       7.217   5.866  15.870  0.00  0.00    +0.000 OA
ATOM     16  H   UNL     1       6.589   6.194  15.199  0.00  0.00    +0.000 HD
ENDBRANCH  10  15
TORSDOF 2
ENDMDL
MODEL 6
REMARK VINA RESULT:      -5.8      3.253      4.526
REMARK  Name = 
REMARK  6 active torsions:
REMARK  status: ('A' for Active; 'I' for Inactive)
REMARK    1  A    between atoms: C_1  and  C_2
REMARK    2  A    between atoms: C_2  and  C_3
REMARK    3  A    between atoms: C_6  and  N_7
REMARK    4  A    between atoms: C_10  and  C_11
REMARK    5  A    between atoms: C_10  and  C_12
REMARK    6  A    between atoms: N_13  and  O_14
REMARK                            x       y       z     vdW  Elec       q    Type
REMARK                         _______ _______ _______ _____ _____    ______ ____
ROOT
ATOM      1  C   UNL     1       3.294   5.970  17.901  0.00  0.00    +0.000 C 
ATOM      2  C   UNL     1       4.526   5.133  17.548  0.00  0.00    +0.000 C 
ATOM      3  C   UNL     1       4.166   3.634  17.654  0.00  0.00    +0.000 C 
ATOM      4  N   UNL     1       4.918   5.381  16.171  0.00  0.00    +0.000 N 
ATOM      5  C   UNL     1       6.294   5.260  16.087  0.00  0.00    +0.000 C 
ATOM      6  C   UNL     1       7.062   4.865  15.055  0.00  0.00    +0.000 C 
ATOM      7  C   UNL     1       6.866   5.538  17.501  0.00  0.00    +0.000 C 
ATOM      8  C   UNL     1       7.441   6.968  17.532  0.00  0.00    +0.000 C 
ATOM      9  C   UNL     1       7.965   4.547  17.935  0.00  0.00    +0.000 C 
ATOM     10  N   UNL     1       5.666   5.546  18.423  0.00  0.00    +0.000 NA
ATOM     11  H   UNL     1       4.378   4.945  15.424  0.00  0.00    +0.000 HD
ENDROOT
BRANCH   6  12
ATOM     12  N   UNL     1       6.503   4.479  13.784  0.00  0.00    +0.000 N 
ATOM     13  O   UNL     1       5.349   4.022  13.726  0.00  0.00    +0.000 OA
ATOM     14  O   UNL     1       7.260   4.593  12.815  0.00  0.00    +0.000 OA
ENDBRANCH   6  12
BRANCH  10  15
ATOM     15  O   UNL     1       5.840   4.591  19.501  0.00  0.00    +0.000 OA
ATOM     16  H   UNL     1       6.309   3.868  19.044  0.00  0.00    +0.000 HD
ENDBRANCH  10  15
TORSDOF 2
ENDMDL
MODEL 7
REMARK VINA RESULT:      -5.8      1.612      3.000
REMARK  Name = 
REMARK  6 active torsions:
REMARK  status: ('A' for Active; 'I' for Inactive)
REMARK    1  A    between atoms: C_1  and  C_2
REMARK    2  A    between atoms: C_2  and  C_3
REMARK    3  A    between atoms: C_6  and  N_7
REMARK    4  A    between atoms: C_10  and  C_11
REMARK    5  A    between atoms: C_10  and  C_12
REMARK    6  A    between atoms: N_13  and  O_14
REMARK                            x       y       z     vdW  Elec       q    Type
REMARK                         _______ _______ _______ _____ _____    ______ ____
ROOT
ATOM      1  C   UNL     1       2.036   1.832  18.786  0.00  0.00    +0.000 C 
ATOM      2  C   UNL     1       2.581   3.057  19.524  0.00  0.00    +0.000 C 
ATOM      3  C   UNL     1       2.855   2.679  20.997  0.00  0.00    +0.000 C 
ATOM      4  N   UNL     1       3.851   3.463  18.945  0.00  0.00    +0.000 N 
ATOM      5  C   UNL     1       3.955   4.838  19.059  0.00  0.00    +0.000 C 
ATOM      6  C   UNL     1       5.050   5.610  19.193  0.00  0.00    +0.000 C 
ATOM      7  C   UNL     1       2.514   5.401  19.150  0.00  0.00    +0.000 C 
ATOM      8  C   UNL     1       2.124   5.993  17.781  0.00  0.00    +0.000 C 
ATOM      9  C   UNL     1       2.336   6.485  20.233  0.00  0.00    +0.000 C 
ATOM     10  N   UNL     1       1.625   4.195  19.357  0.00  0.00    +0.000 NA
ATOM     11  H   UNL     1       4.686   2.924  19.174  0.00  0.00    +0.000 HD
ENDROOT
BRANCH   6  12
ATOM     12  N   UNL     1       6.380   5.056  19.242  0.00  0.00    +0.000 N 
ATOM     13  O   UNL     1       7.190   5.463  20.091  0.00  0.00    +0.000 OA
ATOM     14  O   UNL     1       6.637   4.218  18.372  0.00  0.00    +0.000 OA
ENDBRANCH   6  12
BRANCH  10  15
ATOM     15  O   UNL     1       0.819   4.349  20.554  0.00  0.00    +0.000 OA
ATOM     16  H   UNL     1       0.548   3.427  20.723  0.00  0.00    +0.000 HD
ENDBRANCH  10  15
TORSDOF 2
ENDMDL
MODEL 8
REMARK VINA RESULT:      -5.7      1.559      3.009
REMARK  Name = 
REMARK  6 active torsions:
REMARK  status: ('A' for Active; 'I' for Inactive)
REMARK    1  A    between atoms: C_1  and  C_2
REMARK    2  A    between atoms: C_2  and  C_3
REMARK    3  A    between atoms: C_6  and  N_7
REMARK    4  A    between atoms: C_10  and  C_11
REMARK    5  A    between atoms: C_10  and  C_12
REMARK    6  A    between atoms: N_13  and  O_14
REMARK                            x       y       z     vdW  Elec       q    Type
REMARK                         _______ _______ _______ _____ _____    ______ ____
ROOT
ATOM      1  C   UNL     1       3.637   1.249  18.299  0.00  0.00    +0.000 C 
ATOM      2  C   UNL     1       3.891   2.475  19.181  0.00  0.00    +0.000 C 
ATOM      3  C   UNL     1       4.288   2.004  20.597  0.00  0.00    +0.000 C 
ATOM      4  N   UNL     1       5.009   3.241  18.657  0.00  0.00    +0.000 N 
ATOM      5  C   UNL     1       4.783   4.577  18.936  0.00  0.00    +0.000 C 
ATOM      6  C   UNL     1       5.663   5.570  19.164  0.00  0.00    +0.000 C 
ATOM      7  C   UNL     1       3.251   4.760  19.092  0.00  0.00    +0.000 C 
ATOM      8  C   UNL     1       2.693   5.397  17.803  0.00  0.00    +0.000 C 
ATOM      9  C   UNL     1       2.848   5.634  20.297  0.00  0.00    +0.000 C 
ATOM     10  N   UNL     1       2.685   3.359  19.150  0.00  0.00    +0.000 NA
ATOM     11  H   UNL     1       5.955   2.898  18.821  0.00  0.00    +0.000 HD
ENDROOT
BRANCH   6  12
ATOM     12  N   UNL     1       7.088   5.353  19.149  0.00  0.00    +0.000 N 
ATOM     13  O   UNL     1       7.657   5.044  18.089  0.00  0.00    +0.000 OA
ATOM     14  O   UNL     1       7.651   5.449  20.244  0.00  0.00    +0.000 OA
ENDBRANCH   6  12
BRANCH  10  15
ATOM     15  O   UNL     1       1.899   3.171  20.355  0.00  0.00    +0.000 OA
ATOM     16  H   UNL     1       1.144   2.655  20.014  0.00  0.00    +0.000 HD
ENDBRANCH  10  15
TORSDOF 2
ENDMDL
MODEL 9
REMARK VINA RESULT:      -5.7      2.490      4.073
REMARK  Name = 
REMARK  6 active torsions:
REMARK  status: ('A' for Active; 'I' for Inactive)
REMARK    1  A    between atoms: C_1  and  C_2
REMARK    2  A    between atoms: C_2  and  C_3
REMARK    3  A    between atoms: C_6  and  N_7
REMARK    4  A    between atoms: C_10  and  C_11
REMARK    5  A    between atoms: C_10  and  C_12
REMARK    6  A    between atoms: N_13  and  O_14
REMARK                            x       y       z     vdW  Elec       q    Type
REMARK                         _______ _______ _______ _____ _____    ______ ____
ROOT
ATOM      1  C   UNL     1       4.783   4.018  16.877  0.00  0.00    +0.000 C 
ATOM      2  C   UNL     1       4.394   4.195  18.347  0.00  0.00    +0.000 C 
ATOM      3  C   UNL     1       5.617   4.717  19.133  0.00  0.00    +0.000 C 
ATOM      4  N   UNL     1       3.349   5.199  18.468  0.00  0.00    +0.000 N 
ATOM      5  C   UNL     1       2.543   4.854  19.538  0.00  0.00    +0.000 C 
ATOM      6  C   UNL     1       1.839   5.640  20.374  0.00  0.00    +0.000 C 
ATOM      7  C   UNL     1       2.680   3.323  19.740  0.00  0.00    +0.000 C 
ATOM      8  C   UNL     1       1.432   2.632  19.155  0.00  0.00    +0.000 C 
ATOM      9  C   UNL     1       2.840   2.900  21.215  0.00  0.00    +0.000 C 
ATOM     10  N   UNL     1       3.842   2.906  18.867  0.00  0.00    +0.000 NA
ATOM     11  H   UNL     1       3.607   6.183  18.393  0.00  0.00    +0.000 HD
ENDROOT
BRANCH   6  12
ATOM     12  N   UNL     1       1.831   7.076  20.255  0.00  0.00    +0.000 N 
ATOM     13  O   UNL     1       2.321   7.619  19.251  0.00  0.00    +0.000 OA
ATOM     14  O   UNL     1       1.361   7.685  21.221  0.00  0.00    +0.000 OA
ENDBRANCH   6  12
BRANCH  10  15
ATOM     15  O   UNL     1       4.849   2.212  19.647  0.00  0.00    +0.000 OA
ATOM     16  H   UNL     1       4.621   2.497  20.553  0.00  0.00    +0.000 HD
ENDBRANCH  10  15
TORSDOF 2
ENDMDL
