MODEL 1
REMARK VINA RESULT:      -8.4      0.000      0.000
REMARK  Name = 
REMARK  6 active torsions:
REMARK  status: ('A' for Active; 'I' for Inactive)
REMARK    1  A    between atoms: C_1  and  C_2
REMARK    2  A    between atoms: C_6  and  C_7
REMARK    3  A    between atoms: N_9  and  C_10
REMARK    4  A    between atoms: C_13  and  N_14
REMARK    5  A    between atoms: C_16  and  C_17
REMARK    6  A    between atoms: C_22  and  C_23
REMARK                            x       y       z     vdW  Elec       q    Type
REMARK                         _______ _______ _______ _____ _____    ______ ____
ROOT
ATOM      1  C   UNL     1       0.979   9.371  19.510  0.00  0.00    +0.000 A 
ATOM      2  C   UNL     1       1.470   9.315  18.212  0.00  0.00    +0.000 A 
ATOM      3  C   UNL     1       2.239   8.221  17.784  0.00  0.00    +0.000 A 
ATOM      4  C   UNL     1       2.516   7.143  18.629  0.00  0.00    +0.000 A 
ATOM      5  C   UNL     1       2.107   7.257  19.960  0.00  0.00    +0.000 A 
ATOM      6  F   UNL     1       2.422   6.332  20.879  0.00  0.00    +0.000 F 
ATOM      7  C   UNL     1       1.367   8.367  20.404  0.00  0.00    +0.000 A 
ENDROOT
BRANCH   4   8
ATOM      8  N   UNL     1       3.095   5.924  18.138  0.00  0.00    +0.000 N 
ATOM      9  N   UNL     1       4.351   5.959  17.605  0.00  0.00    +0.000 NA
ATOM     10  C   UNL     1       4.684   4.682  17.405  0.00  0.00    +0.000 A 
ATOM     11  C   UNL     1       3.639   3.801  17.748  0.00  0.00    +0.000 A 
ATOM     12 CL   UNL     1       3.656   2.122  17.471  0.00  0.00    +0.000 Cl
ATOM     13  C   UNL     1       2.649   4.604  18.278  0.00  0.00    +0.000 A 
BRANCH  10  14
ATOM     14  C   UNL     1       6.042   4.222  16.861  0.00  0.00    +0.000 C 
ATOM     15  C   UNL     1       6.960   5.213  16.178  0.00  0.00    +0.000 C 
ATOM     16  C   UNL     1       7.310   4.711  17.536  0.00  0.00    +0.000 C 
ENDBRANCH  10  14
BRANCH  13  17
ATOM     17  C   UNL     1       1.290   4.133  18.805  0.00  0.00    +0.000 C 
ATOM     18  C   UNL     1       0.912   2.687  18.993  0.00  0.00    +0.000 C 
ATOM     19  C   UNL     1       1.238   3.524  20.188  0.00  0.00    +0.000 C 
ENDBRANCH  13  17
ENDBRANCH   4   8
BRANCH   1  22
ATOM     20  C   UNL     1       0.389  11.502  20.720  0.00  0.00    +0.000 C 
ATOM     21  O   UNL     1       1.511  11.766  21.135  0.00  0.00    +0.000 OA
ATOM     22  N   UNL     1       0.088  10.368  19.966  0.00  0.00    +0.000 N 
ATOM     23  H   UNL     1      -0.846  10.330  19.576  0.00  0.00    +0.000 HD
BRANCH  20  29
ATOM     24  C   UNL     1      -1.786  11.497  23.173  0.00  0.00    +0.000 C 
ATOM     25  C   UNL     1      -1.671  12.408  22.005  0.00  0.00    +0.000 A 
ATOM     26  N   UNL     1      -2.617  13.428  21.910  0.00  0.00    +0.000 NA
ATOM     27  N   UNL     1      -2.431  14.184  20.844  0.00  0.00    +0.000 NA
ATOM     28  S   UNL     1      -1.133  13.695  19.927  0.00  0.00    +0.000 S 
ATOM     29  C   UNL     1      -0.733  12.392  20.973  0.00  0.00    +0.000 A 
ENDBRANCH  20  29
ENDBRANCH   1  22
TORSDOF 5
ENDMDL
MODEL 2
REMARK VINA RESULT:      -8.3      1.427      1.706
REMARK  Name = 
REMARK  6 active torsions:
REMARK  status: ('A' for Active; 'I' for Inactive)
REMARK    1  A    between atoms: C_1  and  C_2
REMARK    2  A    between atoms: C_6  and  C_7
REMARK    3  A    between atoms: N_9  and  C_10
REMARK    4  A    between atoms: C_13  and  N_14
REMARK    5  A    between atoms: C_16  and  C_17
REMARK    6  A    between atoms: C_22  and  C_23
REMARK                            x       y       z     vdW  Elec       q    Type
REMARK                         _______ _______ _______ _____ _____    ______ ____
ROOT
ATOM      1  C   UNL     1       1.218   9.336  20.480  0.00  0.00    +0.000 A 
ATOM      2  C   UNL     1       1.282   8.119  21.147  0.00  0.00    +0.000 A 
ATOM      3  C   UNL     1       1.794   6.979  20.509  0.00  0.00    +0.000 A 
ATOM      4  C   UNL     1       2.280   7.028  19.199  0.00  0.00    +0.000 A 
ATOM      5  C   UNL     1       2.116   8.228  18.504  0.00  0.00    +0.000 A 
ATOM      6  F   UNL     1       2.443   8.345  17.209  0.00  0.00    +0.000 F 
ATOM      7  C   UNL     1       1.571   9.364  19.127  0.00  0.00    +0.000 A 
ENDROOT
BRANCH   4   8
ATOM      8  N   UNL     1       3.015   5.936  18.622  0.00  0.00    +0.000 N 
ATOM      9  N   UNL     1       4.334   6.113  18.324  0.00  0.00    +0.000 NA
ATOM     10  C   UNL     1       4.783   4.905  17.978  0.00  0.00    +0.000 A 
ATOM     11  C   UNL     1       3.759   3.936  17.990  0.00  0.00    +0.000 A 
ATOM     12 CL   UNL     1       3.936   2.332  17.450  0.00  0.00    +0.000 Cl
ATOM     13  C   UNL     1       2.644   4.594  18.467  0.00  0.00    +0.000 A 
BRANCH  10  14
ATOM     14  C   UNL     1       6.239   4.601  17.606  0.00  0.00    +0.000 C 
ATOM     15  C   UNL     1       6.624   4.398  16.157  0.00  0.00    +0.000 C 
ATOM     16  C   UNL     1       7.041   5.647  16.854  0.00  0.00    +0.000 C 
ENDBRANCH  10  14
BRANCH  13  17
ATOM     17  C   UNL     1       1.254   3.985  18.671  0.00  0.00    +0.000 C 
ATOM     18  C   UNL     1       1.002   2.520  18.917  0.00  0.00    +0.000 C 
ATOM     19  C   UNL     1       0.893   3.487  20.052  0.00  0.00    +0.000 C 
ENDBRANCH  13  17
ENDBRANCH   4   8
BRANCH   1  22
ATOM     20  C   UNL     1      -0.329  11.278  20.915  0.00  0.00    +0.000 C 
ATOM     21  O   UNL     1      -1.207  10.964  20.122  0.00  0.00    +0.000 OA
ATOM     22  N   UNL     1       0.846  10.549  21.103  0.00  0.00    +0.000 N 
ATOM     23  H   UNL     1       1.430  10.840  21.877  0.00  0.00    +0.000 HD
BRANCH  20  29
ATOM     24  C   UNL     1      -2.453  11.891  23.335  0.00  0.00    +0.000 C 
ATOM     25  C   UNL     1      -1.361  12.738  22.791  0.00  0.00    +0.000 A 
ATOM     26  N   UNL     1      -1.186  13.991  23.379  0.00  0.00    +0.000 NA
ATOM     27  N   UNL     1      -0.193  14.665  22.832  0.00  0.00    +0.000 NA
ATOM     28  S   UNL     1       0.550  13.831  21.600  0.00  0.00    +0.000 S 
ATOM     29  C   UNL     1      -0.466  12.455  21.760  0.00  0.00    +0.000 A 
ENDBRANCH  20  29
ENDBRANCH   1  22
TORSDOF 5
ENDMDL
MODEL 3
REMARK VINA RESULT:      -8.2      0.828      1.196
REMARK  Name = 
REMARK  6 active torsions:
REMARK  status: ('A' for Active; 'I' for Inactive)
REMARK    1  A    between atoms: C_1  and  C_2
REMARK    2  A    between atoms: C_6  and  C_7
REMARK    3  A    between atoms: N_9  and  C_10
REMARK    4  A    between atoms: C_13  and  N_14
REMARK    5  A    between atoms: C_16  and  C_17
REMARK    6  A    between atoms: C_22  and  C_23
REMARK                            x       y       z     vdW  Elec       q    Type
REMARK                         _______ _______ _______ _____ _____    ______ ____
ROOT
ATOM      1  C   UNL     1       0.952   9.299  19.716  0.00  0.00    +0.000 A 
ATOM      2  C   UNL     1       1.378   9.309  18.394  0.00  0.00    +0.000 A 
ATOM      3  C   UNL     1       2.150   8.254  17.881  0.00  0.00    +0.000 A 
ATOM      4  C   UNL     1       2.495   7.150  18.666  0.00  0.00    +0.000 A 
ATOM      5  C   UNL     1       2.151   7.199  20.019  0.00  0.00    +0.000 A 
ATOM      6  F   UNL     1       2.535   6.245  20.881  0.00  0.00    +0.000 F 
ATOM      7  C   UNL     1       1.409   8.269  20.545  0.00  0.00    +0.000 A 
ENDROOT
BRANCH   4   8
ATOM      8  N   UNL     1       3.078   5.967  18.095  0.00  0.00    +0.000 N 
ATOM      9  N   UNL     1       4.322   6.047  17.540  0.00  0.00    +0.000 NA
ATOM     10  C   UNL     1       4.665   4.788  17.262  0.00  0.00    +0.000 A 
ATOM     11  C   UNL     1       3.636   3.876  17.575  0.00  0.00    +0.000 A 
ATOM     12 CL   UNL     1       3.666   2.216  17.204  0.00  0.00    +0.000 Cl
ATOM     13  C   UNL     1       2.649   4.636  18.169  0.00  0.00    +0.000 A 
BRANCH  10  14
ATOM     14  C   UNL     1       6.016   4.376  16.666  0.00  0.00    +0.000 C 
ATOM     15  C   UNL     1       7.020   5.433  16.261  0.00  0.00    +0.000 C 
ATOM     16  C   UNL     1       7.279   4.609  17.474  0.00  0.00    +0.000 C 
ENDBRANCH  10  14
BRANCH  13  17
ATOM     17  C   UNL     1       1.307   4.120  18.696  0.00  0.00    +0.000 C 
ATOM     18  C   UNL     1       0.985   2.663  18.904  0.00  0.00    +0.000 C 
ATOM     19  C   UNL     1       1.270   3.531  20.088  0.00  0.00    +0.000 C 
ENDBRANCH  13  17
ENDBRANCH   4   8
BRANCH   1  22
ATOM     20  C   UNL     1       0.380  11.408  20.971  0.00  0.00    +0.000 C 
ATOM     21  O   UNL     1       1.523  11.734  21.265  0.00  0.00    +0.000 OA
ATOM     22  N   UNL     1       0.061  10.253  20.256  0.00  0.00    +0.000 N 
ATOM     23  H   UNL     1      -0.905  10.163  19.965  0.00  0.00    +0.000 HD
BRANCH  20  29
ATOM     24  C   UNL     1      -0.782  14.118  19.538  0.00  0.00    +0.000 C 
ATOM     25  C   UNL     1      -1.266  13.397  20.743  0.00  0.00    +0.000 A 
ATOM     26  N   UNL     1      -2.385  13.928  21.384  0.00  0.00    +0.000 NA
ATOM     27  N   UNL     1      -2.740  13.219  22.439  0.00  0.00    +0.000 NA
ATOM     28  S   UNL     1      -1.748  11.909  22.697  0.00  0.00    +0.000 S 
ATOM     29  C   UNL     1      -0.756  12.242  21.334  0.00  0.00    +0.000 A 
ENDBRANCH  20  29
ENDBRANCH   1  22
TORSDOF 5
ENDMDL
MODEL 4
REMARK VINA RESULT:      -8.2      1.292      1.385
REMARK  Name = 
REMARK  6 active torsions:
REMARK  status: ('A' for Active; 'I' for Inactive)
REMARK    1  A    between atoms: C_1  and  C_2
REMARK    2  A    between atoms: C_6  and  C_7
REMARK    3  A    between atoms: N_9  and  C_10
REMARK    4  A    between atoms: C_13  and  N_14
REMARK    5  A    between atoms: C_16  and  C_17
REMARK    6  A    between atoms: C_22  and  C_23
REMARK                            x       y       z     vdW  Elec       q    Type
REMARK                         _______ _______ _______ _____ _____    ______ ____
ROOT
ATOM      1  C   UNL     1       0.336   9.700  19.514  0.00  0.00    +0.000 A 
ATOM      2  C   UNL     1       0.802   9.824  18.212  0.00  0.00    +0.000 A 
ATOM      3  C   UNL     1       1.805   8.970  17.727  0.00  0.00    +0.000 A 
ATOM      4  C   UNL     1       2.350   7.954  18.518  0.00  0.00    +0.000 A 
ATOM      5  C   UNL     1       1.949   7.905  19.855  0.00  0.00    +0.000 A 
ATOM      6  F   UNL     1       2.495   7.043  20.726  0.00  0.00    +0.000 F 
ATOM      7  C   UNL     1       0.970   8.781  20.356  0.00  0.00    +0.000 A 
ENDROOT
BRANCH   4   8
ATOM      8  N   UNL     1       3.198   6.935  17.965  0.00  0.00    +0.000 N 
ATOM      9  N   UNL     1       4.493   7.246  17.665  0.00  0.00    +0.000 NA
ATOM     10  C   UNL     1       5.069   6.086  17.345  0.00  0.00    +0.000 A 
ATOM     11  C   UNL     1       4.155   5.014  17.375  0.00  0.00    +0.000 A 
ATOM     12 CL   UNL     1       4.504   3.427  16.869  0.00  0.00    +0.000 Cl
ATOM     13  C   UNL     1       2.973   5.559  17.836  0.00  0.00    +0.000 A 
BRANCH  10  14
ATOM     14  C   UNL     1       6.550   5.932  16.982  0.00  0.00    +0.000 C 
ATOM     15  C   UNL     1       7.563   6.939  17.485  0.00  0.00    +0.000 C 
ATOM     16  C   UNL     1       7.542   5.570  18.073  0.00  0.00    +0.000 C 
ENDBRANCH  10  14
BRANCH  13  17
ATOM     17  C   UNL     1       1.655   4.809  18.050  0.00  0.00    +0.000 C 
ATOM     18  C   UNL     1       1.552   3.316  18.230  0.00  0.00    +0.000 C 
ATOM     19  C   UNL     1       1.391   4.213  19.414  0.00  0.00    +0.000 C 
ENDBRANCH  13  17
ENDBRANCH   4   8
BRANCH   1  22
ATOM     20  C   UNL     1      -0.838  11.802  20.260  0.00  0.00    +0.000 C 
ATOM     21  O   UNL     1       0.094  12.576  20.086  0.00  0.00    +0.000 OA
ATOM     22  N   UNL     1      -0.763  10.430  20.023  0.00  0.00    +0.000 N 
ATOM     23  H   UNL     1      -1.636   9.920  20.081  0.00  0.00    +0.000 HD
BRANCH  20  29
ATOM     24  C   UNL     1      -1.772  12.842  23.226  0.00  0.00    +0.000 C 
ATOM     25  C   UNL     1      -2.556  12.723  21.969  0.00  0.00    +0.000 A 
ATOM     26  N   UNL     1      -3.895  13.106  22.027  0.00  0.00    +0.000 NA
ATOM     27  N   UNL     1      -4.504  12.968  20.864  0.00  0.00    +0.000 NA
ATOM     28  S   UNL     1      -3.502  12.373  19.679  0.00  0.00    +0.000 S 
ATOM     29  C   UNL     1      -2.135  12.279  20.716  0.00  0.00    +0.000 A 
ENDBRANCH  20  29
ENDBRANCH   1  22
TORSDOF 5
ENDMDL
MODEL 5
REMARK VINA RESULT:      -8.1      1.592      2.015
REMARK  Name = 
REMARK  6 active torsions:
REMARK  status: ('A' for Active; 'I' for Inactive)
REMARK    1  A    between atoms: C_1  and  C_2
REMARK    2  A    between atoms: C_6  and  C_7
REMARK    3  A    between atoms: N_9  and  C_10
REMARK    4  A    between atoms: C_13  and  N_14
REMARK    5  A    between atoms: C_16  and  C_17
REMARK    6  A    between atoms: C_22  and  C_23
REMARK                            x       y       z     vdW  Elec       q    Type
REMARK                         _______ _______ _______ _____ _____    ______ ____
ROOT
ATOM      1  C   UNL     1       1.175   9.217  20.576  0.00  0.00    +0.000 A 
ATOM      2  C   UNL     1       1.248   7.992  21.227  0.00  0.00    +0.000 A 
ATOM      3  C   UNL     1       1.790   6.870  20.581  0.00  0.00    +0.000 A 
ATOM      4  C   UNL     1       2.298   6.946  19.281  0.00  0.00    +0.000 A 
ATOM      5  C   UNL     1       2.126   8.153  18.600  0.00  0.00    +0.000 A 
ATOM      6  F   UNL     1       2.474   8.295  17.313  0.00  0.00    +0.000 F 
ATOM      7  C   UNL     1       1.551   9.271  19.230  0.00  0.00    +0.000 A 
ENDROOT
BRANCH   4   8
ATOM      8  N   UNL     1       3.060   5.875  18.702  0.00  0.00    +0.000 N 
ATOM      9  N   UNL     1       4.393   6.059  18.479  0.00  0.00    +0.000 NA
ATOM     10  C   UNL     1       4.858   4.864  18.111  0.00  0.00    +0.000 A 
ATOM     11  C   UNL     1       3.834   3.897  18.033  0.00  0.00    +0.000 A 
ATOM     12 CL   UNL     1       4.037   2.315  17.443  0.00  0.00    +0.000 Cl
ATOM     13  C   UNL     1       2.696   4.541  18.476  0.00  0.00    +0.000 A 
BRANCH  10  14
ATOM     14  C   UNL     1       6.331   4.570  17.803  0.00  0.00    +0.000 C 
ATOM     15  C   UNL     1       6.804   4.488  16.368  0.00  0.00    +0.000 C 
ATOM     16  C   UNL     1       7.190   5.664  17.197  0.00  0.00    +0.000 C 
ENDBRANCH  10  14
BRANCH  13  17
ATOM     17  C   UNL     1       1.297   3.928  18.585  0.00  0.00    +0.000 C 
ATOM     18  C   UNL     1       1.032   2.464  18.823  0.00  0.00    +0.000 C 
ATOM     19  C   UNL     1       0.841   3.437  19.941  0.00  0.00    +0.000 C 
ENDBRANCH  13  17
ENDBRANCH   4   8
BRANCH   1  22
ATOM     20  C   UNL     1      -0.358  11.186  20.936  0.00  0.00    +0.000 C 
ATOM     21  O   UNL     1      -1.158  10.930  20.045  0.00  0.00    +0.000 OA
ATOM     22  N   UNL     1       0.772  10.415  21.209  0.00  0.00    +0.000 N 
ATOM     23  H   UNL     1       1.282  10.657  22.050  0.00  0.00    +0.000 HD
BRANCH  20  29
ATOM     24  C   UNL     1       1.235  14.049  21.032  0.00  0.00    +0.000 C 
ATOM     25  C   UNL     1       0.114  13.555  21.873  0.00  0.00    +0.000 A 
ATOM     26  N   UNL     1      -0.355  14.419  22.862  0.00  0.00    +0.000 NA
ATOM     27  N   UNL     1      -1.350  13.894  23.552  0.00  0.00    +0.000 NA
ATOM     28  S   UNL     1      -1.744  12.359  23.047  0.00  0.00    +0.000 S 
ATOM     29  C   UNL     1      -0.550  12.331  21.812  0.00  0.00    +0.000 A 
ENDBRANCH  20  29
ENDBRANCH   1  22
TORSDOF 5
ENDMDL
MODEL 6
REMARK VINA RESULT:      -8.1      1.569      1.763
REMARK  Name = 
REMARK  6 active torsions:
REMARK  status: ('A' for Active; 'I' for Inactive)
REMARK    1  A    between atoms: C_1  and  C_2
REMARK    2  A    between atoms: C_6  and  C_7
REMARK    3  A    between atoms: N_9  and  C_10
REMARK    4  A    between atoms: C_13  and  N_14
REMARK    5  A    between atoms: C_16  and  C_17
REMARK    6  A    between atoms: C_22  and  C_23
REMARK                            x       y       z     vdW  Elec       q    Type
REMARK                         _______ _______ _______ _____ _____    ______ ____
ROOT
ATOM      1  C   UNL     1       0.310   9.741  19.438  0.00  0.00    +0.000 A 
ATOM      2  C   UNL     1       0.811   9.852  18.147  0.00  0.00    +0.000 A 
ATOM      3  C   UNL     1       1.824   8.991  17.696  0.00  0.00    +0.000 A 
ATOM      4  C   UNL     1       2.344   7.980  18.510  0.00  0.00    +0.000 A 
ATOM      5  C   UNL     1       1.908   7.945  19.837  0.00  0.00    +0.000 A 
ATOM      6  F   UNL     1       2.429   7.089  20.729  0.00  0.00    +0.000 F 
ATOM      7  C   UNL     1       0.920   8.828  20.304  0.00  0.00    +0.000 A 
ENDROOT
BRANCH   4   8
ATOM      8  N   UNL     1       3.203   6.954  17.988  0.00  0.00    +0.000 N 
ATOM      9  N   UNL     1       4.505   7.261  17.714  0.00  0.00    +0.000 NA
ATOM     10  C   UNL     1       5.086   6.096  17.421  0.00  0.00    +0.000 A 
ATOM     11  C   UNL     1       4.170   5.025  17.444  0.00  0.00    +0.000 A 
ATOM     12 CL   UNL     1       4.529   3.432  16.965  0.00  0.00    +0.000 Cl
ATOM     13  C   UNL     1       2.980   5.577  17.872  0.00  0.00    +0.000 A 
BRANCH  10  14
ATOM     14  C   UNL     1       6.575   5.936  17.093  0.00  0.00    +0.000 C 
ATOM     15  C   UNL     1       7.557   7.023  17.475  0.00  0.00    +0.000 C 
ATOM     16  C   UNL     1       7.563   5.738  18.228  0.00  0.00    +0.000 C 
ENDBRANCH  10  14
BRANCH  13  17
ATOM     17  C   UNL     1       1.657   4.830  18.066  0.00  0.00    +0.000 C 
ATOM     18  C   UNL     1       1.546   3.337  18.238  0.00  0.00    +0.000 C 
ATOM     19  C   UNL     1       1.374   4.230  19.424  0.00  0.00    +0.000 C 
ENDBRANCH  13  17
ENDBRANCH   4   8
BRANCH   1  22
ATOM     20  C   UNL     1      -0.867  11.849  20.162  0.00  0.00    +0.000 C 
ATOM     21  O   UNL     1       0.081  12.613  20.036  0.00  0.00    +0.000 OA
ATOM     22  N   UNL     1      -0.799  10.479  19.911  0.00  0.00    +0.000 N 
ATOM     23  H   UNL     1      -1.680   9.980  19.928  0.00  0.00    +0.000 HD
BRANCH  20  29
ATOM     24  C   UNL     1      -3.727  11.791  18.560  0.00  0.00    +0.000 C 
ATOM     25  C   UNL     1      -3.402  12.326  19.908  0.00  0.00    +0.000 A 
ATOM     26  N   UNL     1      -4.453  12.895  20.627  0.00  0.00    +0.000 NA
ATOM     27  N   UNL     1      -4.067  13.337  21.809  0.00  0.00    +0.000 NA
ATOM     28  S   UNL     1      -2.446  13.095  22.090  0.00  0.00    +0.000 S 
ATOM     29  C   UNL     1      -2.175  12.337  20.571  0.00  0.00    +0.000 A 
ENDBRANCH  20  29
ENDBRANCH   1  22
TORSDOF 5
ENDMDL
MODEL 7
REMARK VINA RESULT:      -8.1      1.575      1.886
REMARK  Name = 
REMARK  6 active torsions:
REMARK  status: ('A' for Active; 'I' for Inactive)
REMARK    1  A    between atoms: C_1  and  C_2
REMARK    2  A    between atoms: C_6  and  C_7
REMARK    3  A    between atoms: N_9  and  C_10
REMARK    4  A    between atoms: C_13  and  N_14
REMARK    5  A    between atoms: C_16  and  C_17
REMARK    6  A    between atoms: C_22  and  C_23
REMARK                            x       y       z     vdW  Elec       q    Type
REMARK                         _______ _______ _______ _____ _____    ______ ____
ROOT
ATOM      1  C   UNL     1       0.763   9.684  20.249  0.00  0.00    +0.000 A 
ATOM      2  C   UNL     1       1.175   8.515  20.874  0.00  0.00    +0.000 A 
ATOM      3  C   UNL     1       1.915   7.550  20.172  0.00  0.00    +0.000 A 
ATOM      4  C   UNL     1       2.285   7.738  18.837  0.00  0.00    +0.000 A 
ATOM      5  C   UNL     1       1.778   8.866  18.189  0.00  0.00    +0.000 A 
ATOM      6  F   UNL     1       1.978   9.080  16.880  0.00  0.00    +0.000 F 
ATOM      7  C   UNL     1       1.007   9.818  18.878  0.00  0.00    +0.000 A 
ENDROOT
BRANCH   4   8
ATOM      8  N   UNL     1       3.231   6.876  18.184  0.00  0.00    +0.000 N 
ATOM      9  N   UNL     1       4.506   7.321  17.992  0.00  0.00    +0.000 NA
ATOM     10  C   UNL     1       5.183   6.265  17.537  0.00  0.00    +0.000 A 
ATOM     11  C   UNL     1       4.357   5.135  17.372  0.00  0.00    +0.000 A 
ATOM     12 CL   UNL     1       4.848   3.669  16.662  0.00  0.00    +0.000 Cl
ATOM     13  C   UNL     1       3.121   5.519  17.852  0.00  0.00    +0.000 A 
BRANCH  10  14
ATOM     14  C   UNL     1       6.684   6.275  17.224  0.00  0.00    +0.000 C 
ATOM     15  C   UNL     1       7.529   7.473  17.599  0.00  0.00    +0.000 C 
ATOM     16  C   UNL     1       7.676   6.207  18.370  0.00  0.00    +0.000 C 
ENDBRANCH  10  14
BRANCH  13  17
ATOM     17  C   UNL     1       1.860   4.651  17.897  0.00  0.00    +0.000 C 
ATOM     18  C   UNL     1       1.870   3.157  18.090  0.00  0.00    +0.000 C 
ATOM     19  C   UNL     1       1.464   4.044  19.223  0.00  0.00    +0.000 C 
ENDBRANCH  13  17
ENDBRANCH   4   8
BRANCH   1  22
ATOM     20  C   UNL     1       0.698  11.984  21.278  0.00  0.00    +0.000 C 
ATOM     21  O   UNL     1       1.865  12.288  21.064  0.00  0.00    +0.000 OA
ATOM     22  N   UNL     1       0.139  10.755  20.928  0.00  0.00    +0.000 N 
ATOM     23  H   UNL     1      -0.864  10.675  21.042  0.00  0.00    +0.000 HD
BRANCH  20  29
ATOM     24  C   UNL     1      -1.844  11.423  23.270  0.00  0.00    +0.000 C 
ATOM     25  C   UNL     1      -1.306  12.708  22.753  0.00  0.00    +0.000 A 
ATOM     26  N   UNL     1      -1.959  13.870  23.162  0.00  0.00    +0.000 NA
ATOM     27  N   UNL     1      -1.407  14.957  22.655  0.00  0.00    +0.000 NA
ATOM     28  S   UNL     1      -0.105  14.621  21.676  0.00  0.00    +0.000 S 
ATOM     29  C   UNL     1      -0.219  12.922  21.907  0.00  0.00    +0.000 A 
ENDBRANCH  20  29
ENDBRANCH   1  22
TORSDOF 5
ENDMDL
MODEL 8
REMARK VINA RESULT:      -8.0      1.814      2.217
REMARK  Name = 
REMARK  6 active torsions:
REMARK  status: ('A' for Active; 'I' for Inactive)
REMARK    1  A    between atoms: C_1  and  C_2
REMARK    2  A    between atoms: C_6  and  C_7
REMARK    3  A    between atoms: N_9  and  C_10
REMARK    4  A    between atoms: C_13  and  N_14
REMARK    5  A    between atoms: C_16  and  C_17
REMARK    6  A    between atoms: C_22  and  C_23
REMARK                            x       y       z     vdW  Elec       q    Type
REMARK                         _______ _______ _______ _____ _____    ______ ____
ROOT
ATOM      1  C   UNL     1       0.772   9.561  20.449  0.00  0.00    +0.000 A 
ATOM      2  C   UNL     1       1.229   8.377  21.013  0.00  0.00    +0.000 A 
ATOM      3  C   UNL     1       1.956   7.453  20.247  0.00  0.00    +0.000 A 
ATOM      4  C   UNL     1       2.268   7.696  18.906  0.00  0.00    +0.000 A 
ATOM      5  C   UNL     1       1.716   8.839  18.322  0.00  0.00    +0.000 A 
ATOM      6  F   UNL     1       1.861   9.104  17.015  0.00  0.00    +0.000 F 
ATOM      7  C   UNL     1       0.958   9.750  19.076  0.00  0.00    +0.000 A 
ENDROOT
BRANCH   4   8
ATOM      8  N   UNL     1       3.201   6.876  18.185  0.00  0.00    +0.000 N 
ATOM      9  N   UNL     1       4.458   7.353  17.953  0.00  0.00    +0.000 NA
ATOM     10  C   UNL     1       5.135   6.327  17.435  0.00  0.00    +0.000 A 
ATOM     11  C   UNL     1       4.323   5.187  17.266  0.00  0.00    +0.000 A 
ATOM     12 CL   UNL     1       4.811   3.756  16.486  0.00  0.00    +0.000 Cl
ATOM     13  C   UNL     1       3.102   5.530  17.811  0.00  0.00    +0.000 A 
BRANCH  10  14
ATOM     14  C   UNL     1       6.621   6.378  17.059  0.00  0.00    +0.000 C 
ATOM     15  C   UNL     1       7.512   7.456  17.636  0.00  0.00    +0.000 C 
ATOM     16  C   UNL     1       7.660   6.053  18.116  0.00  0.00    +0.000 C 
ENDBRANCH  10  14
BRANCH  13  17
ATOM     17  C   UNL     1       1.861   4.635  17.879  0.00  0.00    +0.000 C 
ATOM     18  C   UNL     1       1.904   3.147  18.114  0.00  0.00    +0.000 C 
ATOM     19  C   UNL     1       1.477   4.056  19.222  0.00  0.00    +0.000 C 
ENDBRANCH  13  17
ENDBRANCH   4   8
BRANCH   1  22
ATOM     20  C   UNL     1       0.601  11.908  21.353  0.00  0.00    +0.000 C 
ATOM     21  O   UNL     1       1.645  12.338  20.880  0.00  0.00    +0.000 OA
ATOM     22  N   UNL     1       0.159  10.595  21.192  0.00  0.00    +0.000 N 
ATOM     23  H   UNL     1      -0.779  10.399  21.521  0.00  0.00    +0.000 HD
BRANCH  20  29
ATOM     24  C   UNL     1       0.795  15.125  21.951  0.00  0.00    +0.000 C 
ATOM     25  C   UNL     1      -0.225  14.137  22.386  0.00  0.00    +0.000 A 
ATOM     26  N   UNL     1      -1.274  14.620  23.168  0.00  0.00    +0.000 NA
ATOM     27  N   UNL     1      -2.128  13.671  23.500  0.00  0.00    +0.000 NA
ATOM     28  S   UNL     1      -1.700  12.181  22.899  0.00  0.00    +0.000 S 
ATOM     29  C   UNL     1      -0.288  12.770  22.117  0.00  0.00    +0.000 A 
ENDBRANCH  20  29
ENDBRANCH   1  22
TORSDOF 5
ENDMDL
MODEL 9
REMARK VINA RESULT:      -8.0      1.038      1.110
REMARK  Name = 
REMARK  6 active torsions:
REMARK  status: ('A' for Active; 'I' for Inactive)
REMARK    1  A    between atoms: C_1  and  C_2
REMARK    2  A    between atoms: C_6  and  C_7
REMARK    3  A    between atoms: N_9  and  C_10
REMARK    4  A    between atoms: C_13  and  N_14
REMARK    5  A    between atoms: C_16  and  C_17
REMARK    6  A    between atoms: C_22  and  C_23
REMARK                            x       y       z     vdW  Elec       q    Type
REMARK                         _______ _______ _______ _____ _____    ______ ____
ROOT
ATOM      1  C   UNL     1       1.267   9.283  19.614  0.00  0.00    +0.000 A 
ATOM      2  C   UNL     1       1.662   9.253  18.283  0.00  0.00    +0.000 A 
ATOM      3  C   UNL     1       2.330   8.134  17.760  0.00  0.00    +0.000 A 
ATOM      4  C   UNL     1       2.598   7.007  18.543  0.00  0.00    +0.000 A 
ATOM      5  C   UNL     1       2.291   7.091  19.903  0.00  0.00    +0.000 A 
ATOM      6  F   UNL     1       2.612   6.111  20.761  0.00  0.00    +0.000 F 
ATOM      7  C   UNL     1       1.653   8.223  20.439  0.00  0.00    +0.000 A 
ENDROOT
BRANCH   4   8
ATOM      8  N   UNL     1       3.066   5.778  17.966  0.00  0.00    +0.000 N 
ATOM      9  N   UNL     1       4.280   5.761  17.342  0.00  0.00    +0.000 NA
ATOM     10  C   UNL     1       4.519   4.477  17.072  0.00  0.00    +0.000 A 
ATOM     11  C   UNL     1       3.450   3.644  17.460  0.00  0.00    +0.000 A 
ATOM     12 CL   UNL     1       3.345   1.980  17.122  0.00  0.00    +0.000 Cl
ATOM     13  C   UNL     1       2.551   4.481  18.091  0.00  0.00    +0.000 A 
BRANCH  10  14
ATOM     14  C   UNL     1       5.804   3.961  16.413  0.00  0.00    +0.000 C 
ATOM     15  C   UNL     1       5.894   3.861  14.905  0.00  0.00    +0.000 C 
ATOM     16  C   UNL     1       6.659   4.925  15.612  0.00  0.00    +0.000 C 
ENDBRANCH  10  14
BRANCH  13  17
ATOM     17  C   UNL     1       1.208   4.069  18.700  0.00  0.00    +0.000 C 
ATOM     18  C   UNL     1       0.788   2.641  18.932  0.00  0.00    +0.000 C 
ATOM     19  C   UNL     1       1.212   3.481  20.093  0.00  0.00    +0.000 C 
ENDBRANCH  13  17
ENDBRANCH   4   8
BRANCH   1  22
ATOM     20  C   UNL     1      -0.835  10.657  19.828  0.00  0.00    +0.000 C 
ATOM     21  O   UNL     1      -1.474  10.112  18.936  0.00  0.00    +0.000 OA
ATOM     22  N   UNL     1       0.473  10.312  20.169  0.00  0.00    +0.000 N 
ATOM     23  H   UNL     1       0.843  10.747  21.005  0.00  0.00    +0.000 HD
BRANCH  20  29
ATOM     24  C   UNL     1      -1.185  10.877  23.080  0.00  0.00    +0.000 C 
ATOM     25  C   UNL     1      -1.586  11.831  22.013  0.00  0.00    +0.000 A 
ATOM     26  N   UNL     1      -2.206  13.010  22.426  0.00  0.00    +0.000 NA
ATOM     27  N   UNL     1      -2.520  13.791  21.410  0.00  0.00    +0.000 NA
ATOM     28  S   UNL     1      -2.093  13.140  19.941  0.00  0.00    +0.000 S 
ATOM     29  C   UNL     1      -1.424  11.717  20.633  0.00  0.00    +0.000 A 
ENDBRANCH  20  29
ENDBRANCH   1  22
TORSDOF 5
ENDMDL
