MODEL 1
REMARK VINA RESULT:      -8.4      0.000      0.000
REMARK  Name = 
REMARK  7 active torsions:
REMARK  status: ('A' for Active; 'I' for Inactive)
REMARK    1  A    between atoms: C_1  and  C_2
REMARK    2  A    between atoms: C_5  and  C_6
REMARK    3  A    between atoms: C_7  and  O_8
REMARK    4  A    between atoms: O_8  and  C_9
REMARK    5  A    between atoms: C_12  and  C_13
REMARK    6  A    between atoms: C_13  and  N_14
REMARK    7  A    between atoms: C_15  and  C_17
REMARK                            x       y       z     vdW  Elec       q    Type
REMARK                         _______ _______ _______ _____ _____    ______ ____
ROOT
ATOM      1  C   UNL     1       2.698   7.423  18.460  0.00  0.00    +0.000 A 
ATOM      2  C   UNL     1       2.264   8.368  17.543  0.00  0.00    +0.000 A 
ATOM      3  C   UNL     1       1.403   9.379  17.982  0.00  0.00    +0.000 A 
ATOM      4  C   UNL     1       0.983   9.403  19.314  0.00  0.00    +0.000 A 
ATOM      5  C   UNL     1       1.493   8.428  20.157  0.00  0.00    +0.000 A 
ATOM      6  N   UNL     1       2.347   7.466  19.764  0.00  0.00    +0.000 NA
ENDROOT
BRANCH   1   7
ATOM      7  O   UNL     1       3.512   6.398  17.974  0.00  0.00    +0.000 OA
BRANCH   7  14
ATOM      8  C   UNL     1       0.598   2.501  18.793  0.00  0.00    +0.000 C 
ATOM      9  C   UNL     1       1.955   3.135  18.843  0.00  0.00    +0.000 A 
ATOM     10  C   UNL     1       3.023   2.535  19.508  0.00  0.00    +0.000 A 
ATOM     11  C   UNL     1       4.253   3.192  19.596  0.00  0.00    +0.000 A 
ATOM     12  C   UNL     1       4.423   4.481  19.065  0.00  0.00    +0.000 A 
ATOM     13  C   UNL     1       5.752   5.168  19.193  0.00  0.00    +0.000 C 
ATOM     14  C   UNL     1       3.333   5.108  18.439  0.00  0.00    +0.000 A 
ATOM     15  C   UNL     1       2.140   4.395  18.265  0.00  0.00    +0.000 A 
ENDBRANCH   7  14
ENDBRANCH   1   7
BRANCH   4  16
ATOM     16  C   UNL     1       0.039  10.435  19.847  0.00  0.00    +0.000 C 
BRANCH  16  17
ATOM     17  N   UNL     1      -1.191  10.479  19.090  0.00  0.00    +0.000 N 
ATOM     18  C   UNL     1      -1.533  11.551  18.300  0.00  0.00    +0.000 C 
ATOM     19  O   UNL     1      -0.826  12.548  18.173  0.00  0.00    +0.000 OA
ATOM     20  H   UNL     1      -1.934   9.830  19.331  0.00  0.00    +0.000 HD
BRANCH  18  21
ATOM     21  C   UNL     1      -2.862  11.395  17.544  0.00  0.00    +0.000 C 
ATOM     22  C   UNL     1      -3.370   9.958  17.655  0.00  0.00    +0.000 C 
ATOM     23  N   UNL     1      -3.047   9.391  16.367  0.00  0.00    +0.000 N 
ATOM     24  C   UNL     1      -2.792  10.382  15.441  0.00  0.00    +0.000 C 
ATOM     25  O   UNL     1      -2.645  10.230  14.243  0.00  0.00    +0.000 OA
ATOM     26  N   UNL     1      -2.741  11.585  16.111  0.00  0.00    +0.000 N 
ATOM     27  H   UNL     1      -3.260   8.450  16.062  0.00  0.00    +0.000 HD
ATOM     28  H   UNL     1      -2.576  12.459  15.630  0.00  0.00    +0.000 HD
ENDBRANCH  18  21
ENDBRANCH  16  17
ENDBRANCH   4  16
TORSDOF 5
ENDMDL
MODEL 2
REMARK VINA RESULT:      -8.3      2.755      8.432
REMARK  Name = 
REMARK  7 active torsions:
REMARK  status: ('A' for Active; 'I' for Inactive)
REMARK    1  A    between atoms: C_1  and  C_2
REMARK    2  A    between atoms: C_5  and  C_6
REMARK    3  A    between atoms: C_7  and  O_8
REMARK    4  A    between atoms: O_8  and  C_9
REMARK    5  A    between atoms: C_12  and  C_13
REMARK    6  A    between atoms: C_13  and  N_14
REMARK    7  A    between atoms: C_15  and  C_17
REMARK                            x       y       z     vdW  Elec       q    Type
REMARK                         _______ _______ _______ _____ _____    ______ ____
ROOT
ATOM      1  C   UNL     1       1.285   9.390  19.040  0.00  0.00    +0.000 A 
ATOM      2  C   UNL     1       1.931   8.854  17.936  0.00  0.00    +0.000 A 
ATOM      3  C   UNL     1       2.540   7.601  18.061  0.00  0.00    +0.000 A 
ATOM      4  C   UNL     1       2.507   6.933  19.288  0.00  0.00    +0.000 A 
ATOM      5  C   UNL     1       1.815   7.542  20.323  0.00  0.00    +0.000 A 
ATOM      6  N   UNL     1       1.195   8.731  20.215  0.00  0.00    +0.000 NA
ENDROOT
BRANCH   1   7
ATOM      7  O   UNL     1       0.736  10.665  18.893  0.00  0.00    +0.000 OA
BRANCH   7  14
ATOM      8  C   UNL     1      -2.990   9.774  15.781  0.00  0.00    +0.000 C 
ATOM      9  C   UNL     1      -2.488  10.365  17.064  0.00  0.00    +0.000 A 
ATOM     10  C   UNL     1      -3.281  11.203  17.847  0.00  0.00    +0.000 A 
ATOM     11  C   UNL     1      -2.753  11.794  18.998  0.00  0.00    +0.000 A 
ATOM     12  C   UNL     1      -1.410  11.599  19.359  0.00  0.00    +0.000 A 
ATOM     13  C   UNL     1      -0.868  12.264  20.592  0.00  0.00    +0.000 C 
ATOM     14  C   UNL     1      -0.596  10.796  18.544  0.00  0.00    +0.000 A 
ATOM     15  C   UNL     1      -1.167  10.125  17.454  0.00  0.00    +0.000 A 
ENDBRANCH   7  14
ENDBRANCH   1   7
BRANCH   4  16
ATOM     16  C   UNL     1       3.163   5.606  19.505  0.00  0.00    +0.000 C 
BRANCH  16  17
ATOM     17  N   UNL     1       4.559   5.630  19.136  0.00  0.00    +0.000 N 
ATOM     18  C   UNL     1       5.197   4.543  18.587  0.00  0.00    +0.000 C 
ATOM     19  O   UNL     1       4.635   3.473  18.367  0.00  0.00    +0.000 OA
ATOM     20  H   UNL     1       5.149   6.368  19.510  0.00  0.00    +0.000 HD
BRANCH  18  21
ATOM     21  C   UNL     1       6.673   4.776  18.227  0.00  0.00    +0.000 C 
ATOM     22  C   UNL     1       6.962   6.272  18.121  0.00  0.00    +0.000 C 
ATOM     23  N   UNL     1       7.007   6.503  16.697  0.00  0.00    +0.000 N 
ATOM     24  C   UNL     1       7.166   5.316  16.009  0.00  0.00    +0.000 C 
ATOM     25  O   UNL     1       7.393   5.197  14.820  0.00  0.00    +0.000 OA
ATOM     26  N   UNL     1       7.034   4.283  16.912  0.00  0.00    +0.000 N 
ATOM     27  H   UNL     1       7.204   7.385  16.243  0.00  0.00    +0.000 HD
ATOM     28  H   UNL     1       7.125   3.315  16.633  0.00  0.00    +0.000 HD
ENDBRANCH  18  21
ENDBRANCH  16  17
ENDBRANCH   4  16
TORSDOF 5
ENDMDL
MODEL 3
REMARK VINA RESULT:      -8.2      1.274      2.432
REMARK  Name = 
REMARK  7 active torsions:
REMARK  status: ('A' for Active; 'I' for Inactive)
REMARK    1  A    between atoms: C_1  and  C_2
REMARK    2  A    between atoms: C_5  and  C_6
REMARK    3  A    between atoms: C_7  and  O_8
REMARK    4  A    between atoms: O_8  and  C_9
REMARK    5  A    between atoms: C_12  and  C_13
REMARK    6  A    between atoms: C_13  and  N_14
REMARK    7  A    between atoms: C_15  and  C_17
REMARK                            x       y       z     vdW  Elec       q    Type
REMARK                         _______ _______ _______ _____ _____    ______ ____
ROOT
ATOM      1  C   UNL     1       2.131   7.212  19.356  0.00  0.00    +0.000 A 
ATOM      2  C   UNL     1       2.260   7.718  18.072  0.00  0.00    +0.000 A 
ATOM      3  C   UNL     1       1.871   9.040  17.833  0.00  0.00    +0.000 A 
ATOM      4  C   UNL     1       1.344   9.807  18.875  0.00  0.00    +0.000 A 
ATOM      5  C   UNL     1       1.278   9.217  20.127  0.00  0.00    +0.000 A 
ATOM      6  N   UNL     1       1.677   7.959  20.386  0.00  0.00    +0.000 NA
ENDROOT
BRANCH   1   7
ATOM      7  O   UNL     1       2.479   5.873  19.544  0.00  0.00    +0.000 OA
BRANCH   7  14
ATOM      8  C   UNL     1       7.290   5.685  18.461  0.00  0.00    +0.000 C 
ATOM      9  C   UNL     1       5.897   5.169  18.261  0.00  0.00    +0.000 A 
ATOM     10  C   UNL     1       5.584   4.276  17.236  0.00  0.00    +0.000 A 
ATOM     11  C   UNL     1       4.261   3.874  17.036  0.00  0.00    +0.000 A 
ATOM     12  C   UNL     1       3.220   4.396  17.822  0.00  0.00    +0.000 A 
ATOM     13  C   UNL     1       1.806   3.959  17.569  0.00  0.00    +0.000 C 
ATOM     14  C   UNL     1       3.528   5.334  18.822  0.00  0.00    +0.000 A 
ATOM     15  C   UNL     1       4.869   5.645  19.081  0.00  0.00    +0.000 A 
ENDBRANCH   7  14
ENDBRANCH   1   7
BRANCH   4  16
ATOM     16  C   UNL     1       0.877  11.217  18.687  0.00  0.00    +0.000 C 
BRANCH  16  17
ATOM     17  N   UNL     1      -0.381  11.276  17.979  0.00  0.00    +0.000 N 
ATOM     18  C   UNL     1      -1.576  11.517  18.617  0.00  0.00    +0.000 C 
ATOM     19  O   UNL     1      -1.668  11.702  19.828  0.00  0.00    +0.000 OA
ATOM     20  H   UNL     1      -0.431  10.890  17.041  0.00  0.00    +0.000 HD
BRANCH  18  21
ATOM     21  C   UNL     1      -2.799  11.580  17.689  0.00  0.00    +0.000 C 
ATOM     22  C   UNL     1      -3.620  10.297  17.807  0.00  0.00    +0.000 C 
ATOM     23  N   UNL     1      -3.269   9.566  16.612  0.00  0.00    +0.000 N 
ATOM     24  C   UNL     1      -2.685  10.398  15.677  0.00  0.00    +0.000 C 
ATOM     25  O   UNL     1      -2.425  10.116  14.524  0.00  0.00    +0.000 OA
ATOM     26  N   UNL     1      -2.458  11.617  16.280  0.00  0.00    +0.000 N 
ATOM     27  H   UNL     1      -3.642   8.669  16.333  0.00  0.00    +0.000 HD
ATOM     28  H   UNL     1      -2.045  12.392  15.778  0.00  0.00    +0.000 HD
ENDBRANCH  18  21
ENDBRANCH  16  17
ENDBRANCH   4  16
TORSDOF 5
ENDMDL
MODEL 4
REMARK VINA RESULT:      -8.2      3.044      8.475
REMARK  Name = 
REMARK  7 active torsions:
REMARK  status: ('A' for Active; 'I' for Inactive)
REMARK    1  A    between atoms: C_1  and  C_2
REMARK    2  A    between atoms: C_5  and  C_6
REMARK    3  A    between atoms: C_7  and  O_8
REMARK    4  A    between atoms: O_8  and  C_9
REMARK    5  A    between atoms: C_12  and  C_13
REMARK    6  A    between atoms: C_13  and  N_14
REMARK    7  A    between atoms: C_15  and  C_17
REMARK                            x       y       z     vdW  Elec       q    Type
REMARK                         _______ _______ _______ _____ _____    ______ ____
ROOT
ATOM      1  C   UNL     1       1.624   8.937  19.477  0.00  0.00    +0.000 A 
ATOM      2  C   UNL     1       2.110   8.837  18.182  0.00  0.00    +0.000 A 
ATOM      3  C   UNL     1       2.673   7.625  17.772  0.00  0.00    +0.000 A 
ATOM      4  C   UNL     1       2.756   6.559  18.672  0.00  0.00    +0.000 A 
ATOM      5  C   UNL     1       2.220   6.751  19.935  0.00  0.00    +0.000 A 
ATOM      6  N   UNL     1       1.644   7.898  20.339  0.00  0.00    +0.000 NA
ENDROOT
BRANCH   1   7
ATOM      7  O   UNL     1       1.117  10.178  19.867  0.00  0.00    +0.000 OA
BRANCH   7  14
ATOM      8  C   UNL     1      -3.247   9.677  17.619  0.00  0.00    +0.000 C 
ATOM      9  C   UNL     1      -2.121  10.553  18.078  0.00  0.00    +0.000 A 
ATOM     10  C   UNL     1      -2.017  11.886  17.682  0.00  0.00    +0.000 A 
ATOM     11  C   UNL     1      -0.914  12.650  18.071  0.00  0.00    +0.000 A 
ATOM     12  C   UNL     1       0.130  12.082  18.820  0.00  0.00    +0.000 A 
ATOM     13  C   UNL     1       1.311  12.925  19.206  0.00  0.00    +0.000 C 
ATOM     14  C   UNL     1       0.051  10.726  19.177  0.00  0.00    +0.000 A 
ATOM     15  C   UNL     1      -1.109  10.003  18.872  0.00  0.00    +0.000 A 
ENDBRANCH   7  14
ENDBRANCH   1   7
BRANCH   4  16
ATOM     16  C   UNL     1       3.374   5.243  18.314  0.00  0.00    +0.000 C 
BRANCH  16  17
ATOM     17  N   UNL     1       4.777   5.378  17.995  0.00  0.00    +0.000 N 
ATOM     18  C   UNL     1       5.744   4.585  18.568  0.00  0.00    +0.000 C 
ATOM     19  O   UNL     1       5.494   3.704  19.387  0.00  0.00    +0.000 OA
ATOM     20  H   UNL     1       5.093   6.228  17.536  0.00  0.00    +0.000 HD
BRANCH  18  21
ATOM     21  C   UNL     1       7.174   4.855  18.073  0.00  0.00    +0.000 C 
ATOM     22  C   UNL     1       7.399   6.356  17.898  0.00  0.00    +0.000 C 
ATOM     23  N   UNL     1       7.314   6.540  16.469  0.00  0.00    +0.000 N 
ATOM     24  C   UNL     1       7.455   5.337  15.806  0.00  0.00    +0.000 C 
ATOM     25  O   UNL     1       7.583   5.186  14.606  0.00  0.00    +0.000 OA
ATOM     26  N   UNL     1       7.438   4.331  16.747  0.00  0.00    +0.000 N 
ATOM     27  H   UNL     1       7.439   7.413  15.973  0.00  0.00    +0.000 HD
ATOM     28  H   UNL     1       7.539   3.358  16.491  0.00  0.00    +0.000 HD
ENDBRANCH  18  21
ENDBRANCH  16  17
ENDBRANCH   4  16
TORSDOF 5
ENDMDL
MODEL 5
REMARK VINA RESULT:      -8.2      1.137      1.406
REMARK  Name = 
REMARK  7 active torsions:
REMARK  status: ('A' for Active; 'I' for Inactive)
REMARK    1  A    between atoms: C_1  and  C_2
REMARK    2  A    between atoms: C_5  and  C_6
REMARK    3  A    between atoms: C_7  and  O_8
REMARK    4  A    between atoms: O_8  and  C_9
REMARK    5  A    between atoms: C_12  and  C_13
REMARK    6  A    between atoms: C_13  and  N_14
REMARK    7  A    between atoms: C_15  and  C_17
REMARK                            x       y       z     vdW  Elec       q    Type
REMARK                         _______ _______ _______ _____ _____    ______ ____
ROOT
ATOM      1  C   UNL     1       2.648   7.728  18.432  0.00  0.00    +0.000 A 
ATOM      2  C   UNL     1       2.187   7.666  19.738  0.00  0.00    +0.000 A 
ATOM      3  C   UNL     1       1.275   8.633  20.171  0.00  0.00    +0.000 A 
ATOM      4  C   UNL     1       0.869   9.645  19.297  0.00  0.00    +0.000 A 
ATOM      5  C   UNL     1       1.368   9.605  18.005  0.00  0.00    +0.000 A 
ATOM      6  N   UNL     1       2.220   8.665  17.558  0.00  0.00    +0.000 NA
ENDROOT
BRANCH   1   7
ATOM      7  O   UNL     1       3.597   6.778  18.051  0.00  0.00    +0.000 OA
BRANCH   7  14
ATOM      8  C   UNL     1       0.681   3.001  19.312  0.00  0.00    +0.000 C 
ATOM      9  C   UNL     1       1.793   3.554  18.473  0.00  0.00    +0.000 A 
ATOM     10  C   UNL     1       2.590   2.733  17.676  0.00  0.00    +0.000 A 
ATOM     11  C   UNL     1       3.664   3.274  16.964  0.00  0.00    +0.000 A 
ATOM     12  C   UNL     1       3.991   4.635  17.076  0.00  0.00    +0.000 A 
ATOM     13  C   UNL     1       5.163   5.183  16.313  0.00  0.00    +0.000 C 
ATOM     14  C   UNL     1       3.220   5.454  17.917  0.00  0.00    +0.000 A 
ATOM     15  C   UNL     1       2.084   4.920  18.539  0.00  0.00    +0.000 A 
ENDBRANCH   7  14
ENDBRANCH   1   7
BRANCH   4  16
ATOM     16  C   UNL     1      -0.079  10.731  19.700  0.00  0.00    +0.000 C 
BRANCH  16  17
ATOM     17  N   UNL     1      -1.313  10.671  18.951  0.00  0.00    +0.000 N 
ATOM     18  C   UNL     1      -1.693  11.660  18.074  0.00  0.00    +0.000 C 
ATOM     19  O   UNL     1      -1.019  12.664  17.857  0.00  0.00    +0.000 OA
ATOM     20  H   UNL     1      -2.034  10.022  19.252  0.00  0.00    +0.000 HD
BRANCH  18  21
ATOM     21  C   UNL     1      -3.020  11.398  17.344  0.00  0.00    +0.000 C 
ATOM     22  C   UNL     1      -3.414   9.927  17.471  0.00  0.00    +0.000 C 
ATOM     23  N   UNL     1      -3.072   9.379  16.180  0.00  0.00    +0.000 N 
ATOM     24  C   UNL     1      -2.911  10.381  15.244  0.00  0.00    +0.000 C 
ATOM     25  O   UNL     1      -2.775  10.233  14.045  0.00  0.00    +0.000 OA
ATOM     26  N   UNL     1      -2.941  11.588  15.909  0.00  0.00    +0.000 N 
ATOM     27  H   UNL     1      -3.217   8.423  15.883  0.00  0.00    +0.000 HD
ATOM     28  H   UNL     1      -2.853  12.469  15.420  0.00  0.00    +0.000 HD
ENDBRANCH  18  21
ENDBRANCH  16  17
ENDBRANCH   4  16
TORSDOF 5
ENDMDL
MODEL 6
REMARK VINA RESULT:      -8.1      2.627      8.058
REMARK  Name = 
REMARK  7 active torsions:
REMARK  status: ('A' for Active; 'I' for Inactive)
REMARK    1  A    between atoms: C_1  and  C_2
REMARK    2  A    between atoms: C_5  and  C_6
REMARK    3  A    between atoms: C_7  and  O_8
REMARK    4  A    between atoms: O_8  and  C_9
REMARK    5  A    between atoms: C_12  and  C_13
REMARK    6  A    between atoms: C_13  and  N_14
REMARK    7  A    between atoms: C_15  and  C_17
REMARK                            x       y       z     vdW  Elec       q    Type
REMARK                         _______ _______ _______ _____ _____    ______ ____
ROOT
ATOM      1  C   UNL     1       1.205   9.424  19.290  0.00  0.00    +0.000 A 
ATOM      2  C   UNL     1       1.813   9.452  18.044  0.00  0.00    +0.000 A 
ATOM      3  C   UNL     1       2.600   8.362  17.661  0.00  0.00    +0.000 A 
ATOM      4  C   UNL     1       2.777   7.290  18.540  0.00  0.00    +0.000 A 
ATOM      5  C   UNL     1       2.107   7.347  19.752  0.00  0.00    +0.000 A 
ATOM      6  N   UNL     1       1.319   8.370  20.127  0.00  0.00    +0.000 NA
ENDROOT
BRANCH   1   7
ATOM      7  O   UNL     1       0.470  10.553  19.660  0.00  0.00    +0.000 OA
BRANCH   7  14
ATOM      8  C   UNL     1      -2.775   9.771  16.024  0.00  0.00    +0.000 C 
ATOM      9  C   UNL     1      -2.428  10.410  17.335  0.00  0.00    +0.000 A 
ATOM     10  C   UNL     1      -3.247  11.375  17.921  0.00  0.00    +0.000 A 
ATOM     11  C   UNL     1      -2.854  12.002  19.107  0.00  0.00    +0.000 A 
ATOM     12  C   UNL     1      -1.615  11.713  19.700  0.00  0.00    +0.000 A 
ATOM     13  C   UNL     1      -1.214  12.418  20.964  0.00  0.00    +0.000 C 
ATOM     14  C   UNL     1      -0.767  10.778  19.084  0.00  0.00    +0.000 A 
ATOM     15  C   UNL     1      -1.220  10.081  17.957  0.00  0.00    +0.000 A 
ENDBRANCH   7  14
ENDBRANCH   1   7
BRANCH   4  16
ATOM     16  C   UNL     1       3.630   6.105  18.211  0.00  0.00    +0.000 C 
BRANCH  16  17
ATOM     17  N   UNL     1       3.112   4.891  18.799  0.00  0.00    +0.000 N 
ATOM     18  C   UNL     1       2.911   3.744  18.067  0.00  0.00    +0.000 C 
ATOM     19  O   UNL     1       3.154   3.660  16.866  0.00  0.00    +0.000 OA
ATOM     20  H   UNL     1       2.653   4.945  19.704  0.00  0.00    +0.000 HD
BRANCH  18  21
ATOM     21  C   UNL     1       2.390   2.547  18.878  0.00  0.00    +0.000 C 
ATOM     22  C   UNL     1       0.871   2.627  19.025  0.00  0.00    +0.000 C 
ATOM     23  N   UNL     1       0.692   3.093  20.379  0.00  0.00    +0.000 N 
ATOM     24  C   UNL     1       1.845   2.920  21.118  0.00  0.00    +0.000 C 
ATOM     25  O   UNL     1       1.961   3.069  22.320  0.00  0.00    +0.000 OA
ATOM     26  N   UNL     1       2.847   2.534  20.254  0.00  0.00    +0.000 N 
ATOM     27  H   UNL     1      -0.194   3.243  20.844  0.00  0.00    +0.000 HD
ATOM     28  H   UNL     1       3.785   2.338  20.577  0.00  0.00    +0.000 HD
ENDBRANCH  18  21
ENDBRANCH  16  17
ENDBRANCH   4  16
TORSDOF 5
ENDMDL
MODEL 7
REMARK VINA RESULT:      -8.0      1.565      1.752
REMARK  Name = 
REMARK  7 active torsions:
REMARK  status: ('A' for Active; 'I' for Inactive)
REMARK    1  A    between atoms: C_1  and  C_2
REMARK    2  A    between atoms: C_5  and  C_6
REMARK    3  A    between atoms: C_7  and  O_8
REMARK    4  A    between atoms: O_8  and  C_9
REMARK    5  A    between atoms: C_12  and  C_13
REMARK    6  A    between atoms: C_13  and  N_14
REMARK    7  A    between atoms: C_15  and  C_17
REMARK                            x       y       z     vdW  Elec       q    Type
REMARK                         _______ _______ _______ _____ _____    ______ ____
ROOT
ATOM      1  C   UNL     1       2.843   7.169  19.308  0.00  0.00    +0.000 A 
ATOM      2  C   UNL     1       2.941   7.699  18.031  0.00  0.00    +0.000 A 
ATOM      3  C   UNL     1       2.177   8.827  17.715  0.00  0.00    +0.000 A 
ATOM      4  C   UNL     1       1.321   9.376  18.673  0.00  0.00    +0.000 A 
ATOM      5  C   UNL     1       1.313   8.788  19.928  0.00  0.00    +0.000 A 
ATOM      6  N   UNL     1       2.064   7.723  20.263  0.00  0.00    +0.000 NA
ENDROOT
BRANCH   1   7
ATOM      7  O   UNL     1       3.579   6.013  19.571  0.00  0.00    +0.000 OA
BRANCH   7  14
ATOM      8  C   UNL     1       0.490   2.248  18.772  0.00  0.00    +0.000 C 
ATOM      9  C   UNL     1       1.764   2.968  18.448  0.00  0.00    +0.000 A 
ATOM     10  C   UNL     1       2.738   2.404  17.626  0.00  0.00    +0.000 A 
ATOM     11  C   UNL     1       3.945   3.073  17.406  0.00  0.00    +0.000 A 
ATOM     12  C   UNL     1       4.220   4.294  18.045  0.00  0.00    +0.000 A 
ATOM     13  C   UNL     1       5.534   4.979  17.803  0.00  0.00    +0.000 C 
ATOM     14  C   UNL     1       3.260   4.839  18.913  0.00  0.00    +0.000 A 
ATOM     15  C   UNL     1       2.015   4.210  19.039  0.00  0.00    +0.000 A 
ENDBRANCH   7  14
ENDBRANCH   1   7
BRANCH   4  16
ATOM     16  C   UNL     1       0.451  10.562  18.397  0.00  0.00    +0.000 C 
BRANCH  16  17
ATOM     17  N   UNL     1      -0.801  10.178  17.785  0.00  0.00    +0.000 N 
ATOM     18  C   UNL     1      -2.018  10.588  18.276  0.00  0.00    +0.000 C 
ATOM     19  O   UNL     1      -2.139  11.309  19.263  0.00  0.00    +0.000 OA
ATOM     20  H   UNL     1      -0.807   9.395  17.138  0.00  0.00    +0.000 HD
BRANCH  18  21
ATOM     21  C   UNL     1      -3.233  10.107  17.467  0.00  0.00    +0.000 C 
ATOM     22  C   UNL     1      -3.059  10.456  15.990  0.00  0.00    +0.000 C 
ATOM     23  N   UNL     1      -3.919  11.603  15.816  0.00  0.00    +0.000 N 
ATOM     24  C   UNL     1      -4.821  11.706  16.856  0.00  0.00    +0.000 C 
ATOM     25  O   UNL     1      -5.768  12.468  16.916  0.00  0.00    +0.000 OA
ATOM     26  N   UNL     1      -4.468  10.783  17.816  0.00  0.00    +0.000 N 
ATOM     27  H   UNL     1      -4.081  12.098  14.949  0.00  0.00    +0.000 HD
ATOM     28  H   UNL     1      -4.998  10.670  18.669  0.00  0.00    +0.000 HD
ENDBRANCH  18  21
ENDBRANCH  16  17
ENDBRANCH   4  16
TORSDOF 5
ENDMDL
MODEL 8
REMARK VINA RESULT:      -7.9      2.388      8.157
REMARK  Name = 
REMARK  7 active torsions:
REMARK  status: ('A' for Active; 'I' for Inactive)
REMARK    1  A    between atoms: C_1  and  C_2
REMARK    2  A    between atoms: C_5  and  C_6
REMARK    3  A    between atoms: C_7  and  O_8
REMARK    4  A    between atoms: O_8  and  C_9
REMARK    5  A    between atoms: C_12  and  C_13
REMARK    6  A    between atoms: C_13  and  N_14
REMARK    7  A    between atoms: C_15  and  C_17
REMARK                            x       y       z     vdW  Elec       q    Type
REMARK                         _______ _______ _______ _____ _____    ______ ____
ROOT
ATOM      1  C   UNL     1       1.014   9.758  19.161  0.00  0.00    +0.000 A 
ATOM      2  C   UNL     1       1.142   8.813  20.167  0.00  0.00    +0.000 A 
ATOM      3  C   UNL     1       1.919   7.677  19.922  0.00  0.00    +0.000 A 
ATOM      4  C   UNL     1       2.524   7.507  18.674  0.00  0.00    +0.000 A 
ATOM      5  C   UNL     1       2.355   8.520  17.744  0.00  0.00    +0.000 A 
ATOM      6  N   UNL     1       1.640   9.636  17.970  0.00  0.00    +0.000 NA
ENDROOT
BRANCH   1   7
ATOM      7  O   UNL     1       0.187  10.853  19.424  0.00  0.00    +0.000 OA
BRANCH   7  14
ATOM      8  C   UNL     1      -2.864   9.712  15.716  0.00  0.00    +0.000 C 
ATOM      9  C   UNL     1      -2.628  10.369  17.043  0.00  0.00    +0.000 A 
ATOM     10  C   UNL     1      -3.576  11.208  17.627  0.00  0.00    +0.000 A 
ATOM     11  C   UNL     1      -3.290  11.861  18.829  0.00  0.00    +0.000 A 
ATOM     12  C   UNL     1      -2.033  11.728  19.441  0.00  0.00    +0.000 A 
ATOM     13  C   UNL     1      -1.750  12.457  20.723  0.00  0.00    +0.000 C 
ATOM     14  C   UNL     1      -1.059  10.923  18.828  0.00  0.00    +0.000 A 
ATOM     15  C   UNL     1      -1.397  10.191  17.682  0.00  0.00    +0.000 A 
ENDBRANCH   7  14
ENDBRANCH   1   7
BRANCH   4  16
ATOM     16  C   UNL     1       3.343   6.302  18.328  0.00  0.00    +0.000 C 
BRANCH  16  17
ATOM     17  N   UNL     1       2.678   5.076  18.703  0.00  0.00    +0.000 N 
ATOM     18  C   UNL     1       3.073   3.847  18.228  0.00  0.00    +0.000 C 
ATOM     19  O   UNL     1       4.016   3.695  17.456  0.00  0.00    +0.000 OA
ATOM     20  H   UNL     1       1.754   5.131  19.122  0.00  0.00    +0.000 HD
BRANCH  18  21
ATOM     21  C   UNL     1       2.266   2.657  18.771  0.00  0.00    +0.000 C 
ATOM     22  C   UNL     1       0.784   3.019  18.860  0.00  0.00    +0.000 C 
ATOM     23  N   UNL     1       0.586   3.264  20.269  0.00  0.00    +0.000 N 
ATOM     24  C   UNL     1       1.619   2.730  21.014  0.00  0.00    +0.000 C 
ATOM     25  O   UNL     1       1.661   2.636  22.226  0.00  0.00    +0.000 OA
ATOM     26  N   UNL     1       2.596   2.307  20.139  0.00  0.00    +0.000 N 
ATOM     27  H   UNL     1      -0.290   3.506  20.713  0.00  0.00    +0.000 HD
ATOM     28  H   UNL     1       3.449   1.869  20.461  0.00  0.00    +0.000 HD
ENDBRANCH  18  21
ENDBRANCH  16  17
ENDBRANCH   4  16
TORSDOF 5
ENDMDL
MODEL 9
REMARK VINA RESULT:      -7.9      1.784      2.526
REMARK  Name = 
REMARK  7 active torsions:
REMARK  status: ('A' for Active; 'I' for Inactive)
REMARK    1  A    between atoms: C_1  and  C_2
REMARK    2  A    between atoms: C_5  and  C_6
REMARK    3  A    between atoms: C_7  and  O_8
REMARK    4  A    between atoms: O_8  and  C_9
REMARK    5  A    between atoms: C_12  and  C_13
REMARK    6  A    between atoms: C_13  and  N_14
REMARK    7  A    between atoms: C_15  and  C_17
REMARK                            x       y       z     vdW  Elec       q    Type
REMARK                         _______ _______ _______ _____ _____    ______ ____
ROOT
ATOM      1  C   UNL     1       2.422   7.040  19.657  0.00  0.00    +0.000 A 
ATOM      2  C   UNL     1       2.587   7.369  18.320  0.00  0.00    +0.000 A 
ATOM      3  C   UNL     1       1.987   8.538  17.841  0.00  0.00    +0.000 A 
ATOM      4  C   UNL     1       1.221   9.328  18.702  0.00  0.00    +0.000 A 
ATOM      5  C   UNL     1       1.137   8.925  20.025  0.00  0.00    +0.000 A 
ATOM      6  N   UNL     1       1.733   7.823  20.515  0.00  0.00    +0.000 NA
ENDROOT
BRANCH   1   7
ATOM      7  O   UNL     1       2.990   5.839  20.087  0.00  0.00    +0.000 OA
BRANCH   7  14
ATOM      8  C   UNL     1       5.248   3.713  16.247  0.00  0.00    +0.000 C 
ATOM      9  C   UNL     1       4.205   3.668  17.323  0.00  0.00    +0.000 A 
ATOM     10  C   UNL     1       3.227   2.675  17.358  0.00  0.00    +0.000 A 
ATOM     11  C   UNL     1       2.228   2.708  18.334  0.00  0.00    +0.000 A 
ATOM     12  C   UNL     1       2.159   3.760  19.261  0.00  0.00    +0.000 A 
ATOM     13  C   UNL     1       1.062   3.777  20.286  0.00  0.00    +0.000 C 
ATOM     14  C   UNL     1       3.114   4.788  19.197  0.00  0.00    +0.000 A 
ATOM     15  C   UNL     1       4.170   4.685  18.283  0.00  0.00    +0.000 A 
ENDBRANCH   7  14
ENDBRANCH   1   7
BRANCH   4  16
ATOM     16  C   UNL     1       0.523  10.573  18.252  0.00  0.00    +0.000 C 
BRANCH  16  17
ATOM     17  N   UNL     1      -0.719  10.279  17.576  0.00  0.00    +0.000 N 
ATOM     18  C   UNL     1      -1.943  10.410  18.190  0.00  0.00    +0.000 C 
ATOM     19  O   UNL     1      -2.077  10.787  19.352  0.00  0.00    +0.000 OA
ATOM     20  H   UNL     1      -0.691   9.729  16.722  0.00  0.00    +0.000 HD
BRANCH  18  21
ATOM     21  C   UNL     1      -3.150  10.085  17.296  0.00  0.00    +0.000 C 
ATOM     22  C   UNL     1      -3.003  10.771  15.939  0.00  0.00    +0.000 C 
ATOM     23  N   UNL     1      -3.902  11.896  16.036  0.00  0.00    +0.000 N 
ATOM     24  C   UNL     1      -4.796  11.726  17.074  0.00  0.00    +0.000 C 
ATOM     25  O   UNL     1      -5.767  12.420  17.311  0.00  0.00    +0.000 OA
ATOM     26  N   UNL     1      -4.402  10.620  17.795  0.00  0.00    +0.000 N 
ATOM     27  H   UNL     1      -4.090  12.571  15.306  0.00  0.00    +0.000 HD
ATOM     28  H   UNL     1      -4.919  10.295  18.601  0.00  0.00    +0.000 HD
ENDBRANCH  18  21
ENDBRANCH  16  17
ENDBRANCH   4  16
TORSDOF 5
ENDMDL
