MODEL 1
REMARK VINA RESULT:      -9.0      0.000      0.000
REMARK  Name = 
REMARK  5 active torsions:
REMARK  status: ('A' for Active; 'I' for Inactive)
REMARK    1  A    between atoms: C_1  and  N_2
REMARK    2  A    between atoms: C_5  and  O_6
REMARK    3  A    between atoms: O_6  and  C_7
REMARK    4  A    between atoms: C_10  and  N_11
REMARK    5  A    between atoms: C_24  and  C_25
REMARK                            x       y       z     vdW  Elec       q    Type
REMARK                         _______ _______ _______ _____ _____    ______ ____
ROOT
ATOM      1  C   UNL     1      -1.202  11.903  20.900  0.00  0.00    +0.000 A 
ATOM      2  C   UNL     1      -0.661  11.424  19.717  0.00  0.00    +0.000 A 
ATOM      3  C   UNL     1       0.121  10.271  19.724  0.00  0.00    +0.000 A 
ATOM      4  C   UNL     1       0.397   9.560  20.901  0.00  0.00    +0.000 A 
ATOM      5  C   UNL     1      -0.088  10.083  22.119  0.00  0.00    +0.000 A 
ATOM      6  C   UNL     1       0.162   9.460  23.466  0.00  0.00    +0.000 C 
ATOM      7  C   UNL     1      -0.873  11.267  22.099  0.00  0.00    +0.000 A 
ENDROOT
BRANCH   4   8
ATOM      8  N   UNL     1       1.148   8.347  20.850  0.00  0.00    +0.000 N 
ATOM      9  C   UNL     1       1.836   7.902  19.718  0.00  0.00    +0.000 C 
ATOM     10  O   UNL     1       1.831   8.490  18.646  0.00  0.00    +0.000 OA
ATOM     11  N   UNL     1       2.494   6.702  19.917  0.00  0.00    +0.000 N 
ATOM     12  C   UNL     1       3.291   6.212  18.905  0.00  0.00    +0.000 A 
ATOM     13  N   UNL     1       3.810   6.872  17.903  0.00  0.00    +0.000 NA
ATOM     14  C   UNL     1       4.483   6.013  17.063  0.00  0.00    +0.000 A 
ATOM     15  C   UNL     1       5.125   6.375  15.860  0.00  0.00    +0.000 A 
ATOM     16  C   UNL     1       5.775   5.400  15.099  0.00  0.00    +0.000 A 
ATOM     17  C   UNL     1       5.784   4.075  15.520  0.00  0.00    +0.000 A 
ATOM     18  C   UNL     1       5.147   3.689  16.707  0.00  0.00    +0.000 A 
ATOM     19  C   UNL     1       4.504   4.679  17.472  0.00  0.00    +0.000 A 
ATOM     20  S   UNL     1       3.649   4.547  18.974  0.00  0.00    +0.000 S 
ATOM     21  H   UNL     1       1.073   7.719  21.631  0.00  0.00    +0.000 HD
ATOM     22  H   UNL     1       2.189   6.054  20.621  0.00  0.00    +0.000 HD
ENDBRANCH   4   8
BRANCH   1  23
ATOM     23  O   UNL     1      -2.006  13.022  20.950  0.00  0.00    +0.000 OA
BRANCH  23  28
ATOM     24  C   UNL     1      -7.456  12.395  23.398  0.00  0.00    +0.000 C 
ATOM     25  N   UNL     1      -6.030  12.680  23.483  0.00  0.00    +0.000 N 
ATOM     26  C   UNL     1      -5.364  12.659  22.241  0.00  0.00    +0.000 A 
ATOM     27  C   UNL     1      -3.999  12.877  22.220  0.00  0.00    +0.000 A 
ATOM     28  C   UNL     1      -3.388  12.817  20.988  0.00  0.00    +0.000 A 
ATOM     29  N   UNL     1      -4.046  12.539  19.850  0.00  0.00    +0.000 NA
ATOM     30  C   UNL     1      -5.367  12.404  19.970  0.00  0.00    +0.000 A 
ATOM     31  N   UNL     1      -6.061  12.454  21.112  0.00  0.00    +0.000 NA
ATOM     32  H   UNL     1      -5.560  12.039  24.117  0.00  0.00    +0.000 HD
ENDBRANCH  23  28
ENDBRANCH   1  23
TORSDOF 3
ENDMDL
MODEL 2
REMARK VINA RESULT:      -8.8      3.480     10.980
REMARK  Name = 
REMARK  5 active torsions:
REMARK  status: ('A' for Active; 'I' for Inactive)
REMARK    1  A    between atoms: C_1  and  N_2
REMARK    2  A    between atoms: C_5  and  O_6
REMARK    3  A    between atoms: O_6  and  C_7
REMARK    4  A    between atoms: C_10  and  N_11
REMARK    5  A    between atoms: C_24  and  C_25
REMARK                            x       y       z     vdW  Elec       q    Type
REMARK                         _______ _______ _______ _____ _____    ______ ____
ROOT
ATOM      1  C   UNL     1       3.777   4.140  18.179  0.00  0.00    +0.000 A 
ATOM      2  C   UNL     1       3.311   5.406  17.861  0.00  0.00    +0.000 A 
ATOM      3  C   UNL     1       2.506   6.101  18.762  0.00  0.00    +0.000 A 
ATOM      4  C   UNL     1       2.132   5.562  20.002  0.00  0.00    +0.000 A 
ATOM      5  C   UNL     1       2.540   4.244  20.300  0.00  0.00    +0.000 A 
ATOM      6  C   UNL     1       2.181   3.515  21.567  0.00  0.00    +0.000 C 
ATOM      7  C   UNL     1       3.349   3.543  19.368  0.00  0.00    +0.000 A 
ENDROOT
BRANCH   4   8
ATOM      8  N   UNL     1       1.360   6.337  20.920  0.00  0.00    +0.000 N 
ATOM      9  C   UNL     1       1.112   7.704  20.771  0.00  0.00    +0.000 C 
ATOM     10  O   UNL     1       1.563   8.380  19.858  0.00  0.00    +0.000 OA
ATOM     11  N   UNL     1       0.334   8.230  21.786  0.00  0.00    +0.000 N 
ATOM     12  C   UNL     1      -0.064   9.546  21.696  0.00  0.00    +0.000 A 
ATOM     13  N   UNL     1      -0.117  10.296  20.628  0.00  0.00    +0.000 NA
ATOM     14  C   UNL     1      -0.493  11.578  20.961  0.00  0.00    +0.000 A 
ATOM     15  C   UNL     1      -0.608  12.661  20.065  0.00  0.00    +0.000 A 
ATOM     16  C   UNL     1      -1.002  13.915  20.537  0.00  0.00    +0.000 A 
ATOM     17  C   UNL     1      -1.273  14.100  21.888  0.00  0.00    +0.000 A 
ATOM     18  C   UNL     1      -1.158  13.043  22.801  0.00  0.00    +0.000 A 
ATOM     19  C   UNL     1      -0.771  11.781  22.314  0.00  0.00    +0.000 A 
ATOM     20  S   UNL     1      -0.552  10.281  23.154  0.00  0.00    +0.000 S 
ATOM     21  H   UNL     1       1.088   5.901  21.783  0.00  0.00    +0.000 HD
ATOM     22  H   UNL     1       0.302   7.796  22.691  0.00  0.00    +0.000 HD
ENDBRANCH   4   8
BRANCH   1  23
ATOM     23  O   UNL     1       4.599   3.418  17.341  0.00  0.00    +0.000 OA
BRANCH  23  28
ATOM     24  C   UNL     1       7.997   5.284  12.753  0.00  0.00    +0.000 C 
ATOM     25  N   UNL     1       6.858   4.562  13.302  0.00  0.00    +0.000 N 
ATOM     26  C   UNL     1       6.724   4.677  14.700  0.00  0.00    +0.000 A 
ATOM     27  C   UNL     1       5.696   3.994  15.324  0.00  0.00    +0.000 A 
ATOM     28  C   UNL     1       5.624   4.113  16.693  0.00  0.00    +0.000 A 
ATOM     29  N   UNL     1       6.501   4.825  17.421  0.00  0.00    +0.000 NA
ATOM     30  C   UNL     1       7.418   5.493  16.720  0.00  0.00    +0.000 A 
ATOM     31  N   UNL     1       7.570   5.457  15.391  0.00  0.00    +0.000 NA
ATOM     32  H   UNL     1       6.890   3.576  13.057  0.00  0.00    +0.000 HD
ENDBRANCH  23  28
ENDBRANCH   1  23
TORSDOF 3
ENDMDL
MODEL 3
REMARK VINA RESULT:      -8.7      2.146      2.959
REMARK  Name = 
REMARK  5 active torsions:
REMARK  status: ('A' for Active; 'I' for Inactive)
REMARK    1  A    between atoms: C_1  and  N_2
REMARK    2  A    between atoms: C_5  and  O_6
REMARK    3  A    between atoms: O_6  and  C_7
REMARK    4  A    between atoms: C_10  and  N_11
REMARK    5  A    between atoms: C_24  and  C_25
REMARK                            x       y       z     vdW  Elec       q    Type
REMARK                         _______ _______ _______ _____ _____    ______ ____
ROOT
ATOM      1  C   UNL     1      -1.544  12.974  20.097  0.00  0.00    +0.000 A 
ATOM      2  C   UNL     1      -0.215  12.884  20.482  0.00  0.00    +0.000 A 
ATOM      3  C   UNL     1       0.628  11.960  19.870  0.00  0.00    +0.000 A 
ATOM      4  C   UNL     1       0.183  11.091  18.863  0.00  0.00    +0.000 A 
ATOM      5  C   UNL     1      -1.186  11.124  18.518  0.00  0.00    +0.000 A 
ATOM      6  C   UNL     1      -1.821  10.226  17.492  0.00  0.00    +0.000 C 
ATOM      7  C   UNL     1      -2.038  12.063  19.160  0.00  0.00    +0.000 A 
ENDROOT
BRANCH   4   8
ATOM      8  N   UNL     1       1.099  10.206  18.218  0.00  0.00    +0.000 N 
ATOM      9  C   UNL     1       1.516   8.986  18.757  0.00  0.00    +0.000 C 
ATOM     10  O   UNL     1       1.166   8.573  19.852  0.00  0.00    +0.000 OA
ATOM     11  N   UNL     1       2.402   8.305  17.941  0.00  0.00    +0.000 N 
ATOM     12  C   UNL     1       2.805   7.043  18.317  0.00  0.00    +0.000 A 
ATOM     13  N   UNL     1       2.217   6.229  19.154  0.00  0.00    +0.000 NA
ATOM     14  C   UNL     1       2.972   5.090  19.324  0.00  0.00    +0.000 A 
ATOM     15  C   UNL     1       2.662   4.020  20.189  0.00  0.00    +0.000 A 
ATOM     16  C   UNL     1       3.517   2.918  20.265  0.00  0.00    +0.000 A 
ATOM     17  C   UNL     1       4.675   2.878  19.497  0.00  0.00    +0.000 A 
ATOM     18  C   UNL     1       5.010   3.931  18.636  0.00  0.00    +0.000 A 
ATOM     19  C   UNL     1       4.137   5.031  18.558  0.00  0.00    +0.000 A 
ATOM     20  S   UNL     1       4.241   6.471  17.598  0.00  0.00    +0.000 S 
ATOM     21  H   UNL     1       1.564  10.539  17.391  0.00  0.00    +0.000 HD
ATOM     22  H   UNL     1       2.969   8.793  17.271  0.00  0.00    +0.000 HD
ENDBRANCH   4   8
BRANCH   1  23
ATOM     23  O   UNL     1      -2.417  13.887  20.647  0.00  0.00    +0.000 OA
BRANCH  23  28
ATOM     24  C   UNL     1      -7.692  12.479  23.153  0.00  0.00    +0.000 C 
ATOM     25  N   UNL     1      -6.876  12.927  22.032  0.00  0.00    +0.000 N 
ATOM     26  C   UNL     1      -5.493  12.946  22.299  0.00  0.00    +0.000 A 
ATOM     27  C   UNL     1      -4.635  13.395  21.312  0.00  0.00    +0.000 A 
ATOM     28  C   UNL     1      -3.296  13.423  21.629  0.00  0.00    +0.000 A 
ATOM     29  N   UNL     1      -2.814  13.066  22.831  0.00  0.00    +0.000 NA
ATOM     30  C   UNL     1      -3.715  12.592  23.692  0.00  0.00    +0.000 A 
ATOM     31  N   UNL     1      -5.034  12.510  23.484  0.00  0.00    +0.000 NA
ATOM     32  H   UNL     1      -7.160  13.849  21.711  0.00  0.00    +0.000 HD
ENDBRANCH  23  28
ENDBRANCH   1  23
TORSDOF 3
ENDMDL
MODEL 4
REMARK VINA RESULT:      -8.7      2.269      3.011
REMARK  Name = 
REMARK  5 active torsions:
REMARK  status: ('A' for Active; 'I' for Inactive)
REMARK    1  A    between atoms: C_1  and  N_2
REMARK    2  A    between atoms: C_5  and  O_6
REMARK    3  A    between atoms: O_6  and  C_7
REMARK    4  A    between atoms: C_10  and  N_11
REMARK    5  A    between atoms: C_24  and  C_25
REMARK                            x       y       z     vdW  Elec       q    Type
REMARK                         _______ _______ _______ _____ _____    ______ ____
ROOT
ATOM      1  C   UNL     1      -1.485  12.810  19.703  0.00  0.00    +0.000 A 
ATOM      2  C   UNL     1      -1.920  11.601  19.182  0.00  0.00    +0.000 A 
ATOM      3  C   UNL     1      -1.008  10.725  18.597  0.00  0.00    +0.000 A 
ATOM      4  C   UNL     1       0.360  11.020  18.504  0.00  0.00    +0.000 A 
ATOM      5  C   UNL     1       0.798  12.281  18.965  0.00  0.00    +0.000 A 
ATOM      6  C   UNL     1       2.223  12.759  18.893  0.00  0.00    +0.000 C 
ATOM      7  C   UNL     1      -0.145  13.169  19.547  0.00  0.00    +0.000 A 
ENDROOT
BRANCH   4   8
ATOM      8  N   UNL     1       1.267  10.063  17.957  0.00  0.00    +0.000 N 
ATOM      9  C   UNL     1       1.613   8.865  18.588  0.00  0.00    +0.000 C 
ATOM     10  O   UNL     1       1.201   8.535  19.690  0.00  0.00    +0.000 OA
ATOM     11  N   UNL     1       2.504   8.102  17.856  0.00  0.00    +0.000 N 
ATOM     12  C   UNL     1       2.842   6.851  18.326  0.00  0.00    +0.000 A 
ATOM     13  N   UNL     1       2.187   6.115  19.185  0.00  0.00    +0.000 NA
ATOM     14  C   UNL     1       2.888   4.962  19.458  0.00  0.00    +0.000 A 
ATOM     15  C   UNL     1       2.500   3.960  20.372  0.00  0.00    +0.000 A 
ATOM     16  C   UNL     1       3.307   2.835  20.554  0.00  0.00    +0.000 A 
ATOM     17  C   UNL     1       4.494   2.703  19.842  0.00  0.00    +0.000 A 
ATOM     18  C   UNL     1       4.906   3.687  18.934  0.00  0.00    +0.000 A 
ATOM     19  C   UNL     1       4.082   4.811  18.750  0.00  0.00    +0.000 A 
ATOM     20  S   UNL     1       4.282   6.183  17.709  0.00  0.00    +0.000 S 
ATOM     21  H   UNL     1       1.780  10.326  17.132  0.00  0.00    +0.000 HD
ATOM     22  H   UNL     1       3.118   8.525  17.183  0.00  0.00    +0.000 HD
ENDBRANCH   4   8
BRANCH   1  23
ATOM     23  O   UNL     1      -2.337  13.703  20.318  0.00  0.00    +0.000 OA
BRANCH  23  28
ATOM     24  C   UNL     1      -7.121  12.596  23.778  0.00  0.00    +0.000 C 
ATOM     25  N   UNL     1      -6.504  13.050  22.538  0.00  0.00    +0.000 N 
ATOM     26  C   UNL     1      -5.100  12.924  22.515  0.00  0.00    +0.000 A 
ATOM     27  C   UNL     1      -4.416  13.365  21.398  0.00  0.00    +0.000 A 
ATOM     28  C   UNL     1      -3.045  13.249  21.434  0.00  0.00    +0.000 A 
ATOM     29  N   UNL     1      -2.372  12.763  22.490  0.00  0.00    +0.000 NA
ATOM     30  C   UNL     1      -3.127  12.310  23.491  0.00  0.00    +0.000 A 
ATOM     31  N   UNL     1      -4.462  12.363  23.555  0.00  0.00    +0.000 NA
ATOM     32  H   UNL     1      -6.749  14.014  22.333  0.00  0.00    +0.000 HD
ENDBRANCH  23  28
ENDBRANCH   1  23
TORSDOF 3
ENDMDL
MODEL 5
REMARK VINA RESULT:      -8.7      0.783      1.210
REMARK  Name = 
REMARK  5 active torsions:
REMARK  status: ('A' for Active; 'I' for Inactive)
REMARK    1  A    between atoms: C_1  and  N_2
REMARK    2  A    between atoms: C_5  and  O_6
REMARK    3  A    between atoms: O_6  and  C_7
REMARK    4  A    between atoms: C_10  and  N_11
REMARK    5  A    between atoms: C_24  and  C_25
REMARK                            x       y       z     vdW  Elec       q    Type
REMARK                         _______ _______ _______ _____ _____    ______ ____
ROOT
ATOM      1  C   UNL     1      -1.132  12.090  20.872  0.00  0.00    +0.000 A 
ATOM      2  C   UNL     1      -0.554  11.616  19.704  0.00  0.00    +0.000 A 
ATOM      3  C   UNL     1       0.182  10.433  19.720  0.00  0.00    +0.000 A 
ATOM      4  C   UNL     1       0.376   9.687  20.892  0.00  0.00    +0.000 A 
ATOM      5  C   UNL     1      -0.145  10.202  22.098  0.00  0.00    +0.000 A 
ATOM      6  C   UNL     1       0.018   9.542  23.440  0.00  0.00    +0.000 C 
ATOM      7  C   UNL     1      -0.882  11.416  22.070  0.00  0.00    +0.000 A 
ENDROOT
BRANCH   4   8
ATOM      8  N   UNL     1       1.082   8.447  20.847  0.00  0.00    +0.000 N 
ATOM      9  C   UNL     1       1.785   7.990  19.729  0.00  0.00    +0.000 C 
ATOM     10  O   UNL     1       1.834   8.590  18.666  0.00  0.00    +0.000 OA
ATOM     11  N   UNL     1       2.392   6.763  19.932  0.00  0.00    +0.000 N 
ATOM     12  C   UNL     1       3.199   6.255  18.938  0.00  0.00    +0.000 A 
ATOM     13  N   UNL     1       3.772   6.907  17.960  0.00  0.00    +0.000 NA
ATOM     14  C   UNL     1       4.436   6.033  17.128  0.00  0.00    +0.000 A 
ATOM     15  C   UNL     1       5.126   6.384  15.949  0.00  0.00    +0.000 A 
ATOM     16  C   UNL     1       5.761   5.394  15.195  0.00  0.00    +0.000 A 
ATOM     17  C   UNL     1       5.708   4.065  15.599  0.00  0.00    +0.000 A 
ATOM     18  C   UNL     1       5.022   3.689  16.762  0.00  0.00    +0.000 A 
ATOM     19  C   UNL     1       4.395   4.694  17.520  0.00  0.00    +0.000 A 
ATOM     20  S   UNL     1       3.491   4.577  18.995  0.00  0.00    +0.000 S 
ATOM     21  H   UNL     1       0.960   7.813  21.617  0.00  0.00    +0.000 HD
ATOM     22  H   UNL     1       2.042   6.119  20.619  0.00  0.00    +0.000 HD
ENDBRANCH   4   8
BRANCH   1  23
ATOM     23  O   UNL     1      -1.894  13.238  20.912  0.00  0.00    +0.000 OA
BRANCH  23  28
ATOM     24  C   UNL     1      -7.622  12.153  22.360  0.00  0.00    +0.000 C 
ATOM     25  N   UNL     1      -6.480  12.060  21.459  0.00  0.00    +0.000 N 
ATOM     26  C   UNL     1      -5.296  12.627  21.972  0.00  0.00    +0.000 A 
ATOM     27  C   UNL     1      -4.165  12.626  21.176  0.00  0.00    +0.000 A 
ATOM     28  C   UNL     1      -3.042  13.218  21.708  0.00  0.00    +0.000 A 
ATOM     29  N   UNL     1      -3.015  13.798  22.920  0.00  0.00    +0.000 NA
ATOM     30  C   UNL     1      -4.138  13.693  23.630  0.00  0.00    +0.000 A 
ATOM     31  N   UNL     1      -5.280  13.131  23.217  0.00  0.00    +0.000 NA
ATOM     32  H   UNL     1      -6.683  12.484  20.558  0.00  0.00    +0.000 HD
ENDBRANCH  23  28
ENDBRANCH   1  23
TORSDOF 3
ENDMDL
MODEL 6
REMARK VINA RESULT:      -8.7      7.932      9.591
REMARK  Name = 
REMARK  5 active torsions:
REMARK  status: ('A' for Active; 'I' for Inactive)
REMARK    1  A    between atoms: C_1  and  N_2
REMARK    2  A    between atoms: C_5  and  O_6
REMARK    3  A    between atoms: O_6  and  C_7
REMARK    4  A    between atoms: C_10  and  N_11
REMARK    5  A    between atoms: C_24  and  C_25
REMARK                            x       y       z     vdW  Elec       q    Type
REMARK                         _______ _______ _______ _____ _____    ______ ____
ROOT
ATOM      1  C   UNL     1       9.989  14.199  18.494  0.00  0.00    +0.000 A 
ATOM      2  C   UNL     1      10.270  13.270  17.503  0.00  0.00    +0.000 A 
ATOM      3  C   UNL     1      10.149  11.908  17.770  0.00  0.00    +0.000 A 
ATOM      4  C   UNL     1       9.755  11.421  19.025  0.00  0.00    +0.000 A 
ATOM      5  C   UNL     1       9.541  12.358  20.060  0.00  0.00    +0.000 A 
ATOM      6  C   UNL     1       9.158  11.989  21.467  0.00  0.00    +0.000 C 
ATOM      7  C   UNL     1       9.679  13.743  19.778  0.00  0.00    +0.000 A 
ENDROOT
BRANCH   4   8
ATOM      8  N   UNL     1       9.582  10.020  19.232  0.00  0.00    +0.000 N 
ATOM      9  C   UNL     1       8.629   9.245  18.567  0.00  0.00    +0.000 C 
ATOM     10  O   UNL     1       7.822   9.698  17.768  0.00  0.00    +0.000 OA
ATOM     11  N   UNL     1       8.660   7.911  18.932  0.00  0.00    +0.000 N 
ATOM     12  C   UNL     1       7.836   7.027  18.270  0.00  0.00    +0.000 A 
ATOM     13  N   UNL     1       7.270   7.181  17.102  0.00  0.00    +0.000 NA
ATOM     14  C   UNL     1       6.457   6.105  16.820  0.00  0.00    +0.000 A 
ATOM     15  C   UNL     1       5.659   5.959  15.667  0.00  0.00    +0.000 A 
ATOM     16  C   UNL     1       4.879   4.811  15.503  0.00  0.00    +0.000 A 
ATOM     17  C   UNL     1       4.882   3.819  16.476  0.00  0.00    +0.000 A 
ATOM     18  C   UNL     1       5.661   3.944  17.635  0.00  0.00    +0.000 A 
ATOM     19  C   UNL     1       6.450   5.097  17.786  0.00  0.00    +0.000 A 
ATOM     20  S   UNL     1       7.524   5.554  19.068  0.00  0.00    +0.000 S 
ATOM     21  H   UNL     1      10.090   9.595  19.988  0.00  0.00    +0.000 HD
ATOM     22  H   UNL     1       9.023   7.627  19.825  0.00  0.00    +0.000 HD
ENDBRANCH   4   8
BRANCH   1  23
ATOM     23  O   UNL     1      10.062  15.558  18.280  0.00  0.00    +0.000 OA
BRANCH  23  28
ATOM     24  C   UNL     1       4.283  17.068  18.918  0.00  0.00    +0.000 C 
ATOM     25  N   UNL     1       5.338  16.149  18.510  0.00  0.00    +0.000 N 
ATOM     26  C   UNL     1       6.640  16.608  18.792  0.00  0.00    +0.000 A 
ATOM     27  C   UNL     1       7.714  15.826  18.406  0.00  0.00    +0.000 A 
ATOM     28  C   UNL     1       8.966  16.330  18.675  0.00  0.00    +0.000 A 
ATOM     29  N   UNL     1       9.174  17.523  19.256  0.00  0.00    +0.000 NA
ATOM     30  C   UNL     1       8.074  18.172  19.642  0.00  0.00    +0.000 A 
ATOM     31  N   UNL     1       6.814  17.770  19.442  0.00  0.00    +0.000 NA
ATOM     32  H   UNL     1       5.276  15.928  17.520  0.00  0.00    +0.000 HD
ENDBRANCH  23  28
ENDBRANCH   1  23
TORSDOF 3
ENDMDL
MODEL 7
REMARK VINA RESULT:      -8.6      2.586      3.410
REMARK  Name = 
REMARK  5 active torsions:
REMARK  status: ('A' for Active; 'I' for Inactive)
REMARK    1  A    between atoms: C_1  and  N_2
REMARK    2  A    between atoms: C_5  and  O_6
REMARK    3  A    between atoms: O_6  and  C_7
REMARK    4  A    between atoms: C_10  and  N_11
REMARK    5  A    between atoms: C_24  and  C_25
REMARK                            x       y       z     vdW  Elec       q    Type
REMARK                         _______ _______ _______ _____ _____    ______ ____
ROOT
ATOM      1  C   UNL     1      -0.691  13.312  19.688  0.00  0.00    +0.000 A 
ATOM      2  C   UNL     1       0.678  13.210  19.881  0.00  0.00    +0.000 A 
ATOM      3  C   UNL     1       1.381  12.138  19.337  0.00  0.00    +0.000 A 
ATOM      4  C   UNL     1       0.753  11.129  18.592  0.00  0.00    +0.000 A 
ATOM      5  C   UNL     1      -0.651  11.186  18.455  0.00  0.00    +0.000 A 
ATOM      6  C   UNL     1      -1.472  10.158  17.725  0.00  0.00    +0.000 C 
ATOM      7  C   UNL     1      -1.358  12.278  19.026  0.00  0.00    +0.000 A 
ENDROOT
BRANCH   4   8
ATOM      8  N   UNL     1       1.524  10.085  17.999  0.00  0.00    +0.000 N 
ATOM      9  C   UNL     1       1.825   8.879  18.636  0.00  0.00    +0.000 C 
ATOM     10  O   UNL     1       1.488   8.613  19.780  0.00  0.00    +0.000 OA
ATOM     11  N   UNL     1       2.581   8.024  17.854  0.00  0.00    +0.000 N 
ATOM     12  C   UNL     1       2.854   6.761  18.334  0.00  0.00    +0.000 A 
ATOM     13  N   UNL     1       2.220   6.105  19.270  0.00  0.00    +0.000 NA
ATOM     14  C   UNL     1       2.846   4.904  19.519  0.00  0.00    +0.000 A 
ATOM     15  C   UNL     1       2.460   3.963  20.496  0.00  0.00    +0.000 A 
ATOM     16  C   UNL     1       3.184   2.777  20.643  0.00  0.00    +0.000 A 
ATOM     17  C   UNL     1       4.287   2.527  19.835  0.00  0.00    +0.000 A 
ATOM     18  C   UNL     1       4.696   3.449  18.862  0.00  0.00    +0.000 A 
ATOM     19  C   UNL     1       3.954   4.634  18.714  0.00  0.00    +0.000 A 
ATOM     20  S   UNL     1       4.174   5.957  17.615  0.00  0.00    +0.000 S 
ATOM     21  H   UNL     1       1.980  10.282  17.125  0.00  0.00    +0.000 HD
ATOM     22  H   UNL     1       3.165   8.376  17.117  0.00  0.00    +0.000 HD
ENDBRANCH   4   8
BRANCH   1  23
ATOM     23  O   UNL     1      -1.435  14.365  20.177  0.00  0.00    +0.000 OA
BRANCH  23  28
ATOM     24  C   UNL     1      -4.649  12.398  24.856  0.00  0.00    +0.000 C 
ATOM     25  N   UNL     1      -4.243  12.346  23.457  0.00  0.00    +0.000 N 
ATOM     26  C   UNL     1      -3.245  13.279  23.113  0.00  0.00    +0.000 A 
ATOM     27  C   UNL     1      -2.820  13.337  21.798  0.00  0.00    +0.000 A 
ATOM     28  C   UNL     1      -1.865  14.283  21.504  0.00  0.00    +0.000 A 
ATOM     29  N   UNL     1      -1.368  15.139  22.413  0.00  0.00    +0.000 NA
ATOM     30  C   UNL     1      -1.799  14.962  23.662  0.00  0.00    +0.000 A 
ATOM     31  N   UNL     1      -2.712  14.069  24.059  0.00  0.00    +0.000 NA
ATOM     32  H   UNL     1      -5.037  12.472  22.836  0.00  0.00    +0.000 HD
ENDBRANCH  23  28
ENDBRANCH   1  23
TORSDOF 3
ENDMDL
MODEL 8
REMARK VINA RESULT:      -8.5      8.075     10.467
REMARK  Name = 
REMARK  5 active torsions:
REMARK  status: ('A' for Active; 'I' for Inactive)
REMARK    1  A    between atoms: C_1  and  N_2
REMARK    2  A    between atoms: C_5  and  O_6
REMARK    3  A    between atoms: O_6  and  C_7
REMARK    4  A    between atoms: C_10  and  N_11
REMARK    5  A    between atoms: C_24  and  C_25
REMARK                            x       y       z     vdW  Elec       q    Type
REMARK                         _______ _______ _______ _____ _____    ______ ____
ROOT
ATOM      1  C   UNL     1       6.014   5.031  17.490  0.00  0.00    +0.000 A 
ATOM      2  C   UNL     1       6.073   6.263  16.857  0.00  0.00    +0.000 A 
ATOM      3  C   UNL     1       6.958   7.239  17.310  0.00  0.00    +0.000 A 
ATOM      4  C   UNL     1       7.807   7.029  18.407  0.00  0.00    +0.000 A 
ATOM      5  C   UNL     1       7.699   5.806  19.103  0.00  0.00    +0.000 A 
ATOM      6  C   UNL     1       8.507   5.452  20.322  0.00  0.00    +0.000 C 
ATOM      7  C   UNL     1       6.783   4.825  18.638  0.00  0.00    +0.000 A 
ENDROOT
BRANCH   4   8
ATOM      8  N   UNL     1       8.744   8.034  18.795  0.00  0.00    +0.000 N 
ATOM      9  C   UNL     1       8.627   9.384  18.451  0.00  0.00    +0.000 C 
ATOM     10  O   UNL     1       7.730   9.831  17.752  0.00  0.00    +0.000 OA
ATOM     11  N   UNL     1       9.656  10.163  18.949  0.00  0.00    +0.000 N 
ATOM     12  C   UNL     1       9.598  11.527  18.763  0.00  0.00    +0.000 A 
ATOM     13  N   UNL     1       8.547  12.255  18.491  0.00  0.00    +0.000 NA
ATOM     14  C   UNL     1       8.911  13.569  18.302  0.00  0.00    +0.000 A 
ATOM     15  C   UNL     1       8.040  14.621  17.950  0.00  0.00    +0.000 A 
ATOM     16  C   UNL     1       8.542  15.915  17.791  0.00  0.00    +0.000 A 
ATOM     17  C   UNL     1       9.898  16.166  17.972  0.00  0.00    +0.000 A 
ATOM     18  C   UNL     1      10.785  15.137  18.315  0.00  0.00    +0.000 A 
ATOM     19  C   UNL     1      10.268  13.840  18.483  0.00  0.00    +0.000 A 
ATOM     20  S   UNL     1      11.073  12.366  18.914  0.00  0.00    +0.000 S 
ATOM     21  H   UNL     1       9.598   7.732  19.231  0.00  0.00    +0.000 HD
ATOM     22  H   UNL     1      10.551   9.762  19.166  0.00  0.00    +0.000 HD
ENDBRANCH   4   8
BRANCH   1  23
ATOM     23  O   UNL     1       5.179   4.018  17.069  0.00  0.00    +0.000 OA
BRANCH  23  28
ATOM     24  C   UNL     1       1.513   2.616  21.616  0.00  0.00    +0.000 C 
ATOM     25  N   UNL     1       2.838   2.795  21.037  0.00  0.00    +0.000 N 
ATOM     26  C   UNL     1       2.825   3.264  19.708  0.00  0.00    +0.000 A 
ATOM     27  C   UNL     1       4.033   3.428  19.054  0.00  0.00    +0.000 A 
ATOM     28  C   UNL     1       3.969   3.860  17.749  0.00  0.00    +0.000 A 
ATOM     29  N   UNL     1       2.814   4.095  17.104  0.00  0.00    +0.000 NA
ATOM     30  C   UNL     1       1.710   3.965  17.840  0.00  0.00    +0.000 A 
ATOM     31  N   UNL     1       1.658   3.563  19.115  0.00  0.00    +0.000 NA
ATOM     32  H   UNL     1       3.379   1.935  21.075  0.00  0.00    +0.000 HD
ENDBRANCH  23  28
ENDBRANCH   1  23
TORSDOF 3
ENDMDL
MODEL 9
REMARK VINA RESULT:      -8.4      2.312      3.060
REMARK  Name = 
REMARK  5 active torsions:
REMARK  status: ('A' for Active; 'I' for Inactive)
REMARK    1  A    between atoms: C_1  and  N_2
REMARK    2  A    between atoms: C_5  and  O_6
REMARK    3  A    between atoms: O_6  and  C_7
REMARK    4  A    between atoms: C_10  and  N_11
REMARK    5  A    between atoms: C_24  and  C_25
REMARK                            x       y       z     vdW  Elec       q    Type
REMARK                         _______ _______ _______ _____ _____    ______ ____
ROOT
ATOM      1  C   UNL     1      -1.031  12.940  19.513  0.00  0.00    +0.000 A 
ATOM      2  C   UNL     1      -1.493  11.663  19.233  0.00  0.00    +0.000 A 
ATOM      3  C   UNL     1      -0.634  10.714  18.684  0.00  0.00    +0.000 A 
ATOM      4  C   UNL     1       0.707  11.000  18.387  0.00  0.00    +0.000 A 
ATOM      5  C   UNL     1       1.164  12.319  18.598  0.00  0.00    +0.000 A 
ATOM      6  C   UNL     1       2.559  12.790  18.288  0.00  0.00    +0.000 C 
ATOM      7  C   UNL     1       0.274  13.280  19.147  0.00  0.00    +0.000 A 
ENDROOT
BRANCH   4   8
ATOM      8  N   UNL     1       1.567   9.977  17.886  0.00  0.00    +0.000 N 
ATOM      9  C   UNL     1       1.830   8.781  18.557  0.00  0.00    +0.000 C 
ATOM     10  O   UNL     1       1.378   8.508  19.659  0.00  0.00    +0.000 OA
ATOM     11  N   UNL     1       2.690   7.946  17.866  0.00  0.00    +0.000 N 
ATOM     12  C   UNL     1       2.945   6.693  18.379  0.00  0.00    +0.000 A 
ATOM     13  N   UNL     1       2.232   6.021  19.244  0.00  0.00    +0.000 NA
ATOM     14  C   UNL     1       2.859   4.838  19.565  0.00  0.00    +0.000 A 
ATOM     15  C   UNL     1       2.396   3.888  20.498  0.00  0.00    +0.000 A 
ATOM     16  C   UNL     1       3.133   2.723  20.729  0.00  0.00    +0.000 A 
ATOM     17  C   UNL     1       4.323   2.503  20.047  0.00  0.00    +0.000 A 
ATOM     18  C   UNL     1       4.810   3.435  19.119  0.00  0.00    +0.000 A 
ATOM     19  C   UNL     1       4.056   4.598  18.886  0.00  0.00    +0.000 A 
ATOM     20  S   UNL     1       4.357   5.925  17.812  0.00  0.00    +0.000 S 
ATOM     21  H   UNL     1       2.110  10.186  17.065  0.00  0.00    +0.000 HD
ATOM     22  H   UNL     1       3.341   8.314  17.196  0.00  0.00    +0.000 HD
ENDBRANCH   4   8
BRANCH   1  23
ATOM     23  O   UNL     1      -1.827  13.910  20.083  0.00  0.00    +0.000 OA
BRANCH  23  28
ATOM     24  C   UNL     1      -4.932  12.233  24.944  0.00  0.00    +0.000 C 
ATOM     25  N   UNL     1      -3.731  12.740  24.293  0.00  0.00    +0.000 N 
ATOM     26  C   UNL     1      -3.862  12.915  22.901  0.00  0.00    +0.000 A 
ATOM     27  C   UNL     1      -2.763  13.354  22.184  0.00  0.00    +0.000 A 
ATOM     28  C   UNL     1      -2.930  13.481  20.824  0.00  0.00    +0.000 A 
ATOM     29  N   UNL     1      -4.075  13.179  20.189  0.00  0.00    +0.000 NA
ATOM     30  C   UNL     1      -5.090  12.822  20.976  0.00  0.00    +0.000 A 
ATOM     31  N   UNL     1      -5.041  12.678  22.305  0.00  0.00    +0.000 NA
ATOM     32  H   UNL     1      -2.929  12.142  24.474  0.00  0.00    +0.000 HD
ENDBRANCH  23  28
ENDBRANCH   1  23
TORSDOF 3
ENDMDL
